data_job_00111
_audit_creation_date              2018-12-19
_audit_creation_method            'Materials Studio'
_symmetry_space_group_name_H-M    'P1'
_symmetry_Int_Tables_number       1
_symmetry_cell_setting            triclinic
loop_
_symmetry_equiv_pos_as_xyz
  x,y,z
_cell_length_a                    22.6991
_cell_length_b                    10.8282
_cell_length_c                    17.3173
_cell_angle_alpha                 90.0000
_cell_angle_beta                  90.4351
_cell_angle_gamma                 90.0000
loop_
_atom_site_label
_atom_site_type_symbol
_atom_site_fract_x
_atom_site_fract_y
_atom_site_fract_z
_atom_site_U_iso_or_equiv
_atom_site_adp_type
_atom_site_occupancy
C1     C     0.67460   0.40302   0.73382   0.00000  Uiso   1.00
C2     C     0.64698   0.31009   0.67817   0.00000  Uiso   1.00
C3     C     0.65577   0.30599   0.59899   0.00000  Uiso   1.00
C4     C     0.62650   0.21389   0.55820   0.00000  Uiso   1.00
C5     C     0.58917   0.08254   0.46613   0.00000  Uiso   1.00
C6     C     0.62343   0.46483   0.77528   0.00000  Uiso   1.00
C7     C     0.61243   0.59084   0.77777   0.00000  Uiso   1.00
C8     C     0.56334   0.62900   0.81874   0.00000  Uiso   1.00
C9     C     0.48948   0.73791   0.87749   0.00000  Uiso   1.00
C10    C     0.70706   0.32704   0.79486   0.00000  Uiso   1.00
C11    C     0.76638   0.33722   0.81383   0.00000  Uiso   1.00
C12    C     0.78770   0.25939   0.87130   0.00000  Uiso   1.00
C13    C     0.84369   0.15436   0.96045   0.00000  Uiso   1.00
C14    C     0.60700   0.24674   0.80218   0.00000  Uiso   1.00
C15    C     0.61026   0.22521   0.71530   0.00000  Uiso   1.00
C16    C     0.58097   0.13308   0.67462   0.00000  Uiso   1.00
C17    C     0.58972   0.12885   0.59540   0.00000  Uiso   1.00
C18    C     0.58671   0.37995   0.81241   0.00000  Uiso   1.00
C19    C     0.53763   0.41794   0.85340   0.00000  Uiso   1.00
C20    C     0.52656   0.54397   0.85594   0.00000  Uiso   1.00
C21    C     0.67034   0.24215   0.83199   0.00000  Uiso   1.00
C22    C     0.69158   0.16431   0.88946   0.00000  Uiso   1.00
C23    C     0.75091   0.17435   0.90850   0.00000  Uiso   1.00
H24    H     0.70319   0.46911   0.70492   0.00000  Uiso   1.00
H25    H     0.68419   0.37170   0.57027   0.00000  Uiso   1.00
H26    H     0.64086   0.65651   0.74903   0.00000  Uiso   1.00
H27    H     0.79478   0.40292   0.78508   0.00000  Uiso   1.00
H28    H     0.64691   0.22631   0.43737   0.00000  Uiso   1.00
H29    H     0.55556   0.82684   0.81431   0.00000  Uiso   1.00
H30    H     0.88013   0.29210   0.89033   0.00000  Uiso   1.00
H31    H     0.57841   0.18065   0.83109   0.00000  Uiso   1.00
H32    H     0.55256   0.06741   0.70337   0.00000  Uiso   1.00
H33    H     0.50923   0.35222   0.88213   0.00000  Uiso   1.00
H34    H     0.66315   0.09863   0.91818   0.00000  Uiso   1.00
H35    H     0.54007   0.97933   0.54540   0.00000  Uiso   1.00
H36    H     0.44872   0.57987   0.92235   0.00000  Uiso   1.00
H37    H     0.77330   0.04512   0.99836   0.00000  Uiso   1.00
O38    O     0.57872   0.03356   0.40509   0.00000  Uiso   1.00
O39    O     0.45888   0.82143   0.89963   0.00000  Uiso   1.00
O40    O     0.88472   0.11986   0.99936   0.00000  Uiso   1.00
N41    N     0.62532   0.18370   0.48033   0.00000  Uiso   1.00
N42    N     0.53991   0.74517   0.83273   0.00000  Uiso   1.00
N43    N     0.84336   0.24525   0.90382   0.00000  Uiso   1.00
N44    N     0.56783   0.05081   0.53845   0.00000  Uiso   1.00
N45    N     0.48242   0.61227   0.89086   0.00000  Uiso   1.00
N46    N     0.78587   0.11236   0.96195   0.00000  Uiso   1.00
C47    C     0.17460   0.90302   0.73382   0.00000  Uiso   1.00
C48    C     0.14698   0.81009   0.67817   0.00000  Uiso   1.00
C49    C     0.15577   0.80599   0.59899   0.00000  Uiso   1.00
C50    C     0.12650   0.71389   0.55820   0.00000  Uiso   1.00
C51    C     0.08917   0.58254   0.46613   0.00000  Uiso   1.00
C52    C     0.12343   0.96483   0.77528   0.00000  Uiso   1.00
C53    C     0.11243   0.09084   0.77777   0.00000  Uiso   1.00
C54    C     0.06334   0.12900   0.81874   0.00000  Uiso   1.00
C55    C     0.98948   0.23791   0.87749   0.00000  Uiso   1.00
C56    C     0.20706   0.82704   0.79486   0.00000  Uiso   1.00
C57    C     0.26638   0.83722   0.81383   0.00000  Uiso   1.00
C58    C     0.28770   0.75939   0.87130   0.00000  Uiso   1.00
C59    C     0.34369   0.65436   0.96045   0.00000  Uiso   1.00
C60    C     0.10700   0.74674   0.80218   0.00000  Uiso   1.00
C61    C     0.11026   0.72521   0.71530   0.00000  Uiso   1.00
C62    C     0.08097   0.63308   0.67462   0.00000  Uiso   1.00
C63    C     0.08972   0.62885   0.59540   0.00000  Uiso   1.00
C64    C     0.08671   0.87995   0.81241   0.00000  Uiso   1.00
C65    C     0.03763   0.91794   0.85340   0.00000  Uiso   1.00
C66    C     0.02656   0.04397   0.85594   0.00000  Uiso   1.00
C67    C     0.17034   0.74215   0.83199   0.00000  Uiso   1.00
C68    C     0.19158   0.66431   0.88946   0.00000  Uiso   1.00
C69    C     0.25091   0.67435   0.90850   0.00000  Uiso   1.00
H70    H     0.20319   0.96911   0.70492   0.00000  Uiso   1.00
H71    H     0.18419   0.87170   0.57027   0.00000  Uiso   1.00
H72    H     0.14086   0.15651   0.74903   0.00000  Uiso   1.00
H73    H     0.29478   0.90292   0.78508   0.00000  Uiso   1.00
H74    H     0.14691   0.72631   0.43737   0.00000  Uiso   1.00
H75    H     0.05556   0.32684   0.81431   0.00000  Uiso   1.00
H76    H     0.38013   0.79210   0.89033   0.00000  Uiso   1.00
H77    H     0.07841   0.68065   0.83109   0.00000  Uiso   1.00
H78    H     0.05256   0.56741   0.70337   0.00000  Uiso   1.00
H79    H     0.00923   0.85222   0.88213   0.00000  Uiso   1.00
H80    H     0.16315   0.59863   0.91818   0.00000  Uiso   1.00
H81    H     0.04007   0.47933   0.54540   0.00000  Uiso   1.00
H82    H     0.94872   0.07987   0.92235   0.00000  Uiso   1.00
H83    H     0.27330   0.54512   0.99836   0.00000  Uiso   1.00
O84    O     0.07872   0.53356   0.40509   0.00000  Uiso   1.00
O85    O     0.95888   0.32143   0.89963   0.00000  Uiso   1.00
O86    O     0.38472   0.61986   0.99936   0.00000  Uiso   1.00
N87    N     0.12532   0.68370   0.48033   0.00000  Uiso   1.00
N88    N     0.03991   0.24517   0.83273   0.00000  Uiso   1.00
N89    N     0.34336   0.74525   0.90382   0.00000  Uiso   1.00
N90    N     0.06783   0.55081   0.53845   0.00000  Uiso   1.00
N91    N     0.98242   0.11227   0.89086   0.00000  Uiso   1.00
N92    N     0.28587   0.61236   0.96195   0.00000  Uiso   1.00
C93    C     0.32540   0.40302   0.76618   0.00000  Uiso   1.00
C94    C     0.35302   0.31009   0.82183   0.00000  Uiso   1.00
C95    C     0.34423   0.30599   0.90101   0.00000  Uiso   1.00
C96    C     0.37350   0.21389   0.94180   0.00000  Uiso   1.00
C97    C     0.41083   0.08254   0.03387   0.00000  Uiso   1.00
C98    C     0.37657   0.46483   0.72472   0.00000  Uiso   1.00
C99    C     0.38757   0.59084   0.72223   0.00000  Uiso   1.00
C100   C     0.43666   0.62900   0.68126   0.00000  Uiso   1.00
C101   C     0.51052   0.73791   0.62251   0.00000  Uiso   1.00
C102   C     0.29294   0.32704   0.70514   0.00000  Uiso   1.00
C103   C     0.23362   0.33722   0.68617   0.00000  Uiso   1.00
C104   C     0.21230   0.25939   0.62870   0.00000  Uiso   1.00
C105   C     0.15631   0.15436   0.53955   0.00000  Uiso   1.00
C106   C     0.39300   0.24674   0.69782   0.00000  Uiso   1.00
C107   C     0.38974   0.22521   0.78470   0.00000  Uiso   1.00
C108   C     0.41903   0.13308   0.82538   0.00000  Uiso   1.00
C109   C     0.41028   0.12885   0.90460   0.00000  Uiso   1.00
C110   C     0.41329   0.37995   0.68759   0.00000  Uiso   1.00
C111   C     0.46237   0.41794   0.64660   0.00000  Uiso   1.00
C112   C     0.47344   0.54397   0.64406   0.00000  Uiso   1.00
C113   C     0.32966   0.24215   0.66801   0.00000  Uiso   1.00
C114   C     0.30842   0.16431   0.61054   0.00000  Uiso   1.00
C115   C     0.24909   0.17435   0.59150   0.00000  Uiso   1.00
H116   H     0.29681   0.46911   0.79508   0.00000  Uiso   1.00
H117   H     0.31581   0.37170   0.92973   0.00000  Uiso   1.00
H118   H     0.35914   0.65651   0.75097   0.00000  Uiso   1.00
H119   H     0.20522   0.40292   0.71492   0.00000  Uiso   1.00
H120   H     0.35309   0.22631   0.06263   0.00000  Uiso   1.00
H121   H     0.44444   0.82684   0.68569   0.00000  Uiso   1.00
H122   H     0.11987   0.29210   0.60967   0.00000  Uiso   1.00
H123   H     0.42159   0.18065   0.66891   0.00000  Uiso   1.00
H124   H     0.44744   0.06741   0.79663   0.00000  Uiso   1.00
H125   H     0.49077   0.35222   0.61787   0.00000  Uiso   1.00
H126   H     0.33685   0.09863   0.58182   0.00000  Uiso   1.00
H127   H     0.45993   0.97933   0.95460   0.00000  Uiso   1.00
H128   H     0.55128   0.57987   0.57765   0.00000  Uiso   1.00
H129   H     0.22670   0.04512   0.50164   0.00000  Uiso   1.00
O130   O     0.42128   0.03356   0.09491   0.00000  Uiso   1.00
O131   O     0.54112   0.82143   0.60037   0.00000  Uiso   1.00
O132   O     0.11528   0.11986   0.50064   0.00000  Uiso   1.00
N133   N     0.37468   0.18370   0.01967   0.00000  Uiso   1.00
N134   N     0.46009   0.74517   0.66727   0.00000  Uiso   1.00
N135   N     0.15664   0.24525   0.59618   0.00000  Uiso   1.00
N136   N     0.43217   0.05081   0.96155   0.00000  Uiso   1.00
N137   N     0.51758   0.61227   0.60914   0.00000  Uiso   1.00
N138   N     0.21413   0.11236   0.53805   0.00000  Uiso   1.00
C139   C     0.82540   0.90302   0.76618   0.00000  Uiso   1.00
C140   C     0.85302   0.81009   0.82183   0.00000  Uiso   1.00
C141   C     0.84423   0.80599   0.90101   0.00000  Uiso   1.00
C142   C     0.87350   0.71389   0.94180   0.00000  Uiso   1.00
C143   C     0.91083   0.58254   0.03387   0.00000  Uiso   1.00
C144   C     0.87657   0.96483   0.72472   0.00000  Uiso   1.00
C145   C     0.88757   0.09084   0.72223   0.00000  Uiso   1.00
C146   C     0.93666   0.12900   0.68126   0.00000  Uiso   1.00
C147   C     0.01052   0.23791   0.62251   0.00000  Uiso   1.00
C148   C     0.79294   0.82704   0.70514   0.00000  Uiso   1.00
C149   C     0.73362   0.83722   0.68617   0.00000  Uiso   1.00
C150   C     0.71230   0.75939   0.62870   0.00000  Uiso   1.00
C151   C     0.65631   0.65436   0.53955   0.00000  Uiso   1.00
C152   C     0.89300   0.74674   0.69782   0.00000  Uiso   1.00
C153   C     0.88974   0.72521   0.78470   0.00000  Uiso   1.00
C154   C     0.91903   0.63308   0.82538   0.00000  Uiso   1.00
C155   C     0.91028   0.62885   0.90460   0.00000  Uiso   1.00
C156   C     0.91329   0.87995   0.68759   0.00000  Uiso   1.00
C157   C     0.96237   0.91794   0.64660   0.00000  Uiso   1.00
C158   C     0.97344   0.04397   0.64406   0.00000  Uiso   1.00
C159   C     0.82966   0.74215   0.66801   0.00000  Uiso   1.00
C160   C     0.80842   0.66431   0.61054   0.00000  Uiso   1.00
C161   C     0.74909   0.67435   0.59150   0.00000  Uiso   1.00
H162   H     0.79681   0.96911   0.79508   0.00000  Uiso   1.00
H163   H     0.81581   0.87170   0.92973   0.00000  Uiso   1.00
H164   H     0.85914   0.15651   0.75097   0.00000  Uiso   1.00
H165   H     0.70522   0.90292   0.71492   0.00000  Uiso   1.00
H166   H     0.85309   0.72631   0.06263   0.00000  Uiso   1.00
H167   H     0.94444   0.32684   0.68569   0.00000  Uiso   1.00
H168   H     0.61987   0.79210   0.60967   0.00000  Uiso   1.00
H169   H     0.92159   0.68065   0.66891   0.00000  Uiso   1.00
H170   H     0.94744   0.56741   0.79663   0.00000  Uiso   1.00
H171   H     0.99077   0.85222   0.61787   0.00000  Uiso   1.00
H172   H     0.83685   0.59863   0.58182   0.00000  Uiso   1.00
H173   H     0.95993   0.47933   0.95460   0.00000  Uiso   1.00
H174   H     0.05128   0.07987   0.57765   0.00000  Uiso   1.00
H175   H     0.72670   0.54512   0.50164   0.00000  Uiso   1.00
O176   O     0.92128   0.53356   0.09491   0.00000  Uiso   1.00
O177   O     0.04112   0.32143   0.60037   0.00000  Uiso   1.00
O178   O     0.61528   0.61986   0.50064   0.00000  Uiso   1.00
N179   N     0.87468   0.68370   0.01967   0.00000  Uiso   1.00
N180   N     0.96009   0.24517   0.66727   0.00000  Uiso   1.00
N181   N     0.65664   0.74525   0.59618   0.00000  Uiso   1.00
N182   N     0.93217   0.55081   0.96155   0.00000  Uiso   1.00
N183   N     0.01758   0.11227   0.60914   0.00000  Uiso   1.00
N184   N     0.71413   0.61236   0.53805   0.00000  Uiso   1.00
C185   C     0.32540   0.59698   0.26618   0.00000  Uiso   1.00
C186   C     0.35302   0.68991   0.32183   0.00000  Uiso   1.00
C187   C     0.34423   0.69401   0.40101   0.00000  Uiso   1.00
C188   C     0.37350   0.78611   0.44180   0.00000  Uiso   1.00
C189   C     0.41083   0.91746   0.53387   0.00000  Uiso   1.00
C190   C     0.37657   0.53517   0.22472   0.00000  Uiso   1.00
C191   C     0.38757   0.40916   0.22223   0.00000  Uiso   1.00
C192   C     0.43666   0.37100   0.18126   0.00000  Uiso   1.00
C193   C     0.51052   0.26209   0.12251   0.00000  Uiso   1.00
C194   C     0.29294   0.67296   0.20514   0.00000  Uiso   1.00
C195   C     0.23362   0.66278   0.18617   0.00000  Uiso   1.00
C196   C     0.21230   0.74061   0.12870   0.00000  Uiso   1.00
C197   C     0.15631   0.84564   0.03955   0.00000  Uiso   1.00
C198   C     0.39300   0.75326   0.19782   0.00000  Uiso   1.00
C199   C     0.38974   0.77479   0.28470   0.00000  Uiso   1.00
C200   C     0.41903   0.86692   0.32538   0.00000  Uiso   1.00
C201   C     0.41028   0.87115   0.40460   0.00000  Uiso   1.00
C202   C     0.41329   0.62005   0.18759   0.00000  Uiso   1.00
C203   C     0.46237   0.58206   0.14660   0.00000  Uiso   1.00
C204   C     0.47344   0.45603   0.14406   0.00000  Uiso   1.00
C205   C     0.32966   0.75785   0.16801   0.00000  Uiso   1.00
C206   C     0.30842   0.83569   0.11054   0.00000  Uiso   1.00
C207   C     0.24909   0.82565   0.09150   0.00000  Uiso   1.00
H208   H     0.29681   0.53089   0.29508   0.00000  Uiso   1.00
H209   H     0.31581   0.62830   0.42973   0.00000  Uiso   1.00
H210   H     0.35914   0.34349   0.25097   0.00000  Uiso   1.00
H211   H     0.20522   0.59708   0.21492   0.00000  Uiso   1.00
H212   H     0.35309   0.77369   0.56263   0.00000  Uiso   1.00
H213   H     0.44444   0.17316   0.18569   0.00000  Uiso   1.00
H214   H     0.11987   0.70790   0.10967   0.00000  Uiso   1.00
H215   H     0.42159   0.81935   0.16891   0.00000  Uiso   1.00
H216   H     0.44744   0.93259   0.29663   0.00000  Uiso   1.00
H217   H     0.49077   0.64778   0.11787   0.00000  Uiso   1.00
H218   H     0.33685   0.90137   0.08182   0.00000  Uiso   1.00
H219   H     0.45993   0.02067   0.45460   0.00000  Uiso   1.00
H220   H     0.55128   0.42013   0.07765   0.00000  Uiso   1.00
H221   H     0.22670   0.95488   0.00164   0.00000  Uiso   1.00
O222   O     0.42128   0.96644   0.59491   0.00000  Uiso   1.00
O223   O     0.54112   0.17857   0.10037   0.00000  Uiso   1.00
O224   O     0.11528   0.88014   0.00064   0.00000  Uiso   1.00
N225   N     0.37468   0.81630   0.51967   0.00000  Uiso   1.00
N226   N     0.46009   0.25483   0.16727   0.00000  Uiso   1.00
N227   N     0.15664   0.75475   0.09618   0.00000  Uiso   1.00
N228   N     0.43217   0.94919   0.46155   0.00000  Uiso   1.00
N229   N     0.51758   0.38773   0.10914   0.00000  Uiso   1.00
N230   N     0.21413   0.88764   0.03805   0.00000  Uiso   1.00
C231   C     0.82540   0.09698   0.26618   0.00000  Uiso   1.00
C232   C     0.85302   0.18991   0.32183   0.00000  Uiso   1.00
C233   C     0.84423   0.19401   0.40101   0.00000  Uiso   1.00
C234   C     0.87350   0.28611   0.44180   0.00000  Uiso   1.00
C235   C     0.91083   0.41746   0.53387   0.00000  Uiso   1.00
C236   C     0.87657   0.03517   0.22472   0.00000  Uiso   1.00
C237   C     0.88757   0.90916   0.22223   0.00000  Uiso   1.00
C238   C     0.93666   0.87100   0.18126   0.00000  Uiso   1.00
C239   C     0.01052   0.76209   0.12251   0.00000  Uiso   1.00
C240   C     0.79294   0.17296   0.20514   0.00000  Uiso   1.00
C241   C     0.73362   0.16278   0.18617   0.00000  Uiso   1.00
C242   C     0.71230   0.24061   0.12870   0.00000  Uiso   1.00
C243   C     0.65631   0.34564   0.03955   0.00000  Uiso   1.00
C244   C     0.89300   0.25326   0.19782   0.00000  Uiso   1.00
C245   C     0.88974   0.27479   0.28470   0.00000  Uiso   1.00
C246   C     0.91903   0.36692   0.32538   0.00000  Uiso   1.00
C247   C     0.91028   0.37115   0.40460   0.00000  Uiso   1.00
C248   C     0.91329   0.12005   0.18759   0.00000  Uiso   1.00
C249   C     0.96237   0.08206   0.14660   0.00000  Uiso   1.00
C250   C     0.97344   0.95603   0.14406   0.00000  Uiso   1.00
C251   C     0.82966   0.25785   0.16801   0.00000  Uiso   1.00
C252   C     0.80842   0.33569   0.11054   0.00000  Uiso   1.00
C253   C     0.74909   0.32565   0.09150   0.00000  Uiso   1.00
H254   H     0.79681   0.03089   0.29508   0.00000  Uiso   1.00
H255   H     0.81581   0.12830   0.42973   0.00000  Uiso   1.00
H256   H     0.85914   0.84349   0.25097   0.00000  Uiso   1.00
H257   H     0.70522   0.09708   0.21492   0.00000  Uiso   1.00
H258   H     0.85309   0.27369   0.56263   0.00000  Uiso   1.00
H259   H     0.94444   0.67316   0.18569   0.00000  Uiso   1.00
H260   H     0.61987   0.20790   0.10967   0.00000  Uiso   1.00
H261   H     0.92159   0.31935   0.16891   0.00000  Uiso   1.00
H262   H     0.94744   0.43259   0.29663   0.00000  Uiso   1.00
H263   H     0.99077   0.14778   0.11787   0.00000  Uiso   1.00
H264   H     0.83685   0.40137   0.08182   0.00000  Uiso   1.00
H265   H     0.95993   0.52067   0.45460   0.00000  Uiso   1.00
H266   H     0.05128   0.92013   0.07765   0.00000  Uiso   1.00
H267   H     0.72670   0.45488   0.00164   0.00000  Uiso   1.00
O268   O     0.92128   0.46644   0.59491   0.00000  Uiso   1.00
O269   O     0.04112   0.67857   0.10037   0.00000  Uiso   1.00
O270   O     0.61528   0.38014   0.00064   0.00000  Uiso   1.00
N271   N     0.87468   0.31630   0.51967   0.00000  Uiso   1.00
N272   N     0.96009   0.75483   0.16727   0.00000  Uiso   1.00
N273   N     0.65664   0.25475   0.09618   0.00000  Uiso   1.00
N274   N     0.93217   0.44919   0.46155   0.00000  Uiso   1.00
N275   N     0.01758   0.88773   0.10914   0.00000  Uiso   1.00
N276   N     0.71413   0.38764   0.03805   0.00000  Uiso   1.00
C277   C     0.67460   0.59698   0.23382   0.00000  Uiso   1.00
C278   C     0.64698   0.68991   0.17817   0.00000  Uiso   1.00
C279   C     0.65577   0.69401   0.09899   0.00000  Uiso   1.00
C280   C     0.62650   0.78611   0.05820   0.00000  Uiso   1.00
C281   C     0.58917   0.91746   0.96613   0.00000  Uiso   1.00
C282   C     0.62343   0.53517   0.27528   0.00000  Uiso   1.00
C283   C     0.61243   0.40916   0.27777   0.00000  Uiso   1.00
C284   C     0.56334   0.37100   0.31874   0.00000  Uiso   1.00
C285   C     0.48948   0.26209   0.37749   0.00000  Uiso   1.00
C286   C     0.70706   0.67296   0.29486   0.00000  Uiso   1.00
C287   C     0.76638   0.66278   0.31383   0.00000  Uiso   1.00
C288   C     0.78770   0.74061   0.37130   0.00000  Uiso   1.00
C289   C     0.84369   0.84564   0.46045   0.00000  Uiso   1.00
C290   C     0.60700   0.75326   0.30218   0.00000  Uiso   1.00
C291   C     0.61026   0.77479   0.21530   0.00000  Uiso   1.00
C292   C     0.58097   0.86692   0.17462   0.00000  Uiso   1.00
C293   C     0.58972   0.87115   0.09540   0.00000  Uiso   1.00
C294   C     0.58671   0.62005   0.31241   0.00000  Uiso   1.00
C295   C     0.53763   0.58206   0.35340   0.00000  Uiso   1.00
C296   C     0.52656   0.45603   0.35594   0.00000  Uiso   1.00
C297   C     0.67034   0.75785   0.33199   0.00000  Uiso   1.00
C298   C     0.69158   0.83569   0.38946   0.00000  Uiso   1.00
C299   C     0.75091   0.82565   0.40850   0.00000  Uiso   1.00
H300   H     0.70319   0.53089   0.20492   0.00000  Uiso   1.00
H301   H     0.68419   0.62830   0.07027   0.00000  Uiso   1.00
H302   H     0.64086   0.34349   0.24903   0.00000  Uiso   1.00
H303   H     0.79478   0.59708   0.28508   0.00000  Uiso   1.00
H304   H     0.64691   0.77369   0.93737   0.00000  Uiso   1.00
H305   H     0.55556   0.17316   0.31431   0.00000  Uiso   1.00
H306   H     0.88013   0.70790   0.39033   0.00000  Uiso   1.00
H307   H     0.57841   0.81935   0.33109   0.00000  Uiso   1.00
H308   H     0.55256   0.93259   0.20337   0.00000  Uiso   1.00
H309   H     0.50923   0.64778   0.38213   0.00000  Uiso   1.00
H310   H     0.66315   0.90137   0.41818   0.00000  Uiso   1.00
H311   H     0.54007   0.02067   0.04540   0.00000  Uiso   1.00
H312   H     0.44872   0.42013   0.42235   0.00000  Uiso   1.00
H313   H     0.77330   0.95488   0.49836   0.00000  Uiso   1.00
O314   O     0.57872   0.96644   0.90509   0.00000  Uiso   1.00
O315   O     0.45888   0.17857   0.39963   0.00000  Uiso   1.00
O316   O     0.88472   0.88014   0.49936   0.00000  Uiso   1.00
N317   N     0.62532   0.81630   0.98033   0.00000  Uiso   1.00
N318   N     0.53991   0.25483   0.33273   0.00000  Uiso   1.00
N319   N     0.84336   0.75475   0.40382   0.00000  Uiso   1.00
N320   N     0.56783   0.94919   0.03845   0.00000  Uiso   1.00
N321   N     0.48242   0.38773   0.39086   0.00000  Uiso   1.00
N322   N     0.78587   0.88764   0.46195   0.00000  Uiso   1.00
C323   C     0.17460   0.09698   0.23382   0.00000  Uiso   1.00
C324   C     0.14698   0.18991   0.17817   0.00000  Uiso   1.00
C325   C     0.15577   0.19401   0.09899   0.00000  Uiso   1.00
C326   C     0.12650   0.28611   0.05820   0.00000  Uiso   1.00
C327   C     0.08917   0.41746   0.96613   0.00000  Uiso   1.00
C328   C     0.12343   0.03517   0.27528   0.00000  Uiso   1.00
C329   C     0.11243   0.90916   0.27777   0.00000  Uiso   1.00
C330   C     0.06334   0.87100   0.31874   0.00000  Uiso   1.00
C331   C     0.98948   0.76209   0.37749   0.00000  Uiso   1.00
C332   C     0.20706   0.17296   0.29486   0.00000  Uiso   1.00
C333   C     0.26638   0.16278   0.31383   0.00000  Uiso   1.00
C334   C     0.28770   0.24061   0.37130   0.00000  Uiso   1.00
C335   C     0.34369   0.34564   0.46045   0.00000  Uiso   1.00
C336   C     0.10700   0.25326   0.30218   0.00000  Uiso   1.00
C337   C     0.11026   0.27479   0.21530   0.00000  Uiso   1.00
C338   C     0.08097   0.36692   0.17462   0.00000  Uiso   1.00
C339   C     0.08972   0.37115   0.09540   0.00000  Uiso   1.00
C340   C     0.08671   0.12005   0.31241   0.00000  Uiso   1.00
C341   C     0.03763   0.08206   0.35340   0.00000  Uiso   1.00
C342   C     0.02656   0.95603   0.35594   0.00000  Uiso   1.00
C343   C     0.17034   0.25785   0.33199   0.00000  Uiso   1.00
C344   C     0.19158   0.33569   0.38946   0.00000  Uiso   1.00
C345   C     0.25091   0.32565   0.40850   0.00000  Uiso   1.00
H346   H     0.20319   0.03089   0.20492   0.00000  Uiso   1.00
H347   H     0.18419   0.12830   0.07027   0.00000  Uiso   1.00
H348   H     0.14086   0.84349   0.24903   0.00000  Uiso   1.00
H349   H     0.29478   0.09708   0.28508   0.00000  Uiso   1.00
H350   H     0.14691   0.27369   0.93737   0.00000  Uiso   1.00
H351   H     0.05556   0.67316   0.31431   0.00000  Uiso   1.00
H352   H     0.38013   0.20790   0.39033   0.00000  Uiso   1.00
H353   H     0.07841   0.31935   0.33109   0.00000  Uiso   1.00
H354   H     0.05256   0.43259   0.20337   0.00000  Uiso   1.00
H355   H     0.00923   0.14778   0.38213   0.00000  Uiso   1.00
H356   H     0.16315   0.40137   0.41818   0.00000  Uiso   1.00
H357   H     0.04007   0.52067   0.04540   0.00000  Uiso   1.00
H358   H     0.94872   0.92013   0.42235   0.00000  Uiso   1.00
H359   H     0.27330   0.45488   0.49836   0.00000  Uiso   1.00
O360   O     0.07872   0.46644   0.90509   0.00000  Uiso   1.00
O361   O     0.95888   0.67857   0.39963   0.00000  Uiso   1.00
O362   O     0.38472   0.38014   0.49936   0.00000  Uiso   1.00
N363   N     0.12532   0.31630   0.98033   0.00000  Uiso   1.00
N364   N     0.03991   0.75483   0.33273   0.00000  Uiso   1.00
N365   N     0.34336   0.25475   0.40382   0.00000  Uiso   1.00
N366   N     0.06783   0.44919   0.03845   0.00000  Uiso   1.00
N367   N     0.98242   0.88773   0.39086   0.00000  Uiso   1.00
N368   N     0.28587   0.38764   0.46195   0.00000  Uiso   1.00
