data_job_05901
_audit_creation_date              2018-12-19
_audit_creation_method            'Materials Studio'
_symmetry_space_group_name_H-M    'P1'
_symmetry_Int_Tables_number       1
_symmetry_cell_setting            triclinic
loop_
_symmetry_equiv_pos_as_xyz
  x,y,z
_cell_length_a                    12.8443
_cell_length_b                    8.6339
_cell_length_c                    12.4674
_cell_angle_alpha                 90.0000
_cell_angle_beta                  75.6596
_cell_angle_gamma                 90.0000
loop_
_atom_site_label
_atom_site_type_symbol
_atom_site_fract_x
_atom_site_fract_y
_atom_site_fract_z
_atom_site_U_iso_or_equiv
_atom_site_adp_type
_atom_site_occupancy
C1     C     0.31296   0.29919   0.82986   0.00000  Uiso   1.00
C2     C     0.26139   0.31857   0.73288   0.00000  Uiso   1.00
C3     C     0.27080   0.44763   0.66479   0.00000  Uiso   1.00
C4     C     0.21747   0.44282   0.58064   0.00000  Uiso   1.00
C5     C     0.14656   0.49261   0.43243   0.00000  Uiso   1.00
C6     C     0.22120   0.26433   0.93066   0.00000  Uiso   1.00
C7     C     0.19682   0.34777   0.02887   0.00000  Uiso   1.00
C8     C     0.10966   0.29728   0.11121   0.00000  Uiso   1.00
C9     C     0.97640   0.26280   0.27009   0.00000  Uiso   1.00
C10    C     0.37993   0.15156   0.80661   0.00000  Uiso   1.00
C11    C     0.48902   0.14015   0.80054   0.00000  Uiso   1.00
C12    C     0.53551   0.99470   0.77846   0.00000  Uiso   1.00
C13    C     0.64870   0.78512   0.74472   0.00000  Uiso   1.00
C14    C     0.20154   0.06116   0.80149   0.00000  Uiso   1.00
C15    C     0.20087   0.18928   0.71748   0.00000  Uiso   1.00
C16    C     0.14752   0.18427   0.63340   0.00000  Uiso   1.00
C17    C     0.15685   0.31330   0.56520   0.00000  Uiso   1.00
C18    C     0.16068   0.13505   0.91525   0.00000  Uiso   1.00
C19    C     0.07354   0.08442   0.99747   0.00000  Uiso   1.00
C20    C     0.04903   0.16776   0.09577   0.00000  Uiso   1.00
C21    C     0.31942   0.02226   0.79119   0.00000  Uiso   1.00
C22    C     0.36574   0.87680   0.76913   0.00000  Uiso   1.00
C23    C     0.47488   0.86518   0.76302   0.00000  Uiso   1.00
H24    H     0.36008   0.39985   0.84187   0.00000  Uiso   1.00
H25    H     0.31763   0.54766   0.67676   0.00000  Uiso   1.00
H26    H     0.24367   0.44781   0.04077   0.00000  Uiso   1.00
H27    H     0.53583   0.24023   0.81247   0.00000  Uiso   1.00
H28    H     0.24385   0.65455   0.48692   0.00000  Uiso   1.00
H29    H     0.08793   0.44397   0.25449   0.00000  Uiso   1.00
H30    H     0.70399   0.00624   0.77307   0.00000  Uiso   1.00
H31    H     0.15442   0.96050   0.78949   0.00000  Uiso   1.00
H32    H     0.10069   0.08421   0.62149   0.00000  Uiso   1.00
H33    H     0.02673   0.98436   0.98552   0.00000  Uiso   1.00
H34    H     0.31888   0.77678   0.75721   0.00000  Uiso   1.00
H35    H     0.06777   0.27840   0.44207   0.00000  Uiso   1.00
H36    H     0.91185   0.06782   0.20965   0.00000  Uiso   1.00
H37    H     0.52791   0.63009   0.72822   0.00000  Uiso   1.00
O38    O     0.12415   0.55580   0.35495   0.00000  Uiso   1.00
O39    O     0.91960   0.27951   0.36198   0.00000  Uiso   1.00
O40    O     0.72786   0.70523   0.73035   0.00000  Uiso   1.00
N41    N     0.20980   0.54903   0.49941   0.00000  Uiso   1.00
N42    N     0.06401   0.35217   0.21703   0.00000  Uiso   1.00
N43    N     0.63998   0.94292   0.76697   0.00000  Uiso   1.00
N44    N     0.11506   0.34663   0.47528   0.00000  Uiso   1.00
N45    N     0.96927   0.14976   0.19290   0.00000  Uiso   1.00
N46    N     0.54523   0.74052   0.74284   0.00000  Uiso   1.00
C47    C     0.68704   0.79919   0.17014   0.00000  Uiso   1.00
C48    C     0.73861   0.81857   0.26712   0.00000  Uiso   1.00
C49    C     0.72920   0.94763   0.33521   0.00000  Uiso   1.00
C50    C     0.78253   0.94282   0.41936   0.00000  Uiso   1.00
C51    C     0.85344   0.99261   0.56757   0.00000  Uiso   1.00
C52    C     0.77880   0.76433   0.06934   0.00000  Uiso   1.00
C53    C     0.80318   0.84777   0.97113   0.00000  Uiso   1.00
C54    C     0.89034   0.79728   0.88879   0.00000  Uiso   1.00
C55    C     0.02360   0.76280   0.72991   0.00000  Uiso   1.00
C56    C     0.62007   0.65156   0.19339   0.00000  Uiso   1.00
C57    C     0.51098   0.64015   0.19946   0.00000  Uiso   1.00
C58    C     0.46449   0.49470   0.22154   0.00000  Uiso   1.00
C59    C     0.35130   0.28512   0.25528   0.00000  Uiso   1.00
C60    C     0.79846   0.56116   0.19851   0.00000  Uiso   1.00
C61    C     0.79913   0.68928   0.28252   0.00000  Uiso   1.00
C62    C     0.85248   0.68427   0.36660   0.00000  Uiso   1.00
C63    C     0.84315   0.81330   0.43480   0.00000  Uiso   1.00
C64    C     0.83932   0.63505   0.08475   0.00000  Uiso   1.00
C65    C     0.92646   0.58442   0.00253   0.00000  Uiso   1.00
C66    C     0.95097   0.66776   0.90423   0.00000  Uiso   1.00
C67    C     0.68058   0.52226   0.20881   0.00000  Uiso   1.00
C68    C     0.63426   0.37680   0.23087   0.00000  Uiso   1.00
C69    C     0.52512   0.36518   0.23698   0.00000  Uiso   1.00
H70    H     0.63992   0.89985   0.15813   0.00000  Uiso   1.00
H71    H     0.68237   0.04766   0.32324   0.00000  Uiso   1.00
H72    H     0.75633   0.94781   0.95923   0.00000  Uiso   1.00
H73    H     0.46417   0.74023   0.18753   0.00000  Uiso   1.00
H74    H     0.75615   0.15455   0.51308   0.00000  Uiso   1.00
H75    H     0.91207   0.94397   0.74551   0.00000  Uiso   1.00
H76    H     0.29601   0.50624   0.22693   0.00000  Uiso   1.00
H77    H     0.84558   0.46050   0.21051   0.00000  Uiso   1.00
H78    H     0.89931   0.58421   0.37851   0.00000  Uiso   1.00
H79    H     0.97327   0.48436   0.01448   0.00000  Uiso   1.00
H80    H     0.68112   0.27678   0.24279   0.00000  Uiso   1.00
H81    H     0.93223   0.77840   0.55793   0.00000  Uiso   1.00
H82    H     0.08815   0.56782   0.79035   0.00000  Uiso   1.00
H83    H     0.47209   0.13009   0.27178   0.00000  Uiso   1.00
O84    O     0.87585   0.05580   0.64505   0.00000  Uiso   1.00
O85    O     0.08040   0.77951   0.63802   0.00000  Uiso   1.00
O86    O     0.27214   0.20523   0.26965   0.00000  Uiso   1.00
N87    N     0.79020   0.04903   0.50059   0.00000  Uiso   1.00
N88    N     0.93599   0.85217   0.78297   0.00000  Uiso   1.00
N89    N     0.36002   0.44292   0.23303   0.00000  Uiso   1.00
N90    N     0.88494   0.84663   0.52472   0.00000  Uiso   1.00
N91    N     0.03073   0.64976   0.80710   0.00000  Uiso   1.00
N92    N     0.45477   0.24052   0.25716   0.00000  Uiso   1.00
