data_job_02210
_audit_creation_date              2018-12-19
_audit_creation_method            'Materials Studio'
_symmetry_space_group_name_H-M    'P1'
_symmetry_Int_Tables_number       1
_symmetry_cell_setting            triclinic
loop_
_symmetry_equiv_pos_as_xyz
  x,y,z
_cell_length_a                    19.0997
_cell_length_b                    13.7499
_cell_length_c                    9.6709
_cell_angle_alpha                 90.0000
_cell_angle_beta                  91.2507
_cell_angle_gamma                 90.0000
loop_
_atom_site_label
_atom_site_type_symbol
_atom_site_fract_x
_atom_site_fract_y
_atom_site_fract_z
_atom_site_U_iso_or_equiv
_atom_site_adp_type
_atom_site_occupancy
C1     C     0.23117   0.66737   0.49494   0.00000  Uiso   1.00
C2     C     0.16414   0.67628   0.57682   0.00000  Uiso   1.00
C3     C     0.12274   0.75889   0.58578   0.00000  Uiso   1.00
C4     C     0.06350   0.75230   0.66591   0.00000  Uiso   1.00
C5     C     0.96201   0.77922   0.78255   0.00000  Uiso   1.00
C6     C     0.21974   0.58202   0.39633   0.00000  Uiso   1.00
C7     C     0.22511   0.58539   0.25352   0.00000  Uiso   1.00
C8     C     0.21268   0.49945   0.18172   0.00000  Uiso   1.00
C9     C     0.19756   0.38002   0.01814   0.00000  Uiso   1.00
C10    C     0.28797   0.63512   0.59830   0.00000  Uiso   1.00
C11    C     0.35071   0.68311   0.62529   0.00000  Uiso   1.00
C12    C     0.39573   0.64185   0.72351   0.00000  Uiso   1.00
C13    C     0.48655   0.60486   0.87352   0.00000  Uiso   1.00
C14    C     0.19956   0.50876   0.62135   0.00000  Uiso   1.00
C15    C     0.14697   0.59012   0.64548   0.00000  Uiso   1.00
C16    C     0.08777   0.58341   0.72563   0.00000  Uiso   1.00
C17    C     0.04630   0.66600   0.73470   0.00000  Uiso   1.00
C18    C     0.20257   0.49587   0.46498   0.00000  Uiso   1.00
C19    C     0.19014   0.40990   0.39337   0.00000  Uiso   1.00
C20    C     0.19548   0.41314   0.25050   0.00000  Uiso   1.00
C21    C     0.27080   0.54896   0.66696   0.00000  Uiso   1.00
C22    C     0.31574   0.50762   0.76515   0.00000  Uiso   1.00
C23    C     0.37853   0.55554   0.79229   0.00000  Uiso   1.00
H24    H     0.24454   0.73444   0.44148   0.00000  Uiso   1.00
H25    H     0.13605   0.82555   0.53261   0.00000  Uiso   1.00
H26    H     0.23840   0.65207   0.20042   0.00000  Uiso   1.00
H27    H     0.36398   0.74978   0.57213   0.00000  Uiso   1.00
H28    H     0.00818   0.88855   0.66389   0.00000  Uiso   1.00
H29    H     0.22402   0.52275   0.96344   0.00000  Uiso   1.00
H30    H     0.48883   0.72879   0.74727   0.00000  Uiso   1.00
H31    H     0.18620   0.44168   0.67481   0.00000  Uiso   1.00
H32    H     0.07450   0.51672   0.77875   0.00000  Uiso   1.00
H33    H     0.17686   0.34324   0.44654   0.00000  Uiso   1.00
H34    H     0.30244   0.44095   0.81826   0.00000  Uiso   1.00
H35    H     0.95822   0.63790   0.86366   0.00000  Uiso   1.00
H36    H     0.17407   0.27210   0.16320   0.00000  Uiso   1.00
H37    H     0.43888   0.47813   0.94704   0.00000  Uiso   1.00
O38    O     0.91076   0.81786   0.82790   0.00000  Uiso   1.00
O39    O     0.19395   0.33795   0.90894   0.00000  Uiso   1.00
O40    O     0.54138   0.60826   0.93731   0.00000  Uiso   1.00
N41    N     0.01176   0.81927   0.69667   0.00000  Uiso   1.00
N42    N     0.21355   0.47727   0.04178   0.00000  Uiso   1.00
N43    N     0.46113   0.66988   0.77457   0.00000  Uiso   1.00
N44    N     0.98488   0.68439   0.80416   0.00000  Uiso   1.00
N45    N     0.18667   0.34240   0.14927   0.00000  Uiso   1.00
N46    N     0.43425   0.53501   0.88206   0.00000  Uiso   1.00
C47    C     0.76883   0.16737   0.00506   0.00000  Uiso   1.00
C48    C     0.83586   0.17628   0.92318   0.00000  Uiso   1.00
C49    C     0.87726   0.25889   0.91422   0.00000  Uiso   1.00
C50    C     0.93650   0.25230   0.83409   0.00000  Uiso   1.00
C51    C     0.03799   0.27922   0.71745   0.00000  Uiso   1.00
C52    C     0.78026   0.08202   0.10367   0.00000  Uiso   1.00
C53    C     0.77489   0.08539   0.24648   0.00000  Uiso   1.00
C54    C     0.78732   0.99945   0.31828   0.00000  Uiso   1.00
C55    C     0.80244   0.88002   0.48186   0.00000  Uiso   1.00
C56    C     0.71203   0.13512   0.90170   0.00000  Uiso   1.00
C57    C     0.64929   0.18311   0.87471   0.00000  Uiso   1.00
C58    C     0.60427   0.14185   0.77649   0.00000  Uiso   1.00
C59    C     0.51345   0.10486   0.62648   0.00000  Uiso   1.00
C60    C     0.80044   0.00876   0.87865   0.00000  Uiso   1.00
C61    C     0.85303   0.09012   0.85452   0.00000  Uiso   1.00
C62    C     0.91223   0.08341   0.77437   0.00000  Uiso   1.00
C63    C     0.95370   0.16600   0.76530   0.00000  Uiso   1.00
C64    C     0.79743   0.99587   0.03502   0.00000  Uiso   1.00
C65    C     0.80986   0.90990   0.10663   0.00000  Uiso   1.00
C66    C     0.80452   0.91314   0.24950   0.00000  Uiso   1.00
C67    C     0.72920   0.04896   0.83304   0.00000  Uiso   1.00
C68    C     0.68426   0.00762   0.73485   0.00000  Uiso   1.00
C69    C     0.62147   0.05554   0.70771   0.00000  Uiso   1.00
H70    H     0.75546   0.23444   0.05852   0.00000  Uiso   1.00
H71    H     0.86395   0.32555   0.96739   0.00000  Uiso   1.00
H72    H     0.76160   0.15207   0.29958   0.00000  Uiso   1.00
H73    H     0.63602   0.24978   0.92787   0.00000  Uiso   1.00
H74    H     0.99182   0.38855   0.83611   0.00000  Uiso   1.00
H75    H     0.77598   0.02275   0.53656   0.00000  Uiso   1.00
H76    H     0.51117   0.22879   0.75273   0.00000  Uiso   1.00
H77    H     0.81380   0.94168   0.82519   0.00000  Uiso   1.00
H78    H     0.92550   0.01672   0.72125   0.00000  Uiso   1.00
H79    H     0.82314   0.84324   0.05346   0.00000  Uiso   1.00
H80    H     0.69756   0.94095   0.68174   0.00000  Uiso   1.00
H81    H     0.04178   0.13790   0.63634   0.00000  Uiso   1.00
H82    H     0.82593   0.77210   0.33680   0.00000  Uiso   1.00
H83    H     0.56112   0.97813   0.55296   0.00000  Uiso   1.00
O84    O     0.08924   0.31786   0.67210   0.00000  Uiso   1.00
O85    O     0.80605   0.83795   0.59106   0.00000  Uiso   1.00
O86    O     0.45862   0.10826   0.56269   0.00000  Uiso   1.00
N87    N     0.98824   0.31927   0.80333   0.00000  Uiso   1.00
N88    N     0.78645   0.97727   0.45822   0.00000  Uiso   1.00
N89    N     0.53887   0.16988   0.72543   0.00000  Uiso   1.00
N90    N     0.01512   0.18439   0.69584   0.00000  Uiso   1.00
N91    N     0.81333   0.84240   0.35073   0.00000  Uiso   1.00
N92    N     0.56575   0.03501   0.61794   0.00000  Uiso   1.00
C93    C     0.76883   0.33263   0.50506   0.00000  Uiso   1.00
C94    C     0.83586   0.32372   0.42318   0.00000  Uiso   1.00
C95    C     0.87726   0.24111   0.41422   0.00000  Uiso   1.00
C96    C     0.93650   0.24770   0.33409   0.00000  Uiso   1.00
C97    C     0.03799   0.22078   0.21745   0.00000  Uiso   1.00
C98    C     0.78026   0.41798   0.60367   0.00000  Uiso   1.00
C99    C     0.77489   0.41461   0.74648   0.00000  Uiso   1.00
C100   C     0.78732   0.50055   0.81828   0.00000  Uiso   1.00
C101   C     0.80244   0.61998   0.98186   0.00000  Uiso   1.00
C102   C     0.71203   0.36488   0.40170   0.00000  Uiso   1.00
C103   C     0.64929   0.31689   0.37471   0.00000  Uiso   1.00
C104   C     0.60427   0.35815   0.27649   0.00000  Uiso   1.00
C105   C     0.51345   0.39514   0.12648   0.00000  Uiso   1.00
C106   C     0.80044   0.49124   0.37865   0.00000  Uiso   1.00
C107   C     0.85303   0.40988   0.35452   0.00000  Uiso   1.00
C108   C     0.91223   0.41659   0.27437   0.00000  Uiso   1.00
C109   C     0.95370   0.33400   0.26530   0.00000  Uiso   1.00
C110   C     0.79743   0.50413   0.53502   0.00000  Uiso   1.00
C111   C     0.80986   0.59010   0.60663   0.00000  Uiso   1.00
C112   C     0.80452   0.58686   0.74950   0.00000  Uiso   1.00
C113   C     0.72920   0.45104   0.33304   0.00000  Uiso   1.00
C114   C     0.68426   0.49238   0.23485   0.00000  Uiso   1.00
C115   C     0.62147   0.44446   0.20771   0.00000  Uiso   1.00
H116   H     0.75546   0.26556   0.55852   0.00000  Uiso   1.00
H117   H     0.86395   0.17445   0.46739   0.00000  Uiso   1.00
H118   H     0.76160   0.34793   0.79958   0.00000  Uiso   1.00
H119   H     0.63602   0.25022   0.42787   0.00000  Uiso   1.00
H120   H     0.99182   0.11145   0.33611   0.00000  Uiso   1.00
H121   H     0.77598   0.47725   0.03656   0.00000  Uiso   1.00
H122   H     0.51117   0.27121   0.25273   0.00000  Uiso   1.00
H123   H     0.81380   0.55832   0.32519   0.00000  Uiso   1.00
H124   H     0.92550   0.48328   0.22125   0.00000  Uiso   1.00
H125   H     0.82314   0.65676   0.55346   0.00000  Uiso   1.00
H126   H     0.69756   0.55905   0.18174   0.00000  Uiso   1.00
H127   H     0.04178   0.36210   0.13634   0.00000  Uiso   1.00
H128   H     0.82593   0.72790   0.83680   0.00000  Uiso   1.00
H129   H     0.56112   0.52187   0.05296   0.00000  Uiso   1.00
O130   O     0.08924   0.18214   0.17210   0.00000  Uiso   1.00
O131   O     0.80605   0.66205   0.09106   0.00000  Uiso   1.00
O132   O     0.45862   0.39174   0.06269   0.00000  Uiso   1.00
N133   N     0.98824   0.18073   0.30333   0.00000  Uiso   1.00
N134   N     0.78645   0.52273   0.95822   0.00000  Uiso   1.00
N135   N     0.53887   0.33012   0.22543   0.00000  Uiso   1.00
N136   N     0.01512   0.31561   0.19584   0.00000  Uiso   1.00
N137   N     0.81333   0.65760   0.85073   0.00000  Uiso   1.00
N138   N     0.56575   0.46499   0.11794   0.00000  Uiso   1.00
C139   C     0.23117   0.83263   0.99494   0.00000  Uiso   1.00
C140   C     0.16414   0.82372   0.07682   0.00000  Uiso   1.00
C141   C     0.12274   0.74111   0.08578   0.00000  Uiso   1.00
C142   C     0.06350   0.74770   0.16591   0.00000  Uiso   1.00
C143   C     0.96201   0.72078   0.28255   0.00000  Uiso   1.00
C144   C     0.21974   0.91798   0.89633   0.00000  Uiso   1.00
C145   C     0.22511   0.91461   0.75352   0.00000  Uiso   1.00
C146   C     0.21268   0.00055   0.68172   0.00000  Uiso   1.00
C147   C     0.19756   0.11998   0.51814   0.00000  Uiso   1.00
C148   C     0.28797   0.86488   0.09830   0.00000  Uiso   1.00
C149   C     0.35071   0.81689   0.12529   0.00000  Uiso   1.00
C150   C     0.39573   0.85815   0.22351   0.00000  Uiso   1.00
C151   C     0.48655   0.89514   0.37352   0.00000  Uiso   1.00
C152   C     0.19956   0.99124   0.12135   0.00000  Uiso   1.00
C153   C     0.14697   0.90988   0.14548   0.00000  Uiso   1.00
C154   C     0.08777   0.91659   0.22563   0.00000  Uiso   1.00
C155   C     0.04630   0.83400   0.23470   0.00000  Uiso   1.00
C156   C     0.20257   0.00413   0.96498   0.00000  Uiso   1.00
C157   C     0.19014   0.09010   0.89337   0.00000  Uiso   1.00
C158   C     0.19548   0.08686   0.75050   0.00000  Uiso   1.00
C159   C     0.27080   0.95104   0.16696   0.00000  Uiso   1.00
C160   C     0.31574   0.99238   0.26515   0.00000  Uiso   1.00
C161   C     0.37853   0.94446   0.29229   0.00000  Uiso   1.00
H162   H     0.24454   0.76556   0.94148   0.00000  Uiso   1.00
H163   H     0.13605   0.67445   0.03261   0.00000  Uiso   1.00
H164   H     0.23840   0.84793   0.70042   0.00000  Uiso   1.00
H165   H     0.36398   0.75022   0.07213   0.00000  Uiso   1.00
H166   H     0.00818   0.61145   0.16389   0.00000  Uiso   1.00
H167   H     0.22402   0.97725   0.46344   0.00000  Uiso   1.00
H168   H     0.48883   0.77121   0.24727   0.00000  Uiso   1.00
H169   H     0.18620   0.05832   0.17481   0.00000  Uiso   1.00
H170   H     0.07450   0.98328   0.27875   0.00000  Uiso   1.00
H171   H     0.17686   0.15676   0.94654   0.00000  Uiso   1.00
H172   H     0.30244   0.05905   0.31826   0.00000  Uiso   1.00
H173   H     0.95822   0.86210   0.36366   0.00000  Uiso   1.00
H174   H     0.17407   0.22790   0.66320   0.00000  Uiso   1.00
H175   H     0.43888   0.02187   0.44704   0.00000  Uiso   1.00
O176   O     0.91076   0.68214   0.32790   0.00000  Uiso   1.00
O177   O     0.19395   0.16205   0.40894   0.00000  Uiso   1.00
O178   O     0.54138   0.89174   0.43731   0.00000  Uiso   1.00
N179   N     0.01176   0.68073   0.19667   0.00000  Uiso   1.00
N180   N     0.21355   0.02273   0.54178   0.00000  Uiso   1.00
N181   N     0.46113   0.83012   0.27457   0.00000  Uiso   1.00
N182   N     0.98488   0.81561   0.30416   0.00000  Uiso   1.00
N183   N     0.18667   0.15760   0.64927   0.00000  Uiso   1.00
N184   N     0.43425   0.96499   0.38206   0.00000  Uiso   1.00
