data_job_02144
_audit_creation_date              2018-12-19
_audit_creation_method            'Materials Studio'
_symmetry_space_group_name_H-M    'P1'
_symmetry_Int_Tables_number       1
_symmetry_cell_setting            triclinic
loop_
_symmetry_equiv_pos_as_xyz
  x,y,z
_cell_length_a                    15.9321
_cell_length_b                    21.9709
_cell_length_c                    19.1807
_cell_angle_alpha                 90.0000
_cell_angle_beta                  90.0000
_cell_angle_gamma                 90.0000
loop_
_atom_site_label
_atom_site_type_symbol
_atom_site_fract_x
_atom_site_fract_y
_atom_site_fract_z
_atom_site_U_iso_or_equiv
_atom_site_adp_type
_atom_site_occupancy
C1     C     0.57440   0.84230   0.96703   0.00000  Uiso   1.00
C2     C     0.52089   0.88121   0.91846   0.00000  Uiso   1.00
C3     C     0.44289   0.90569   0.93432   0.00000  Uiso   1.00
C4     C     0.40402   0.93998   0.88280   0.00000  Uiso   1.00
C5     C     0.31515   0.99893   0.81726   0.00000  Uiso   1.00
C6     C     0.59115   0.78308   0.92799   0.00000  Uiso   1.00
C7     C     0.57223   0.72504   0.95185   0.00000  Uiso   1.00
C8     C     0.59252   0.67672   0.90835   0.00000  Uiso   1.00
C9     C     0.61279   0.58331   0.85763   0.00000  Uiso   1.00
C10    C     0.65890   0.87452   0.97262   0.00000  Uiso   1.00
C11    C     0.69698   0.89337   0.03401   0.00000  Uiso   1.00
C12    C     0.77432   0.92203   0.02809   0.00000  Uiso   1.00
C13    C     0.89979   0.97061   0.04666   0.00000  Uiso   1.00
C14    C     0.64407   0.85968   0.84735   0.00000  Uiso   1.00
C15    C     0.55873   0.89065   0.85345   0.00000  Uiso   1.00
C16    C     0.51997   0.92491   0.80190   0.00000  Uiso   1.00
C17    C     0.44192   0.94944   0.81767   0.00000  Uiso   1.00
C18    C     0.62898   0.79251   0.86298   0.00000  Uiso   1.00
C19    C     0.64931   0.74426   0.81944   0.00000  Uiso   1.00
C20    C     0.63043   0.68617   0.84323   0.00000  Uiso   1.00
C21    C     0.69675   0.88396   0.90761   0.00000  Uiso   1.00
C22    C     0.77405   0.91259   0.90159   0.00000  Uiso   1.00
C23    C     0.81223   0.93148   0.96296   0.00000  Uiso   1.00
H24    H     0.54494   0.83495   0.01764   0.00000  Uiso   1.00
H25    H     0.41362   0.89837   0.98463   0.00000  Uiso   1.00
H26    H     0.54296   0.71775   0.00217   0.00000  Uiso   1.00
H27    H     0.66767   0.88606   0.08431   0.00000  Uiso   1.00
H28    H     0.28470   0.97283   0.91935   0.00000  Uiso   1.00
H29    H     0.55744   0.59198   0.95634   0.00000  Uiso   1.00
H30    H     0.82044   0.94688   0.12956   0.00000  Uiso   1.00
H31    H     0.67353   0.86702   0.79673   0.00000  Uiso   1.00
H32    H     0.54926   0.93220   0.75160   0.00000  Uiso   1.00
H33    H     0.67860   0.75158   0.76913   0.00000  Uiso   1.00
H34    H     0.80331   0.91989   0.85128   0.00000  Uiso   1.00
H35    H     0.39479   0.00028   0.73021   0.00000  Uiso   1.00
H36    H     0.66753   0.61943   0.76720   0.00000  Uiso   1.00
H37    H     0.93053   0.97434   0.94042   0.00000  Uiso   1.00
O38    O     0.25567   0.02884   0.79907   0.00000  Uiso   1.00
O39    O     0.61350   0.52918   0.84760   0.00000  Uiso   1.00
O40    O     0.95854   0.99480   0.07486   0.00000  Uiso   1.00
N41    N     0.32768   0.97035   0.88104   0.00000  Uiso   1.00
N42    N     0.58265   0.61428   0.91561   0.00000  Uiso   1.00
N43    N     0.82854   0.94607   0.07756   0.00000  Uiso   1.00
N44    N     0.38691   0.98513   0.77926   0.00000  Uiso   1.00
N45    N     0.64189   0.62906   0.81384   0.00000  Uiso   1.00
N46    N     0.88778   0.96085   0.97579   0.00000  Uiso   1.00
C47    C     0.92560   0.15770   0.46703   0.00000  Uiso   1.00
C48    C     0.97911   0.11879   0.41846   0.00000  Uiso   1.00
C49    C     0.05711   0.09431   0.43432   0.00000  Uiso   1.00
C50    C     0.09598   0.06002   0.38280   0.00000  Uiso   1.00
C51    C     0.18485   0.00107   0.31726   0.00000  Uiso   1.00
C52    C     0.90885   0.21692   0.42799   0.00000  Uiso   1.00
C53    C     0.92777   0.27496   0.45185   0.00000  Uiso   1.00
C54    C     0.90748   0.32328   0.40835   0.00000  Uiso   1.00
C55    C     0.88721   0.41669   0.35763   0.00000  Uiso   1.00
C56    C     0.84110   0.12548   0.47262   0.00000  Uiso   1.00
C57    C     0.80302   0.10663   0.53401   0.00000  Uiso   1.00
C58    C     0.72568   0.07797   0.52809   0.00000  Uiso   1.00
C59    C     0.60021   0.02939   0.54666   0.00000  Uiso   1.00
C60    C     0.85593   0.14032   0.34735   0.00000  Uiso   1.00
C61    C     0.94127   0.10935   0.35345   0.00000  Uiso   1.00
C62    C     0.98003   0.07509   0.30190   0.00000  Uiso   1.00
C63    C     0.05808   0.05056   0.31767   0.00000  Uiso   1.00
C64    C     0.87102   0.20749   0.36298   0.00000  Uiso   1.00
C65    C     0.85069   0.25574   0.31944   0.00000  Uiso   1.00
C66    C     0.86957   0.31383   0.34323   0.00000  Uiso   1.00
C67    C     0.80325   0.11604   0.40761   0.00000  Uiso   1.00
C68    C     0.72595   0.08741   0.40159   0.00000  Uiso   1.00
C69    C     0.68777   0.06852   0.46296   0.00000  Uiso   1.00
H70    H     0.95506   0.16505   0.51764   0.00000  Uiso   1.00
H71    H     0.08638   0.10163   0.48463   0.00000  Uiso   1.00
H72    H     0.95704   0.28225   0.50217   0.00000  Uiso   1.00
H73    H     0.83233   0.11394   0.58431   0.00000  Uiso   1.00
H74    H     0.21530   0.02717   0.41935   0.00000  Uiso   1.00
H75    H     0.94256   0.40802   0.45634   0.00000  Uiso   1.00
H76    H     0.67956   0.05312   0.62956   0.00000  Uiso   1.00
H77    H     0.82647   0.13298   0.29673   0.00000  Uiso   1.00
H78    H     0.95074   0.06780   0.25160   0.00000  Uiso   1.00
H79    H     0.82140   0.24842   0.26913   0.00000  Uiso   1.00
H80    H     0.69669   0.08011   0.35128   0.00000  Uiso   1.00
H81    H     0.10521   0.99972   0.23021   0.00000  Uiso   1.00
H82    H     0.83247   0.38057   0.26720   0.00000  Uiso   1.00
H83    H     0.56947   0.02566   0.44042   0.00000  Uiso   1.00
O84    O     0.24433   0.97116   0.29907   0.00000  Uiso   1.00
O85    O     0.88650   0.47082   0.34760   0.00000  Uiso   1.00
O86    O     0.54146   0.00520   0.57486   0.00000  Uiso   1.00
N87    N     0.17232   0.02965   0.38104   0.00000  Uiso   1.00
N88    N     0.91735   0.38572   0.41561   0.00000  Uiso   1.00
N89    N     0.67146   0.05393   0.57756   0.00000  Uiso   1.00
N90    N     0.11309   0.01487   0.27926   0.00000  Uiso   1.00
N91    N     0.85811   0.37094   0.31384   0.00000  Uiso   1.00
N92    N     0.61222   0.03915   0.47579   0.00000  Uiso   1.00
C93    C     0.42560   0.34230   0.53297   0.00000  Uiso   1.00
C94    C     0.47911   0.38121   0.58154   0.00000  Uiso   1.00
C95    C     0.55711   0.40569   0.56568   0.00000  Uiso   1.00
C96    C     0.59598   0.43998   0.61720   0.00000  Uiso   1.00
C97    C     0.68485   0.49893   0.68274   0.00000  Uiso   1.00
C98    C     0.40885   0.28308   0.57201   0.00000  Uiso   1.00
C99    C     0.42777   0.22504   0.54815   0.00000  Uiso   1.00
C100   C     0.40748   0.17672   0.59165   0.00000  Uiso   1.00
C101   C     0.38721   0.08331   0.64237   0.00000  Uiso   1.00
C102   C     0.34110   0.37452   0.52738   0.00000  Uiso   1.00
C103   C     0.30302   0.39337   0.46599   0.00000  Uiso   1.00
C104   C     0.22568   0.42203   0.47191   0.00000  Uiso   1.00
C105   C     0.10021   0.47061   0.45334   0.00000  Uiso   1.00
C106   C     0.35593   0.35968   0.65265   0.00000  Uiso   1.00
C107   C     0.44127   0.39065   0.64655   0.00000  Uiso   1.00
C108   C     0.48003   0.42491   0.69810   0.00000  Uiso   1.00
C109   C     0.55808   0.44944   0.68233   0.00000  Uiso   1.00
C110   C     0.37102   0.29251   0.63702   0.00000  Uiso   1.00
C111   C     0.35069   0.24426   0.68056   0.00000  Uiso   1.00
C112   C     0.36957   0.18617   0.65677   0.00000  Uiso   1.00
C113   C     0.30325   0.38396   0.59239   0.00000  Uiso   1.00
C114   C     0.22595   0.41259   0.59841   0.00000  Uiso   1.00
C115   C     0.18777   0.43148   0.53704   0.00000  Uiso   1.00
H116   H     0.45506   0.33495   0.48236   0.00000  Uiso   1.00
H117   H     0.58638   0.39837   0.51537   0.00000  Uiso   1.00
H118   H     0.45704   0.21775   0.49783   0.00000  Uiso   1.00
H119   H     0.33233   0.38606   0.41569   0.00000  Uiso   1.00
H120   H     0.71530   0.47283   0.58065   0.00000  Uiso   1.00
H121   H     0.44256   0.09198   0.54366   0.00000  Uiso   1.00
H122   H     0.17956   0.44688   0.37044   0.00000  Uiso   1.00
H123   H     0.32647   0.36702   0.70327   0.00000  Uiso   1.00
H124   H     0.45074   0.43220   0.74840   0.00000  Uiso   1.00
H125   H     0.32140   0.25158   0.73087   0.00000  Uiso   1.00
H126   H     0.19669   0.41989   0.64872   0.00000  Uiso   1.00
H127   H     0.60521   0.50028   0.76979   0.00000  Uiso   1.00
H128   H     0.33247   0.11943   0.73280   0.00000  Uiso   1.00
H129   H     0.06947   0.47434   0.55958   0.00000  Uiso   1.00
O130   O     0.74433   0.52884   0.70093   0.00000  Uiso   1.00
O131   O     0.38650   0.02918   0.65240   0.00000  Uiso   1.00
O132   O     0.04146   0.49480   0.42514   0.00000  Uiso   1.00
N133   N     0.67232   0.47035   0.61896   0.00000  Uiso   1.00
N134   N     0.41735   0.11428   0.58439   0.00000  Uiso   1.00
N135   N     0.17146   0.44607   0.42244   0.00000  Uiso   1.00
N136   N     0.61309   0.48513   0.72074   0.00000  Uiso   1.00
N137   N     0.35811   0.12906   0.68616   0.00000  Uiso   1.00
N138   N     0.11222   0.46085   0.52421   0.00000  Uiso   1.00
C139   C     0.07440   0.65770   0.03297   0.00000  Uiso   1.00
C140   C     0.02089   0.61879   0.08154   0.00000  Uiso   1.00
C141   C     0.94289   0.59431   0.06568   0.00000  Uiso   1.00
C142   C     0.90402   0.56002   0.11720   0.00000  Uiso   1.00
C143   C     0.81515   0.50107   0.18274   0.00000  Uiso   1.00
C144   C     0.09115   0.71692   0.07201   0.00000  Uiso   1.00
C145   C     0.07223   0.77496   0.04815   0.00000  Uiso   1.00
C146   C     0.09252   0.82328   0.09165   0.00000  Uiso   1.00
C147   C     0.11279   0.91669   0.14237   0.00000  Uiso   1.00
C148   C     0.15890   0.62548   0.02738   0.00000  Uiso   1.00
C149   C     0.19698   0.60663   0.96599   0.00000  Uiso   1.00
C150   C     0.27432   0.57797   0.97191   0.00000  Uiso   1.00
C151   C     0.39979   0.52939   0.95334   0.00000  Uiso   1.00
C152   C     0.14407   0.64032   0.15265   0.00000  Uiso   1.00
C153   C     0.05873   0.60935   0.14655   0.00000  Uiso   1.00
C154   C     0.01997   0.57509   0.19810   0.00000  Uiso   1.00
C155   C     0.94192   0.55056   0.18233   0.00000  Uiso   1.00
C156   C     0.12898   0.70749   0.13702   0.00000  Uiso   1.00
C157   C     0.14931   0.75574   0.18056   0.00000  Uiso   1.00
C158   C     0.13043   0.81383   0.15677   0.00000  Uiso   1.00
C159   C     0.19675   0.61604   0.09239   0.00000  Uiso   1.00
C160   C     0.27405   0.58741   0.09841   0.00000  Uiso   1.00
C161   C     0.31223   0.56852   0.03704   0.00000  Uiso   1.00
H162   H     0.04494   0.66505   0.98236   0.00000  Uiso   1.00
H163   H     0.91362   0.60163   0.01537   0.00000  Uiso   1.00
H164   H     0.04296   0.78225   0.99783   0.00000  Uiso   1.00
H165   H     0.16767   0.61394   0.91569   0.00000  Uiso   1.00
H166   H     0.78470   0.52717   0.08065   0.00000  Uiso   1.00
H167   H     0.05744   0.90802   0.04366   0.00000  Uiso   1.00
H168   H     0.32044   0.55312   0.87044   0.00000  Uiso   1.00
H169   H     0.17353   0.63298   0.20327   0.00000  Uiso   1.00
H170   H     0.04926   0.56780   0.24840   0.00000  Uiso   1.00
H171   H     0.17860   0.74842   0.23087   0.00000  Uiso   1.00
H172   H     0.30331   0.58011   0.14872   0.00000  Uiso   1.00
H173   H     0.89479   0.49972   0.26979   0.00000  Uiso   1.00
H174   H     0.16753   0.88057   0.23280   0.00000  Uiso   1.00
H175   H     0.43053   0.52566   0.05958   0.00000  Uiso   1.00
O176   O     0.75567   0.47116   0.20093   0.00000  Uiso   1.00
O177   O     0.11350   0.97082   0.15240   0.00000  Uiso   1.00
O178   O     0.45854   0.50520   0.92514   0.00000  Uiso   1.00
N179   N     0.82768   0.52965   0.11896   0.00000  Uiso   1.00
N180   N     0.08265   0.88572   0.08439   0.00000  Uiso   1.00
N181   N     0.32854   0.55393   0.92244   0.00000  Uiso   1.00
N182   N     0.88691   0.51487   0.22074   0.00000  Uiso   1.00
N183   N     0.14189   0.87094   0.18616   0.00000  Uiso   1.00
N184   N     0.38778   0.53915   0.02421   0.00000  Uiso   1.00
C185   C     0.42560   0.15770   0.03297   0.00000  Uiso   1.00
C186   C     0.47911   0.11879   0.08154   0.00000  Uiso   1.00
C187   C     0.55711   0.09431   0.06568   0.00000  Uiso   1.00
C188   C     0.59598   0.06002   0.11720   0.00000  Uiso   1.00
C189   C     0.68485   0.00107   0.18274   0.00000  Uiso   1.00
C190   C     0.40885   0.21692   0.07201   0.00000  Uiso   1.00
C191   C     0.42777   0.27496   0.04815   0.00000  Uiso   1.00
C192   C     0.40748   0.32328   0.09165   0.00000  Uiso   1.00
C193   C     0.38721   0.41669   0.14237   0.00000  Uiso   1.00
C194   C     0.34110   0.12548   0.02738   0.00000  Uiso   1.00
C195   C     0.30302   0.10663   0.96599   0.00000  Uiso   1.00
C196   C     0.22568   0.07797   0.97191   0.00000  Uiso   1.00
C197   C     0.10021   0.02939   0.95334   0.00000  Uiso   1.00
C198   C     0.35593   0.14032   0.15265   0.00000  Uiso   1.00
C199   C     0.44127   0.10935   0.14655   0.00000  Uiso   1.00
C200   C     0.48003   0.07509   0.19810   0.00000  Uiso   1.00
C201   C     0.55808   0.05056   0.18233   0.00000  Uiso   1.00
C202   C     0.37102   0.20749   0.13702   0.00000  Uiso   1.00
C203   C     0.35069   0.25574   0.18056   0.00000  Uiso   1.00
C204   C     0.36957   0.31383   0.15677   0.00000  Uiso   1.00
C205   C     0.30325   0.11604   0.09239   0.00000  Uiso   1.00
C206   C     0.22595   0.08741   0.09841   0.00000  Uiso   1.00
C207   C     0.18777   0.06852   0.03704   0.00000  Uiso   1.00
H208   H     0.45506   0.16505   0.98236   0.00000  Uiso   1.00
H209   H     0.58638   0.10163   0.01537   0.00000  Uiso   1.00
H210   H     0.45704   0.28225   0.99783   0.00000  Uiso   1.00
H211   H     0.33233   0.11394   0.91569   0.00000  Uiso   1.00
H212   H     0.71530   0.02717   0.08065   0.00000  Uiso   1.00
H213   H     0.44256   0.40802   0.04366   0.00000  Uiso   1.00
H214   H     0.17956   0.05312   0.87044   0.00000  Uiso   1.00
H215   H     0.32647   0.13298   0.20327   0.00000  Uiso   1.00
H216   H     0.45074   0.06780   0.24840   0.00000  Uiso   1.00
H217   H     0.32140   0.24842   0.23087   0.00000  Uiso   1.00
H218   H     0.19669   0.08011   0.14872   0.00000  Uiso   1.00
H219   H     0.60521   0.99972   0.26979   0.00000  Uiso   1.00
H220   H     0.33247   0.38057   0.23280   0.00000  Uiso   1.00
H221   H     0.06947   0.02566   0.05958   0.00000  Uiso   1.00
O222   O     0.74433   0.97116   0.20093   0.00000  Uiso   1.00
O223   O     0.38650   0.47082   0.15240   0.00000  Uiso   1.00
O224   O     0.04146   0.00520   0.92514   0.00000  Uiso   1.00
N225   N     0.67232   0.02965   0.11896   0.00000  Uiso   1.00
N226   N     0.41735   0.38572   0.08439   0.00000  Uiso   1.00
N227   N     0.17146   0.05393   0.92244   0.00000  Uiso   1.00
N228   N     0.61309   0.01487   0.22074   0.00000  Uiso   1.00
N229   N     0.35811   0.37094   0.18616   0.00000  Uiso   1.00
N230   N     0.11222   0.03915   0.02421   0.00000  Uiso   1.00
C231   C     0.07440   0.84230   0.53297   0.00000  Uiso   1.00
C232   C     0.02089   0.88121   0.58154   0.00000  Uiso   1.00
C233   C     0.94289   0.90569   0.56568   0.00000  Uiso   1.00
C234   C     0.90402   0.93998   0.61720   0.00000  Uiso   1.00
C235   C     0.81515   0.99893   0.68274   0.00000  Uiso   1.00
C236   C     0.09115   0.78308   0.57201   0.00000  Uiso   1.00
C237   C     0.07223   0.72504   0.54815   0.00000  Uiso   1.00
C238   C     0.09252   0.67672   0.59165   0.00000  Uiso   1.00
C239   C     0.11279   0.58331   0.64237   0.00000  Uiso   1.00
C240   C     0.15890   0.87452   0.52738   0.00000  Uiso   1.00
C241   C     0.19698   0.89337   0.46599   0.00000  Uiso   1.00
C242   C     0.27432   0.92203   0.47191   0.00000  Uiso   1.00
C243   C     0.39979   0.97061   0.45334   0.00000  Uiso   1.00
C244   C     0.14407   0.85968   0.65265   0.00000  Uiso   1.00
C245   C     0.05873   0.89065   0.64655   0.00000  Uiso   1.00
C246   C     0.01997   0.92491   0.69810   0.00000  Uiso   1.00
C247   C     0.94192   0.94944   0.68233   0.00000  Uiso   1.00
C248   C     0.12898   0.79251   0.63702   0.00000  Uiso   1.00
C249   C     0.14931   0.74426   0.68056   0.00000  Uiso   1.00
C250   C     0.13043   0.68617   0.65677   0.00000  Uiso   1.00
C251   C     0.19675   0.88396   0.59239   0.00000  Uiso   1.00
C252   C     0.27405   0.91259   0.59841   0.00000  Uiso   1.00
C253   C     0.31223   0.93148   0.53704   0.00000  Uiso   1.00
H254   H     0.04494   0.83495   0.48236   0.00000  Uiso   1.00
H255   H     0.91362   0.89837   0.51537   0.00000  Uiso   1.00
H256   H     0.04296   0.71775   0.49783   0.00000  Uiso   1.00
H257   H     0.16767   0.88606   0.41569   0.00000  Uiso   1.00
H258   H     0.78470   0.97283   0.58065   0.00000  Uiso   1.00
H259   H     0.05744   0.59198   0.54366   0.00000  Uiso   1.00
H260   H     0.32044   0.94688   0.37044   0.00000  Uiso   1.00
H261   H     0.17353   0.86702   0.70327   0.00000  Uiso   1.00
H262   H     0.04926   0.93220   0.74840   0.00000  Uiso   1.00
H263   H     0.17860   0.75158   0.73087   0.00000  Uiso   1.00
H264   H     0.30331   0.91989   0.64872   0.00000  Uiso   1.00
H265   H     0.89479   0.00028   0.76979   0.00000  Uiso   1.00
H266   H     0.16753   0.61943   0.73280   0.00000  Uiso   1.00
H267   H     0.43053   0.97434   0.55958   0.00000  Uiso   1.00
O268   O     0.75567   0.02884   0.70093   0.00000  Uiso   1.00
O269   O     0.11350   0.52918   0.65240   0.00000  Uiso   1.00
O270   O     0.45854   0.99480   0.42514   0.00000  Uiso   1.00
N271   N     0.82768   0.97035   0.61896   0.00000  Uiso   1.00
N272   N     0.08265   0.61428   0.58439   0.00000  Uiso   1.00
N273   N     0.32854   0.94607   0.42244   0.00000  Uiso   1.00
N274   N     0.88691   0.98513   0.72074   0.00000  Uiso   1.00
N275   N     0.14189   0.62906   0.68616   0.00000  Uiso   1.00
N276   N     0.38778   0.96085   0.52421   0.00000  Uiso   1.00
C277   C     0.57440   0.65770   0.46703   0.00000  Uiso   1.00
C278   C     0.52089   0.61879   0.41846   0.00000  Uiso   1.00
C279   C     0.44289   0.59431   0.43432   0.00000  Uiso   1.00
C280   C     0.40402   0.56002   0.38280   0.00000  Uiso   1.00
C281   C     0.31515   0.50107   0.31726   0.00000  Uiso   1.00
C282   C     0.59115   0.71692   0.42799   0.00000  Uiso   1.00
C283   C     0.57223   0.77496   0.45185   0.00000  Uiso   1.00
C284   C     0.59252   0.82328   0.40835   0.00000  Uiso   1.00
C285   C     0.61279   0.91669   0.35763   0.00000  Uiso   1.00
C286   C     0.65890   0.62548   0.47262   0.00000  Uiso   1.00
C287   C     0.69698   0.60663   0.53401   0.00000  Uiso   1.00
C288   C     0.77432   0.57797   0.52809   0.00000  Uiso   1.00
C289   C     0.89979   0.52939   0.54666   0.00000  Uiso   1.00
C290   C     0.64407   0.64032   0.34735   0.00000  Uiso   1.00
C291   C     0.55873   0.60935   0.35345   0.00000  Uiso   1.00
C292   C     0.51997   0.57509   0.30190   0.00000  Uiso   1.00
C293   C     0.44192   0.55056   0.31767   0.00000  Uiso   1.00
C294   C     0.62898   0.70749   0.36298   0.00000  Uiso   1.00
C295   C     0.64931   0.75574   0.31944   0.00000  Uiso   1.00
C296   C     0.63043   0.81383   0.34323   0.00000  Uiso   1.00
C297   C     0.69675   0.61604   0.40761   0.00000  Uiso   1.00
C298   C     0.77405   0.58741   0.40159   0.00000  Uiso   1.00
C299   C     0.81223   0.56852   0.46296   0.00000  Uiso   1.00
H300   H     0.54494   0.66505   0.51764   0.00000  Uiso   1.00
H301   H     0.41362   0.60163   0.48463   0.00000  Uiso   1.00
H302   H     0.54296   0.78225   0.50217   0.00000  Uiso   1.00
H303   H     0.66767   0.61394   0.58431   0.00000  Uiso   1.00
H304   H     0.28470   0.52717   0.41935   0.00000  Uiso   1.00
H305   H     0.55744   0.90802   0.45634   0.00000  Uiso   1.00
H306   H     0.82044   0.55312   0.62956   0.00000  Uiso   1.00
H307   H     0.67353   0.63298   0.29673   0.00000  Uiso   1.00
H308   H     0.54926   0.56780   0.25160   0.00000  Uiso   1.00
H309   H     0.67860   0.74842   0.26913   0.00000  Uiso   1.00
H310   H     0.80331   0.58011   0.35128   0.00000  Uiso   1.00
H311   H     0.39479   0.49972   0.23021   0.00000  Uiso   1.00
H312   H     0.66753   0.88057   0.26720   0.00000  Uiso   1.00
H313   H     0.93053   0.52566   0.44042   0.00000  Uiso   1.00
O314   O     0.25567   0.47116   0.29907   0.00000  Uiso   1.00
O315   O     0.61350   0.97082   0.34760   0.00000  Uiso   1.00
O316   O     0.95854   0.50520   0.57486   0.00000  Uiso   1.00
N317   N     0.32768   0.52965   0.38104   0.00000  Uiso   1.00
N318   N     0.58265   0.88572   0.41561   0.00000  Uiso   1.00
N319   N     0.82854   0.55393   0.57756   0.00000  Uiso   1.00
N320   N     0.38691   0.51487   0.27926   0.00000  Uiso   1.00
N321   N     0.64189   0.87094   0.31384   0.00000  Uiso   1.00
N322   N     0.88778   0.53915   0.47579   0.00000  Uiso   1.00
C323   C     0.92560   0.34230   0.96703   0.00000  Uiso   1.00
C324   C     0.97911   0.38121   0.91846   0.00000  Uiso   1.00
C325   C     0.05711   0.40569   0.93432   0.00000  Uiso   1.00
C326   C     0.09598   0.43998   0.88280   0.00000  Uiso   1.00
C327   C     0.18485   0.49893   0.81726   0.00000  Uiso   1.00
C328   C     0.90885   0.28308   0.92799   0.00000  Uiso   1.00
C329   C     0.92777   0.22504   0.95185   0.00000  Uiso   1.00
C330   C     0.90748   0.17672   0.90835   0.00000  Uiso   1.00
C331   C     0.88721   0.08331   0.85763   0.00000  Uiso   1.00
C332   C     0.84110   0.37452   0.97262   0.00000  Uiso   1.00
C333   C     0.80302   0.39337   0.03401   0.00000  Uiso   1.00
C334   C     0.72568   0.42203   0.02809   0.00000  Uiso   1.00
C335   C     0.60021   0.47061   0.04666   0.00000  Uiso   1.00
C336   C     0.85593   0.35968   0.84735   0.00000  Uiso   1.00
C337   C     0.94127   0.39065   0.85345   0.00000  Uiso   1.00
C338   C     0.98003   0.42491   0.80190   0.00000  Uiso   1.00
C339   C     0.05808   0.44944   0.81767   0.00000  Uiso   1.00
C340   C     0.87102   0.29251   0.86298   0.00000  Uiso   1.00
C341   C     0.85069   0.24426   0.81944   0.00000  Uiso   1.00
C342   C     0.86957   0.18617   0.84323   0.00000  Uiso   1.00
C343   C     0.80325   0.38396   0.90761   0.00000  Uiso   1.00
C344   C     0.72595   0.41259   0.90159   0.00000  Uiso   1.00
C345   C     0.68777   0.43148   0.96296   0.00000  Uiso   1.00
H346   H     0.95506   0.33495   0.01764   0.00000  Uiso   1.00
H347   H     0.08638   0.39837   0.98463   0.00000  Uiso   1.00
H348   H     0.95704   0.21775   0.00217   0.00000  Uiso   1.00
H349   H     0.83233   0.38606   0.08431   0.00000  Uiso   1.00
H350   H     0.21530   0.47283   0.91935   0.00000  Uiso   1.00
H351   H     0.94256   0.09198   0.95634   0.00000  Uiso   1.00
H352   H     0.67956   0.44688   0.12956   0.00000  Uiso   1.00
H353   H     0.82647   0.36702   0.79673   0.00000  Uiso   1.00
H354   H     0.95074   0.43220   0.75160   0.00000  Uiso   1.00
H355   H     0.82140   0.25158   0.76913   0.00000  Uiso   1.00
H356   H     0.69669   0.41989   0.85128   0.00000  Uiso   1.00
H357   H     0.10521   0.50028   0.73021   0.00000  Uiso   1.00
H358   H     0.83247   0.11943   0.76720   0.00000  Uiso   1.00
H359   H     0.56947   0.47434   0.94042   0.00000  Uiso   1.00
O360   O     0.24433   0.52884   0.79907   0.00000  Uiso   1.00
O361   O     0.88650   0.02918   0.84760   0.00000  Uiso   1.00
O362   O     0.54146   0.49480   0.07486   0.00000  Uiso   1.00
N363   N     0.17232   0.47035   0.88104   0.00000  Uiso   1.00
N364   N     0.91735   0.11428   0.91561   0.00000  Uiso   1.00
N365   N     0.67146   0.44607   0.07756   0.00000  Uiso   1.00
N366   N     0.11309   0.48513   0.77926   0.00000  Uiso   1.00
N367   N     0.85811   0.12906   0.81384   0.00000  Uiso   1.00
N368   N     0.61222   0.46085   0.97579   0.00000  Uiso   1.00
