data_job_02265
_audit_creation_date              2018-12-19
_audit_creation_method            'Materials Studio'
_symmetry_space_group_name_H-M    'P1'
_symmetry_Int_Tables_number       1
_symmetry_cell_setting            triclinic
loop_
_symmetry_equiv_pos_as_xyz
  x,y,z
_cell_length_a                    11.8689
_cell_length_b                    11.8689
_cell_length_c                    36.2529
_cell_angle_alpha                 90.0000
_cell_angle_beta                  90.0000
_cell_angle_gamma                 90.0000
loop_
_atom_site_label
_atom_site_type_symbol
_atom_site_fract_x
_atom_site_fract_y
_atom_site_fract_z
_atom_site_U_iso_or_equiv
_atom_site_adp_type
_atom_site_occupancy
C1     C     0.46121   0.15740   0.46822   0.00000  Uiso   1.00
C2     C     0.55897   0.09911   0.44871   0.00000  Uiso   1.00
C3     C     0.60914   0.13449   0.41613   0.00000  Uiso   1.00
C4     C     0.69743   0.06958   0.40273   0.00000  Uiso   1.00
C5     C     0.84360   0.99375   0.36960   0.00000  Uiso   1.00
C6     C     0.36892   0.06879   0.47208   0.00000  Uiso   1.00
C7     C     0.25930   0.07870   0.45916   0.00000  Uiso   1.00
C8     C     0.18760   0.98828   0.46543   0.00000  Uiso   1.00
C9     C     0.03869   0.86543   0.46861   0.00000  Uiso   1.00
C10    C     0.50204   0.18218   0.50727   0.00000  Uiso   1.00
C11    C     0.50433   0.28741   0.52394   0.00000  Uiso   1.00
C12    C     0.54469   0.29245   0.55985   0.00000  Uiso   1.00
C13    C     0.60248   0.34565   0.61766   0.00000  Uiso   1.00
C14    C     0.52878   0.97921   0.50236   0.00000  Uiso   1.00
C15    C     0.59567   0.00232   0.46725   0.00000  Uiso   1.00
C16    C     0.68391   0.93734   0.45390   0.00000  Uiso   1.00
C17    C     0.73420   0.97262   0.42130   0.00000  Uiso   1.00
C18    C     0.40562   0.97201   0.49062   0.00000  Uiso   1.00
C19    C     0.33406   0.88156   0.49692   0.00000  Uiso   1.00
C20    C     0.22437   0.89132   0.48401   0.00000  Uiso   1.00
C21    C     0.53875   0.08539   0.52581   0.00000  Uiso   1.00
C22    C     0.57910   0.09026   0.56170   0.00000  Uiso   1.00
C23    C     0.58146   0.19549   0.57842   0.00000  Uiso   1.00
H24    H     0.43262   0.23275   0.45379   0.00000  Uiso   1.00
H25    H     0.58070   0.20939   0.40179   0.00000  Uiso   1.00
H26    H     0.23091   0.15362   0.44481   0.00000  Uiso   1.00
H27    H     0.47592   0.36229   0.50958   0.00000  Uiso   1.00
H28    H     0.76104   0.14078   0.35231   0.00000  Uiso   1.00
H29    H     0.02348   0.02320   0.44303   0.00000  Uiso   1.00
H30    H     0.54011   0.46324   0.57962   0.00000  Uiso   1.00
H31    H     0.55736   0.90385   0.51679   0.00000  Uiso   1.00
H32    H     0.71229   0.86244   0.46825   0.00000  Uiso   1.00
H33    H     0.36249   0.80667   0.51127   0.00000  Uiso   1.00
H34    H     0.60750   0.01535   0.57604   0.00000  Uiso   1.00
H35    H     0.86783   0.85919   0.40625   0.00000  Uiso   1.00
H36    H     0.13026   0.74161   0.49698   0.00000  Uiso   1.00
H37    H     0.64690   0.18164   0.63356   0.00000  Uiso   1.00
O38    O     0.91408   0.97866   0.34620   0.00000  Uiso   1.00
O39    O     0.94642   0.82441   0.46524   0.00000  Uiso   1.00
O40    O     0.62423   0.40173   0.64443   0.00000  Uiso   1.00
N41    N     0.76492   0.08020   0.37167   0.00000  Uiso   1.00
N42    N     0.07535   0.97027   0.45649   0.00000  Uiso   1.00
N43    N     0.55833   0.38166   0.58419   0.00000  Uiso   1.00
N44    N     0.82239   0.92868   0.40069   0.00000  Uiso   1.00
N45    N     0.13282   0.81874   0.48551   0.00000  Uiso   1.00
N46    N     0.61580   0.23014   0.61321   0.00000  Uiso   1.00
C47    C     0.53879   0.84260   0.96822   0.00000  Uiso   1.00
C48    C     0.44103   0.90089   0.94871   0.00000  Uiso   1.00
C49    C     0.39086   0.86551   0.91613   0.00000  Uiso   1.00
C50    C     0.30257   0.93042   0.90273   0.00000  Uiso   1.00
C51    C     0.15640   0.00625   0.86960   0.00000  Uiso   1.00
C52    C     0.63108   0.93121   0.97208   0.00000  Uiso   1.00
C53    C     0.74070   0.92130   0.95916   0.00000  Uiso   1.00
C54    C     0.81240   0.01172   0.96543   0.00000  Uiso   1.00
C55    C     0.96131   0.13457   0.96861   0.00000  Uiso   1.00
C56    C     0.49796   0.81782   0.00727   0.00000  Uiso   1.00
C57    C     0.49567   0.71259   0.02394   0.00000  Uiso   1.00
C58    C     0.45531   0.70755   0.05985   0.00000  Uiso   1.00
C59    C     0.39752   0.65435   0.11766   0.00000  Uiso   1.00
C60    C     0.47122   0.02079   0.00236   0.00000  Uiso   1.00
C61    C     0.40433   0.99768   0.96725   0.00000  Uiso   1.00
C62    C     0.31609   0.06266   0.95390   0.00000  Uiso   1.00
C63    C     0.26580   0.02738   0.92130   0.00000  Uiso   1.00
C64    C     0.59438   0.02799   0.99062   0.00000  Uiso   1.00
C65    C     0.66594   0.11844   0.99692   0.00000  Uiso   1.00
C66    C     0.77563   0.10868   0.98401   0.00000  Uiso   1.00
C67    C     0.46125   0.91461   0.02581   0.00000  Uiso   1.00
C68    C     0.42090   0.90974   0.06170   0.00000  Uiso   1.00
C69    C     0.41854   0.80451   0.07842   0.00000  Uiso   1.00
H70    H     0.56738   0.76725   0.95379   0.00000  Uiso   1.00
H71    H     0.41930   0.79061   0.90179   0.00000  Uiso   1.00
H72    H     0.76909   0.84638   0.94481   0.00000  Uiso   1.00
H73    H     0.52408   0.63771   0.00958   0.00000  Uiso   1.00
H74    H     0.23896   0.85922   0.85231   0.00000  Uiso   1.00
H75    H     0.97652   0.97680   0.94303   0.00000  Uiso   1.00
H76    H     0.45989   0.53676   0.07962   0.00000  Uiso   1.00
H77    H     0.44264   0.09615   0.01679   0.00000  Uiso   1.00
H78    H     0.28771   0.13756   0.96825   0.00000  Uiso   1.00
H79    H     0.63751   0.19333   0.01127   0.00000  Uiso   1.00
H80    H     0.39250   0.98465   0.07604   0.00000  Uiso   1.00
H81    H     0.13217   0.14081   0.90625   0.00000  Uiso   1.00
H82    H     0.86974   0.25839   0.99698   0.00000  Uiso   1.00
H83    H     0.35310   0.81836   0.13356   0.00000  Uiso   1.00
O84    O     0.08592   0.02134   0.84620   0.00000  Uiso   1.00
O85    O     0.05358   0.17559   0.96524   0.00000  Uiso   1.00
O86    O     0.37577   0.59827   0.14443   0.00000  Uiso   1.00
N87    N     0.23508   0.91980   0.87167   0.00000  Uiso   1.00
N88    N     0.92465   0.02973   0.95649   0.00000  Uiso   1.00
N89    N     0.44167   0.61834   0.08419   0.00000  Uiso   1.00
N90    N     0.17761   0.07132   0.90069   0.00000  Uiso   1.00
N91    N     0.86718   0.18126   0.98551   0.00000  Uiso   1.00
N92    N     0.38420   0.76986   0.11321   0.00000  Uiso   1.00
C93    C     0.34260   0.96121   0.21822   0.00000  Uiso   1.00
C94    C     0.40089   0.05897   0.19871   0.00000  Uiso   1.00
C95    C     0.36551   0.10914   0.16613   0.00000  Uiso   1.00
C96    C     0.43042   0.19743   0.15273   0.00000  Uiso   1.00
C97    C     0.50625   0.34360   0.11960   0.00000  Uiso   1.00
C98    C     0.43121   0.86892   0.22208   0.00000  Uiso   1.00
C99    C     0.42130   0.75930   0.20916   0.00000  Uiso   1.00
C100   C     0.51172   0.68760   0.21543   0.00000  Uiso   1.00
C101   C     0.63457   0.53869   0.21861   0.00000  Uiso   1.00
C102   C     0.31782   0.00204   0.25727   0.00000  Uiso   1.00
C103   C     0.21259   0.00433   0.27394   0.00000  Uiso   1.00
C104   C     0.20755   0.04469   0.30985   0.00000  Uiso   1.00
C105   C     0.15435   0.10248   0.36766   0.00000  Uiso   1.00
C106   C     0.52079   0.02878   0.25236   0.00000  Uiso   1.00
C107   C     0.49768   0.09567   0.21725   0.00000  Uiso   1.00
C108   C     0.56266   0.18391   0.20390   0.00000  Uiso   1.00
C109   C     0.52738   0.23420   0.17130   0.00000  Uiso   1.00
C110   C     0.52799   0.90562   0.24062   0.00000  Uiso   1.00
C111   C     0.61844   0.83406   0.24692   0.00000  Uiso   1.00
C112   C     0.60868   0.72437   0.23401   0.00000  Uiso   1.00
C113   C     0.41461   0.03875   0.27581   0.00000  Uiso   1.00
C114   C     0.40974   0.07910   0.31170   0.00000  Uiso   1.00
C115   C     0.30451   0.08146   0.32842   0.00000  Uiso   1.00
H116   H     0.26725   0.93262   0.20379   0.00000  Uiso   1.00
H117   H     0.29061   0.08070   0.15179   0.00000  Uiso   1.00
H118   H     0.34638   0.73091   0.19481   0.00000  Uiso   1.00
H119   H     0.13771   0.97592   0.25958   0.00000  Uiso   1.00
H120   H     0.35922   0.26104   0.10231   0.00000  Uiso   1.00
H121   H     0.47680   0.52348   0.19303   0.00000  Uiso   1.00
H122   H     0.03676   0.04011   0.32962   0.00000  Uiso   1.00
H123   H     0.59615   0.05736   0.26679   0.00000  Uiso   1.00
H124   H     0.63756   0.21229   0.21825   0.00000  Uiso   1.00
H125   H     0.69333   0.86249   0.26127   0.00000  Uiso   1.00
H126   H     0.48465   0.10750   0.32604   0.00000  Uiso   1.00
H127   H     0.64081   0.36783   0.15625   0.00000  Uiso   1.00
H128   H     0.75839   0.63026   0.24698   0.00000  Uiso   1.00
H129   H     0.31836   0.14690   0.38356   0.00000  Uiso   1.00
O130   O     0.52134   0.41408   0.09620   0.00000  Uiso   1.00
O131   O     0.67559   0.44642   0.21524   0.00000  Uiso   1.00
O132   O     0.09827   0.12423   0.39443   0.00000  Uiso   1.00
N133   N     0.41980   0.26492   0.12167   0.00000  Uiso   1.00
N134   N     0.52973   0.57535   0.20649   0.00000  Uiso   1.00
N135   N     0.11834   0.05833   0.33419   0.00000  Uiso   1.00
N136   N     0.57132   0.32239   0.15069   0.00000  Uiso   1.00
N137   N     0.68126   0.63282   0.23551   0.00000  Uiso   1.00
N138   N     0.26986   0.11580   0.36321   0.00000  Uiso   1.00
C139   C     0.65740   0.03879   0.71822   0.00000  Uiso   1.00
C140   C     0.59911   0.94103   0.69871   0.00000  Uiso   1.00
C141   C     0.63449   0.89086   0.66613   0.00000  Uiso   1.00
C142   C     0.56958   0.80257   0.65273   0.00000  Uiso   1.00
C143   C     0.49375   0.65640   0.61960   0.00000  Uiso   1.00
C144   C     0.56879   0.13108   0.72208   0.00000  Uiso   1.00
C145   C     0.57870   0.24070   0.70916   0.00000  Uiso   1.00
C146   C     0.48828   0.31240   0.71543   0.00000  Uiso   1.00
C147   C     0.36543   0.46131   0.71861   0.00000  Uiso   1.00
C148   C     0.68218   0.99796   0.75727   0.00000  Uiso   1.00
C149   C     0.78741   0.99567   0.77394   0.00000  Uiso   1.00
C150   C     0.79245   0.95531   0.80985   0.00000  Uiso   1.00
C151   C     0.84565   0.89752   0.86766   0.00000  Uiso   1.00
C152   C     0.47921   0.97122   0.75236   0.00000  Uiso   1.00
C153   C     0.50232   0.90433   0.71725   0.00000  Uiso   1.00
C154   C     0.43734   0.81609   0.70390   0.00000  Uiso   1.00
C155   C     0.47262   0.76580   0.67130   0.00000  Uiso   1.00
C156   C     0.47201   0.09438   0.74062   0.00000  Uiso   1.00
C157   C     0.38156   0.16594   0.74692   0.00000  Uiso   1.00
C158   C     0.39132   0.27563   0.73401   0.00000  Uiso   1.00
C159   C     0.58539   0.96125   0.77581   0.00000  Uiso   1.00
C160   C     0.59026   0.92090   0.81170   0.00000  Uiso   1.00
C161   C     0.69549   0.91854   0.82842   0.00000  Uiso   1.00
H162   H     0.73275   0.06738   0.70379   0.00000  Uiso   1.00
H163   H     0.70939   0.91930   0.65179   0.00000  Uiso   1.00
H164   H     0.65362   0.26909   0.69481   0.00000  Uiso   1.00
H165   H     0.86229   0.02408   0.75958   0.00000  Uiso   1.00
H166   H     0.64078   0.73896   0.60231   0.00000  Uiso   1.00
H167   H     0.52320   0.47652   0.69303   0.00000  Uiso   1.00
H168   H     0.96324   0.95989   0.82962   0.00000  Uiso   1.00
H169   H     0.40385   0.94264   0.76679   0.00000  Uiso   1.00
H170   H     0.36244   0.78771   0.71825   0.00000  Uiso   1.00
H171   H     0.30667   0.13751   0.76127   0.00000  Uiso   1.00
H172   H     0.51535   0.89250   0.82604   0.00000  Uiso   1.00
H173   H     0.35919   0.63217   0.65625   0.00000  Uiso   1.00
H174   H     0.24161   0.36974   0.74698   0.00000  Uiso   1.00
H175   H     0.68164   0.85310   0.88356   0.00000  Uiso   1.00
O176   O     0.47866   0.58592   0.59620   0.00000  Uiso   1.00
O177   O     0.32441   0.55358   0.71524   0.00000  Uiso   1.00
O178   O     0.90173   0.87577   0.89443   0.00000  Uiso   1.00
N179   N     0.58020   0.73508   0.62167   0.00000  Uiso   1.00
N180   N     0.47027   0.42465   0.70649   0.00000  Uiso   1.00
N181   N     0.88166   0.94167   0.83419   0.00000  Uiso   1.00
N182   N     0.42868   0.67761   0.65069   0.00000  Uiso   1.00
N183   N     0.31874   0.36718   0.73551   0.00000  Uiso   1.00
N184   N     0.73014   0.88420   0.86321   0.00000  Uiso   1.00
C185   C     0.03879   0.65740   0.28178   0.00000  Uiso   1.00
C186   C     0.94103   0.59911   0.30129   0.00000  Uiso   1.00
C187   C     0.89086   0.63449   0.33387   0.00000  Uiso   1.00
C188   C     0.80257   0.56958   0.34727   0.00000  Uiso   1.00
C189   C     0.65640   0.49375   0.38040   0.00000  Uiso   1.00
C190   C     0.13108   0.56879   0.27792   0.00000  Uiso   1.00
C191   C     0.24070   0.57870   0.29084   0.00000  Uiso   1.00
C192   C     0.31240   0.48828   0.28457   0.00000  Uiso   1.00
C193   C     0.46131   0.36543   0.28139   0.00000  Uiso   1.00
C194   C     0.99796   0.68218   0.24273   0.00000  Uiso   1.00
C195   C     0.99567   0.78741   0.22606   0.00000  Uiso   1.00
C196   C     0.95531   0.79245   0.19015   0.00000  Uiso   1.00
C197   C     0.89752   0.84565   0.13234   0.00000  Uiso   1.00
C198   C     0.97122   0.47921   0.24764   0.00000  Uiso   1.00
C199   C     0.90433   0.50232   0.28275   0.00000  Uiso   1.00
C200   C     0.81609   0.43734   0.29610   0.00000  Uiso   1.00
C201   C     0.76580   0.47262   0.32870   0.00000  Uiso   1.00
C202   C     0.09438   0.47201   0.25938   0.00000  Uiso   1.00
C203   C     0.16594   0.38156   0.25308   0.00000  Uiso   1.00
C204   C     0.27563   0.39132   0.26599   0.00000  Uiso   1.00
C205   C     0.96125   0.58539   0.22419   0.00000  Uiso   1.00
C206   C     0.92090   0.59026   0.18830   0.00000  Uiso   1.00
C207   C     0.91854   0.69549   0.17158   0.00000  Uiso   1.00
H208   H     0.06738   0.73275   0.29621   0.00000  Uiso   1.00
H209   H     0.91930   0.70939   0.34821   0.00000  Uiso   1.00
H210   H     0.26909   0.65362   0.30519   0.00000  Uiso   1.00
H211   H     0.02408   0.86229   0.24042   0.00000  Uiso   1.00
H212   H     0.73896   0.64078   0.39769   0.00000  Uiso   1.00
H213   H     0.47652   0.52320   0.30697   0.00000  Uiso   1.00
H214   H     0.95989   0.96324   0.17038   0.00000  Uiso   1.00
H215   H     0.94264   0.40385   0.23321   0.00000  Uiso   1.00
H216   H     0.78771   0.36244   0.28175   0.00000  Uiso   1.00
H217   H     0.13751   0.30667   0.23873   0.00000  Uiso   1.00
H218   H     0.89250   0.51535   0.17396   0.00000  Uiso   1.00
H219   H     0.63217   0.35919   0.34375   0.00000  Uiso   1.00
H220   H     0.36974   0.24161   0.25302   0.00000  Uiso   1.00
H221   H     0.85310   0.68164   0.11644   0.00000  Uiso   1.00
O222   O     0.58592   0.47866   0.40380   0.00000  Uiso   1.00
O223   O     0.55358   0.32441   0.28476   0.00000  Uiso   1.00
O224   O     0.87577   0.90173   0.10557   0.00000  Uiso   1.00
N225   N     0.73508   0.58020   0.37833   0.00000  Uiso   1.00
N226   N     0.42465   0.47027   0.29351   0.00000  Uiso   1.00
N227   N     0.94167   0.88166   0.16581   0.00000  Uiso   1.00
N228   N     0.67761   0.42868   0.34931   0.00000  Uiso   1.00
N229   N     0.36718   0.31874   0.26449   0.00000  Uiso   1.00
N230   N     0.88420   0.73014   0.13679   0.00000  Uiso   1.00
C231   C     0.96121   0.34260   0.78178   0.00000  Uiso   1.00
C232   C     0.05897   0.40089   0.80129   0.00000  Uiso   1.00
C233   C     0.10914   0.36551   0.83387   0.00000  Uiso   1.00
C234   C     0.19743   0.43042   0.84727   0.00000  Uiso   1.00
C235   C     0.34360   0.50625   0.88040   0.00000  Uiso   1.00
C236   C     0.86892   0.43121   0.77792   0.00000  Uiso   1.00
C237   C     0.75930   0.42130   0.79084   0.00000  Uiso   1.00
C238   C     0.68760   0.51172   0.78457   0.00000  Uiso   1.00
C239   C     0.53869   0.63457   0.78139   0.00000  Uiso   1.00
C240   C     0.00204   0.31782   0.74273   0.00000  Uiso   1.00
C241   C     0.00433   0.21259   0.72606   0.00000  Uiso   1.00
C242   C     0.04469   0.20755   0.69015   0.00000  Uiso   1.00
C243   C     0.10248   0.15435   0.63234   0.00000  Uiso   1.00
C244   C     0.02878   0.52079   0.74764   0.00000  Uiso   1.00
C245   C     0.09567   0.49768   0.78275   0.00000  Uiso   1.00
C246   C     0.18391   0.56266   0.79610   0.00000  Uiso   1.00
C247   C     0.23420   0.52738   0.82870   0.00000  Uiso   1.00
C248   C     0.90562   0.52799   0.75938   0.00000  Uiso   1.00
C249   C     0.83406   0.61844   0.75308   0.00000  Uiso   1.00
C250   C     0.72437   0.60868   0.76599   0.00000  Uiso   1.00
C251   C     0.03875   0.41461   0.72419   0.00000  Uiso   1.00
C252   C     0.07910   0.40974   0.68830   0.00000  Uiso   1.00
C253   C     0.08146   0.30451   0.67158   0.00000  Uiso   1.00
H254   H     0.93262   0.26725   0.79621   0.00000  Uiso   1.00
H255   H     0.08070   0.29061   0.84821   0.00000  Uiso   1.00
H256   H     0.73091   0.34638   0.80519   0.00000  Uiso   1.00
H257   H     0.97592   0.13771   0.74042   0.00000  Uiso   1.00
H258   H     0.26104   0.35922   0.89769   0.00000  Uiso   1.00
H259   H     0.52348   0.47680   0.80697   0.00000  Uiso   1.00
H260   H     0.04011   0.03676   0.67038   0.00000  Uiso   1.00
H261   H     0.05736   0.59615   0.73321   0.00000  Uiso   1.00
H262   H     0.21229   0.63756   0.78175   0.00000  Uiso   1.00
H263   H     0.86249   0.69333   0.73873   0.00000  Uiso   1.00
H264   H     0.10750   0.48465   0.67396   0.00000  Uiso   1.00
H265   H     0.36783   0.64081   0.84375   0.00000  Uiso   1.00
H266   H     0.63026   0.75839   0.75302   0.00000  Uiso   1.00
H267   H     0.14690   0.31836   0.61644   0.00000  Uiso   1.00
O268   O     0.41408   0.52134   0.90380   0.00000  Uiso   1.00
O269   O     0.44642   0.67559   0.78476   0.00000  Uiso   1.00
O270   O     0.12423   0.09827   0.60557   0.00000  Uiso   1.00
N271   N     0.26492   0.41980   0.87833   0.00000  Uiso   1.00
N272   N     0.57535   0.52973   0.79351   0.00000  Uiso   1.00
N273   N     0.05833   0.11834   0.66581   0.00000  Uiso   1.00
N274   N     0.32239   0.57132   0.84931   0.00000  Uiso   1.00
N275   N     0.63282   0.68126   0.76449   0.00000  Uiso   1.00
N276   N     0.11580   0.26986   0.63679   0.00000  Uiso   1.00
C277   C     0.15740   0.46121   0.53178   0.00000  Uiso   1.00
C278   C     0.09911   0.55897   0.55129   0.00000  Uiso   1.00
C279   C     0.13449   0.60914   0.58387   0.00000  Uiso   1.00
C280   C     0.06958   0.69743   0.59727   0.00000  Uiso   1.00
C281   C     0.99375   0.84360   0.63040   0.00000  Uiso   1.00
C282   C     0.06879   0.36892   0.52792   0.00000  Uiso   1.00
C283   C     0.07870   0.25930   0.54084   0.00000  Uiso   1.00
C284   C     0.98828   0.18760   0.53457   0.00000  Uiso   1.00
C285   C     0.86543   0.03869   0.53139   0.00000  Uiso   1.00
C286   C     0.18218   0.50204   0.49273   0.00000  Uiso   1.00
C287   C     0.28741   0.50433   0.47606   0.00000  Uiso   1.00
C288   C     0.29245   0.54469   0.44015   0.00000  Uiso   1.00
C289   C     0.34565   0.60248   0.38234   0.00000  Uiso   1.00
C290   C     0.97921   0.52878   0.49764   0.00000  Uiso   1.00
C291   C     0.00232   0.59567   0.53275   0.00000  Uiso   1.00
C292   C     0.93734   0.68391   0.54610   0.00000  Uiso   1.00
C293   C     0.97262   0.73420   0.57870   0.00000  Uiso   1.00
C294   C     0.97201   0.40562   0.50938   0.00000  Uiso   1.00
C295   C     0.88156   0.33406   0.50308   0.00000  Uiso   1.00
C296   C     0.89132   0.22437   0.51599   0.00000  Uiso   1.00
C297   C     0.08539   0.53875   0.47419   0.00000  Uiso   1.00
C298   C     0.09026   0.57910   0.43830   0.00000  Uiso   1.00
C299   C     0.19549   0.58146   0.42158   0.00000  Uiso   1.00
H300   H     0.23275   0.43262   0.54621   0.00000  Uiso   1.00
H301   H     0.20939   0.58070   0.59821   0.00000  Uiso   1.00
H302   H     0.15362   0.23091   0.55519   0.00000  Uiso   1.00
H303   H     0.36229   0.47592   0.49042   0.00000  Uiso   1.00
H304   H     0.14078   0.76104   0.64769   0.00000  Uiso   1.00
H305   H     0.02320   0.02348   0.55697   0.00000  Uiso   1.00
H306   H     0.46324   0.54011   0.42038   0.00000  Uiso   1.00
H307   H     0.90385   0.55736   0.48321   0.00000  Uiso   1.00
H308   H     0.86244   0.71229   0.53175   0.00000  Uiso   1.00
H309   H     0.80667   0.36249   0.48873   0.00000  Uiso   1.00
H310   H     0.01535   0.60750   0.42396   0.00000  Uiso   1.00
H311   H     0.85919   0.86783   0.59375   0.00000  Uiso   1.00
H312   H     0.74161   0.13026   0.50302   0.00000  Uiso   1.00
H313   H     0.18164   0.64690   0.36644   0.00000  Uiso   1.00
O314   O     0.97866   0.91408   0.65380   0.00000  Uiso   1.00
O315   O     0.82441   0.94642   0.53476   0.00000  Uiso   1.00
O316   O     0.40173   0.62423   0.35557   0.00000  Uiso   1.00
N317   N     0.08020   0.76492   0.62833   0.00000  Uiso   1.00
N318   N     0.97027   0.07535   0.54351   0.00000  Uiso   1.00
N319   N     0.38166   0.55833   0.41581   0.00000  Uiso   1.00
N320   N     0.92868   0.82239   0.59931   0.00000  Uiso   1.00
N321   N     0.81874   0.13282   0.51449   0.00000  Uiso   1.00
N322   N     0.23014   0.61580   0.38679   0.00000  Uiso   1.00
C323   C     0.84260   0.53879   0.03178   0.00000  Uiso   1.00
C324   C     0.90089   0.44103   0.05129   0.00000  Uiso   1.00
C325   C     0.86551   0.39086   0.08387   0.00000  Uiso   1.00
C326   C     0.93042   0.30257   0.09727   0.00000  Uiso   1.00
C327   C     0.00625   0.15640   0.13040   0.00000  Uiso   1.00
C328   C     0.93121   0.63108   0.02792   0.00000  Uiso   1.00
C329   C     0.92130   0.74070   0.04084   0.00000  Uiso   1.00
C330   C     0.01172   0.81240   0.03457   0.00000  Uiso   1.00
C331   C     0.13457   0.96131   0.03139   0.00000  Uiso   1.00
C332   C     0.81782   0.49796   0.99273   0.00000  Uiso   1.00
C333   C     0.71259   0.49567   0.97606   0.00000  Uiso   1.00
C334   C     0.70755   0.45531   0.94015   0.00000  Uiso   1.00
C335   C     0.65435   0.39752   0.88234   0.00000  Uiso   1.00
C336   C     0.02079   0.47122   0.99764   0.00000  Uiso   1.00
C337   C     0.99768   0.40433   0.03275   0.00000  Uiso   1.00
C338   C     0.06266   0.31609   0.04610   0.00000  Uiso   1.00
C339   C     0.02738   0.26580   0.07870   0.00000  Uiso   1.00
C340   C     0.02799   0.59438   0.00938   0.00000  Uiso   1.00
C341   C     0.11844   0.66594   0.00308   0.00000  Uiso   1.00
C342   C     0.10868   0.77563   0.01599   0.00000  Uiso   1.00
C343   C     0.91461   0.46125   0.97419   0.00000  Uiso   1.00
C344   C     0.90974   0.42090   0.93830   0.00000  Uiso   1.00
C345   C     0.80451   0.41854   0.92158   0.00000  Uiso   1.00
H346   H     0.76725   0.56738   0.04621   0.00000  Uiso   1.00
H347   H     0.79061   0.41930   0.09821   0.00000  Uiso   1.00
H348   H     0.84638   0.76909   0.05519   0.00000  Uiso   1.00
H349   H     0.63771   0.52408   0.99042   0.00000  Uiso   1.00
H350   H     0.85922   0.23896   0.14769   0.00000  Uiso   1.00
H351   H     0.97680   0.97652   0.05697   0.00000  Uiso   1.00
H352   H     0.53676   0.45989   0.92038   0.00000  Uiso   1.00
H353   H     0.09615   0.44264   0.98321   0.00000  Uiso   1.00
H354   H     0.13756   0.28771   0.03175   0.00000  Uiso   1.00
H355   H     0.19333   0.63751   0.98873   0.00000  Uiso   1.00
H356   H     0.98465   0.39250   0.92396   0.00000  Uiso   1.00
H357   H     0.14081   0.13217   0.09375   0.00000  Uiso   1.00
H358   H     0.25839   0.86974   0.00302   0.00000  Uiso   1.00
H359   H     0.81836   0.35310   0.86644   0.00000  Uiso   1.00
O360   O     0.02134   0.08592   0.15380   0.00000  Uiso   1.00
O361   O     0.17559   0.05358   0.03476   0.00000  Uiso   1.00
O362   O     0.59827   0.37577   0.85557   0.00000  Uiso   1.00
N363   N     0.91980   0.23508   0.12833   0.00000  Uiso   1.00
N364   N     0.02973   0.92465   0.04351   0.00000  Uiso   1.00
N365   N     0.61834   0.44167   0.91581   0.00000  Uiso   1.00
N366   N     0.07132   0.17761   0.09931   0.00000  Uiso   1.00
N367   N     0.18126   0.86718   0.01449   0.00000  Uiso   1.00
N368   N     0.76986   0.38420   0.88679   0.00000  Uiso   1.00
