data_job_05612
_audit_creation_date              2018-12-19
_audit_creation_method            'Materials Studio'
_symmetry_space_group_name_H-M    'P1'
_symmetry_Int_Tables_number       1
_symmetry_cell_setting            triclinic
loop_
_symmetry_equiv_pos_as_xyz
  x,y,z
_cell_length_a                    30.5984
_cell_length_b                    30.5984
_cell_length_c                    7.3575
_cell_angle_alpha                 90.0000
_cell_angle_beta                  90.0000
_cell_angle_gamma                 90.0000
loop_
_atom_site_label
_atom_site_type_symbol
_atom_site_fract_x
_atom_site_fract_y
_atom_site_fract_z
_atom_site_U_iso_or_equiv
_atom_site_adp_type
_atom_site_occupancy
C1     C     0.03378   0.28085   0.17670   0.00000  Uiso   1.00
C2     C     0.07923   0.27417   0.09633   0.00000  Uiso   1.00
C3     C     0.11752   0.26858   0.19474   0.00000  Uiso   1.00
C4     C     0.15577   0.26295   0.09596   0.00000  Uiso   1.00
C5     C     0.22635   0.25260   0.00011   0.00000  Uiso   1.00
C6     C     0.01679   0.32357   0.09665   0.00000  Uiso   1.00
C7     C     0.00257   0.35951   0.19535   0.00000  Uiso   1.00
C8     C     0.98825   0.39547   0.09683   0.00000  Uiso   1.00
C9     C     0.96186   0.46179   0.00149   0.00000  Uiso   1.00
C10    C     0.00523   0.24479   0.09698   0.00000  Uiso   1.00
C11    C     0.98127   0.21451   0.19593   0.00000  Uiso   1.00
C12    C     0.95721   0.18415   0.09769   0.00000  Uiso   1.00
C13    C     0.91286   0.12816   0.00285   0.00000  Uiso   1.00
C14    C     0.03363   0.28080   0.82627   0.00000  Uiso   1.00
C15    C     0.07915   0.27414   0.90599   0.00000  Uiso   1.00
C16    C     0.11735   0.26852   0.80703   0.00000  Uiso   1.00
C17    C     0.15568   0.26292   0.90528   0.00000  Uiso   1.00
C18    C     0.01670   0.32354   0.90632   0.00000  Uiso   1.00
C19    C     0.00240   0.35945   0.80764   0.00000  Uiso   1.00
C20    C     0.98816   0.39543   0.90615   0.00000  Uiso   1.00
C21    C     0.00514   0.24476   0.90664   0.00000  Uiso   1.00
C22    C     0.98110   0.21444   0.80822   0.00000  Uiso   1.00
C23    C     0.95712   0.18411   0.90700   0.00000  Uiso   1.00
H24    H     0.03385   0.28088   0.32489   0.00000  Uiso   1.00
H25    H     0.11757   0.26861   0.34204   0.00000  Uiso   1.00
H26    H     0.00263   0.35952   0.34264   0.00000  Uiso   1.00
H27    H     0.98134   0.21454   0.34322   0.00000  Uiso   1.00
H28    H     0.21036   0.25501   0.27712   0.00000  Uiso   1.00
H29    H     0.96799   0.44670   0.27838   0.00000  Uiso   1.00
H30    H     0.92310   0.14098   0.27962   0.00000  Uiso   1.00
H31    H     0.03356   0.28077   0.67808   0.00000  Uiso   1.00
H32    H     0.11727   0.26849   0.65973   0.00000  Uiso   1.00
H33    H     0.00233   0.35941   0.66034   0.00000  Uiso   1.00
H34    H     0.98105   0.21443   0.66093   0.00000  Uiso   1.00
H35    H     0.21012   0.25491   0.72333   0.00000  Uiso   1.00
H36    H     0.96775   0.44661   0.72461   0.00000  Uiso   1.00
H37    H     0.92286   0.14088   0.72584   0.00000  Uiso   1.00
O38    O     0.26531   0.24690   0.99983   0.00000  Uiso   1.00
O39    O     0.94733   0.49839   0.00150   0.00000  Uiso   1.00
O40    O     0.88843   0.09729   0.00312   0.00000  Uiso   1.00
N41    N     0.19881   0.25666   0.14930   0.00000  Uiso   1.00
N42    N     0.97222   0.43588   0.15049   0.00000  Uiso   1.00
N43    N     0.93024   0.15007   0.15164   0.00000  Uiso   1.00
N44    N     0.19868   0.25661   0.85131   0.00000  Uiso   1.00
N45    N     0.97209   0.43583   0.85250   0.00000  Uiso   1.00
N46    N     0.93011   0.15002   0.85366   0.00000  Uiso   1.00
C47    C     0.96622   0.71915   0.17670   0.00000  Uiso   1.00
C48    C     0.92077   0.72583   0.09633   0.00000  Uiso   1.00
C49    C     0.88248   0.73142   0.19474   0.00000  Uiso   1.00
C50    C     0.84423   0.73705   0.09596   0.00000  Uiso   1.00
C51    C     0.77365   0.74740   0.00011   0.00000  Uiso   1.00
C52    C     0.98321   0.67643   0.09665   0.00000  Uiso   1.00
C53    C     0.99743   0.64049   0.19535   0.00000  Uiso   1.00
C54    C     0.01175   0.60453   0.09683   0.00000  Uiso   1.00
C55    C     0.03814   0.53821   0.00149   0.00000  Uiso   1.00
C56    C     0.99477   0.75521   0.09698   0.00000  Uiso   1.00
C57    C     0.01873   0.78549   0.19593   0.00000  Uiso   1.00
C58    C     0.04279   0.81585   0.09769   0.00000  Uiso   1.00
C59    C     0.08714   0.87184   0.00285   0.00000  Uiso   1.00
C60    C     0.96637   0.71920   0.82627   0.00000  Uiso   1.00
C61    C     0.92085   0.72586   0.90599   0.00000  Uiso   1.00
C62    C     0.88265   0.73148   0.80703   0.00000  Uiso   1.00
C63    C     0.84432   0.73708   0.90528   0.00000  Uiso   1.00
C64    C     0.98330   0.67646   0.90632   0.00000  Uiso   1.00
C65    C     0.99760   0.64055   0.80764   0.00000  Uiso   1.00
C66    C     0.01184   0.60457   0.90615   0.00000  Uiso   1.00
C67    C     0.99486   0.75524   0.90664   0.00000  Uiso   1.00
C68    C     0.01890   0.78556   0.80822   0.00000  Uiso   1.00
C69    C     0.04288   0.81589   0.90700   0.00000  Uiso   1.00
H70    H     0.96615   0.71912   0.32489   0.00000  Uiso   1.00
H71    H     0.88243   0.73139   0.34204   0.00000  Uiso   1.00
H72    H     0.99737   0.64048   0.34264   0.00000  Uiso   1.00
H73    H     0.01866   0.78546   0.34322   0.00000  Uiso   1.00
H74    H     0.78964   0.74499   0.27712   0.00000  Uiso   1.00
H75    H     0.03201   0.55330   0.27838   0.00000  Uiso   1.00
H76    H     0.07690   0.85902   0.27962   0.00000  Uiso   1.00
H77    H     0.96644   0.71923   0.67808   0.00000  Uiso   1.00
H78    H     0.88273   0.73151   0.65973   0.00000  Uiso   1.00
H79    H     0.99767   0.64059   0.66034   0.00000  Uiso   1.00
H80    H     0.01895   0.78557   0.66093   0.00000  Uiso   1.00
H81    H     0.78988   0.74509   0.72333   0.00000  Uiso   1.00
H82    H     0.03225   0.55339   0.72461   0.00000  Uiso   1.00
H83    H     0.07714   0.85912   0.72584   0.00000  Uiso   1.00
O84    O     0.73469   0.75310   0.99983   0.00000  Uiso   1.00
O85    O     0.05267   0.50161   0.00150   0.00000  Uiso   1.00
O86    O     0.11157   0.90271   0.00312   0.00000  Uiso   1.00
N87    N     0.80119   0.74334   0.14930   0.00000  Uiso   1.00
N88    N     0.02778   0.56412   0.15049   0.00000  Uiso   1.00
N89    N     0.06976   0.84993   0.15164   0.00000  Uiso   1.00
N90    N     0.80132   0.74339   0.85131   0.00000  Uiso   1.00
N91    N     0.02791   0.56417   0.85250   0.00000  Uiso   1.00
N92    N     0.06989   0.84998   0.85366   0.00000  Uiso   1.00
C93    C     0.21915   0.53378   0.67670   0.00000  Uiso   1.00
C94    C     0.22583   0.57923   0.59633   0.00000  Uiso   1.00
C95    C     0.23142   0.61752   0.69474   0.00000  Uiso   1.00
C96    C     0.23705   0.65577   0.59596   0.00000  Uiso   1.00
C97    C     0.24740   0.72635   0.50011   0.00000  Uiso   1.00
C98    C     0.17643   0.51679   0.59665   0.00000  Uiso   1.00
C99    C     0.14049   0.50257   0.69535   0.00000  Uiso   1.00
C100   C     0.10453   0.48825   0.59683   0.00000  Uiso   1.00
C101   C     0.03821   0.46186   0.50149   0.00000  Uiso   1.00
C102   C     0.25521   0.50523   0.59698   0.00000  Uiso   1.00
C103   C     0.28549   0.48127   0.69593   0.00000  Uiso   1.00
C104   C     0.31585   0.45721   0.59769   0.00000  Uiso   1.00
C105   C     0.37184   0.41286   0.50285   0.00000  Uiso   1.00
C106   C     0.21920   0.53363   0.32627   0.00000  Uiso   1.00
C107   C     0.22586   0.57915   0.40599   0.00000  Uiso   1.00
C108   C     0.23148   0.61735   0.30703   0.00000  Uiso   1.00
C109   C     0.23708   0.65568   0.40528   0.00000  Uiso   1.00
C110   C     0.17646   0.51670   0.40632   0.00000  Uiso   1.00
C111   C     0.14055   0.50240   0.30764   0.00000  Uiso   1.00
C112   C     0.10457   0.48816   0.40615   0.00000  Uiso   1.00
C113   C     0.25524   0.50514   0.40664   0.00000  Uiso   1.00
C114   C     0.28556   0.48110   0.30822   0.00000  Uiso   1.00
C115   C     0.31589   0.45712   0.40700   0.00000  Uiso   1.00
H116   H     0.21912   0.53385   0.82489   0.00000  Uiso   1.00
H117   H     0.23139   0.61757   0.84204   0.00000  Uiso   1.00
H118   H     0.14048   0.50263   0.84264   0.00000  Uiso   1.00
H119   H     0.28546   0.48134   0.84322   0.00000  Uiso   1.00
H120   H     0.24499   0.71036   0.77712   0.00000  Uiso   1.00
H121   H     0.05330   0.46799   0.77838   0.00000  Uiso   1.00
H122   H     0.35902   0.42310   0.77962   0.00000  Uiso   1.00
H123   H     0.21923   0.53356   0.17808   0.00000  Uiso   1.00
H124   H     0.23151   0.61727   0.15973   0.00000  Uiso   1.00
H125   H     0.14059   0.50233   0.16034   0.00000  Uiso   1.00
H126   H     0.28557   0.48105   0.16093   0.00000  Uiso   1.00
H127   H     0.24509   0.71012   0.22333   0.00000  Uiso   1.00
H128   H     0.05339   0.46775   0.22461   0.00000  Uiso   1.00
H129   H     0.35912   0.42286   0.22584   0.00000  Uiso   1.00
O130   O     0.25310   0.76531   0.49983   0.00000  Uiso   1.00
O131   O     0.00161   0.44733   0.50150   0.00000  Uiso   1.00
O132   O     0.40271   0.38843   0.50312   0.00000  Uiso   1.00
N133   N     0.24334   0.69881   0.64930   0.00000  Uiso   1.00
N134   N     0.06412   0.47222   0.65049   0.00000  Uiso   1.00
N135   N     0.34993   0.43024   0.65164   0.00000  Uiso   1.00
N136   N     0.24339   0.69868   0.35131   0.00000  Uiso   1.00
N137   N     0.06417   0.47209   0.35250   0.00000  Uiso   1.00
N138   N     0.34998   0.43011   0.35366   0.00000  Uiso   1.00
C139   C     0.78085   0.46622   0.67670   0.00000  Uiso   1.00
C140   C     0.77417   0.42077   0.59633   0.00000  Uiso   1.00
C141   C     0.76858   0.38248   0.69474   0.00000  Uiso   1.00
C142   C     0.76295   0.34423   0.59596   0.00000  Uiso   1.00
C143   C     0.75260   0.27365   0.50011   0.00000  Uiso   1.00
C144   C     0.82357   0.48321   0.59665   0.00000  Uiso   1.00
C145   C     0.85951   0.49743   0.69535   0.00000  Uiso   1.00
C146   C     0.89547   0.51175   0.59683   0.00000  Uiso   1.00
C147   C     0.96179   0.53814   0.50149   0.00000  Uiso   1.00
C148   C     0.74479   0.49477   0.59698   0.00000  Uiso   1.00
C149   C     0.71451   0.51873   0.69593   0.00000  Uiso   1.00
C150   C     0.68415   0.54279   0.59769   0.00000  Uiso   1.00
C151   C     0.62816   0.58714   0.50285   0.00000  Uiso   1.00
C152   C     0.78080   0.46637   0.32627   0.00000  Uiso   1.00
C153   C     0.77414   0.42085   0.40599   0.00000  Uiso   1.00
C154   C     0.76852   0.38265   0.30703   0.00000  Uiso   1.00
C155   C     0.76292   0.34432   0.40528   0.00000  Uiso   1.00
C156   C     0.82354   0.48330   0.40632   0.00000  Uiso   1.00
C157   C     0.85945   0.49760   0.30764   0.00000  Uiso   1.00
C158   C     0.89543   0.51184   0.40615   0.00000  Uiso   1.00
C159   C     0.74476   0.49486   0.40664   0.00000  Uiso   1.00
C160   C     0.71444   0.51890   0.30822   0.00000  Uiso   1.00
C161   C     0.68411   0.54288   0.40700   0.00000  Uiso   1.00
H162   H     0.78088   0.46615   0.82489   0.00000  Uiso   1.00
H163   H     0.76861   0.38243   0.84204   0.00000  Uiso   1.00
H164   H     0.85952   0.49737   0.84264   0.00000  Uiso   1.00
H165   H     0.71454   0.51866   0.84322   0.00000  Uiso   1.00
H166   H     0.75501   0.28964   0.77712   0.00000  Uiso   1.00
H167   H     0.94670   0.53201   0.77838   0.00000  Uiso   1.00
H168   H     0.64098   0.57690   0.77962   0.00000  Uiso   1.00
H169   H     0.78077   0.46644   0.17808   0.00000  Uiso   1.00
H170   H     0.76849   0.38273   0.15973   0.00000  Uiso   1.00
H171   H     0.85941   0.49767   0.16034   0.00000  Uiso   1.00
H172   H     0.71443   0.51895   0.16093   0.00000  Uiso   1.00
H173   H     0.75491   0.28988   0.22333   0.00000  Uiso   1.00
H174   H     0.94661   0.53225   0.22461   0.00000  Uiso   1.00
H175   H     0.64088   0.57714   0.22584   0.00000  Uiso   1.00
O176   O     0.74690   0.23469   0.49983   0.00000  Uiso   1.00
O177   O     0.99839   0.55267   0.50150   0.00000  Uiso   1.00
O178   O     0.59729   0.61157   0.50312   0.00000  Uiso   1.00
N179   N     0.75666   0.30119   0.64930   0.00000  Uiso   1.00
N180   N     0.93588   0.52778   0.65049   0.00000  Uiso   1.00
N181   N     0.65007   0.56976   0.65164   0.00000  Uiso   1.00
N182   N     0.75661   0.30132   0.35131   0.00000  Uiso   1.00
N183   N     0.93583   0.52791   0.35250   0.00000  Uiso   1.00
N184   N     0.65002   0.56989   0.35366   0.00000  Uiso   1.00
C185   C     0.46622   0.21915   0.32330   0.00000  Uiso   1.00
C186   C     0.42077   0.22583   0.40367   0.00000  Uiso   1.00
C187   C     0.38248   0.23142   0.30526   0.00000  Uiso   1.00
C188   C     0.34423   0.23705   0.40404   0.00000  Uiso   1.00
C189   C     0.27365   0.24740   0.49989   0.00000  Uiso   1.00
C190   C     0.48321   0.17643   0.40335   0.00000  Uiso   1.00
C191   C     0.49743   0.14049   0.30465   0.00000  Uiso   1.00
C192   C     0.51175   0.10453   0.40317   0.00000  Uiso   1.00
C193   C     0.53814   0.03821   0.49851   0.00000  Uiso   1.00
C194   C     0.49477   0.25521   0.40302   0.00000  Uiso   1.00
C195   C     0.51873   0.28549   0.30407   0.00000  Uiso   1.00
C196   C     0.54279   0.31585   0.40231   0.00000  Uiso   1.00
C197   C     0.58714   0.37184   0.49715   0.00000  Uiso   1.00
C198   C     0.46637   0.21920   0.67373   0.00000  Uiso   1.00
C199   C     0.42085   0.22586   0.59401   0.00000  Uiso   1.00
C200   C     0.38265   0.23148   0.69297   0.00000  Uiso   1.00
C201   C     0.34432   0.23708   0.59472   0.00000  Uiso   1.00
C202   C     0.48330   0.17646   0.59368   0.00000  Uiso   1.00
C203   C     0.49760   0.14055   0.69236   0.00000  Uiso   1.00
C204   C     0.51184   0.10457   0.59385   0.00000  Uiso   1.00
C205   C     0.49486   0.25524   0.59336   0.00000  Uiso   1.00
C206   C     0.51890   0.28556   0.69178   0.00000  Uiso   1.00
C207   C     0.54288   0.31589   0.59300   0.00000  Uiso   1.00
H208   H     0.46615   0.21912   0.17511   0.00000  Uiso   1.00
H209   H     0.38243   0.23139   0.15796   0.00000  Uiso   1.00
H210   H     0.49737   0.14048   0.15736   0.00000  Uiso   1.00
H211   H     0.51866   0.28546   0.15678   0.00000  Uiso   1.00
H212   H     0.28964   0.24499   0.22288   0.00000  Uiso   1.00
H213   H     0.53201   0.05330   0.22162   0.00000  Uiso   1.00
H214   H     0.57690   0.35902   0.22038   0.00000  Uiso   1.00
H215   H     0.46644   0.21923   0.82192   0.00000  Uiso   1.00
H216   H     0.38273   0.23151   0.84027   0.00000  Uiso   1.00
H217   H     0.49767   0.14059   0.83966   0.00000  Uiso   1.00
H218   H     0.51895   0.28557   0.83907   0.00000  Uiso   1.00
H219   H     0.28988   0.24509   0.77667   0.00000  Uiso   1.00
H220   H     0.53225   0.05339   0.77539   0.00000  Uiso   1.00
H221   H     0.57714   0.35912   0.77416   0.00000  Uiso   1.00
O222   O     0.23469   0.25310   0.50017   0.00000  Uiso   1.00
O223   O     0.55267   0.00161   0.49850   0.00000  Uiso   1.00
O224   O     0.61157   0.40271   0.49688   0.00000  Uiso   1.00
N225   N     0.30119   0.24334   0.35070   0.00000  Uiso   1.00
N226   N     0.52778   0.06412   0.34951   0.00000  Uiso   1.00
N227   N     0.56976   0.34993   0.34836   0.00000  Uiso   1.00
N228   N     0.30132   0.24339   0.64869   0.00000  Uiso   1.00
N229   N     0.52791   0.06417   0.64750   0.00000  Uiso   1.00
N230   N     0.56989   0.34998   0.64634   0.00000  Uiso   1.00
C231   C     0.53378   0.78085   0.32330   0.00000  Uiso   1.00
C232   C     0.57923   0.77417   0.40367   0.00000  Uiso   1.00
C233   C     0.61752   0.76858   0.30526   0.00000  Uiso   1.00
C234   C     0.65577   0.76295   0.40404   0.00000  Uiso   1.00
C235   C     0.72635   0.75260   0.49989   0.00000  Uiso   1.00
C236   C     0.51679   0.82357   0.40335   0.00000  Uiso   1.00
C237   C     0.50257   0.85951   0.30465   0.00000  Uiso   1.00
C238   C     0.48825   0.89547   0.40317   0.00000  Uiso   1.00
C239   C     0.46186   0.96179   0.49851   0.00000  Uiso   1.00
C240   C     0.50523   0.74479   0.40302   0.00000  Uiso   1.00
C241   C     0.48127   0.71451   0.30407   0.00000  Uiso   1.00
C242   C     0.45721   0.68415   0.40231   0.00000  Uiso   1.00
C243   C     0.41286   0.62816   0.49715   0.00000  Uiso   1.00
C244   C     0.53363   0.78080   0.67373   0.00000  Uiso   1.00
C245   C     0.57915   0.77414   0.59401   0.00000  Uiso   1.00
C246   C     0.61735   0.76852   0.69297   0.00000  Uiso   1.00
C247   C     0.65568   0.76292   0.59472   0.00000  Uiso   1.00
C248   C     0.51670   0.82354   0.59368   0.00000  Uiso   1.00
C249   C     0.50240   0.85945   0.69236   0.00000  Uiso   1.00
C250   C     0.48816   0.89543   0.59385   0.00000  Uiso   1.00
C251   C     0.50514   0.74476   0.59336   0.00000  Uiso   1.00
C252   C     0.48110   0.71444   0.69178   0.00000  Uiso   1.00
C253   C     0.45712   0.68411   0.59300   0.00000  Uiso   1.00
H254   H     0.53385   0.78088   0.17511   0.00000  Uiso   1.00
H255   H     0.61757   0.76861   0.15796   0.00000  Uiso   1.00
H256   H     0.50263   0.85952   0.15736   0.00000  Uiso   1.00
H257   H     0.48134   0.71454   0.15678   0.00000  Uiso   1.00
H258   H     0.71036   0.75501   0.22288   0.00000  Uiso   1.00
H259   H     0.46799   0.94670   0.22162   0.00000  Uiso   1.00
H260   H     0.42310   0.64098   0.22038   0.00000  Uiso   1.00
H261   H     0.53356   0.78077   0.82192   0.00000  Uiso   1.00
H262   H     0.61727   0.76849   0.84027   0.00000  Uiso   1.00
H263   H     0.50233   0.85941   0.83966   0.00000  Uiso   1.00
H264   H     0.48105   0.71443   0.83907   0.00000  Uiso   1.00
H265   H     0.71012   0.75491   0.77667   0.00000  Uiso   1.00
H266   H     0.46775   0.94661   0.77539   0.00000  Uiso   1.00
H267   H     0.42286   0.64088   0.77416   0.00000  Uiso   1.00
O268   O     0.76531   0.74690   0.50017   0.00000  Uiso   1.00
O269   O     0.44733   0.99839   0.49850   0.00000  Uiso   1.00
O270   O     0.38843   0.59729   0.49688   0.00000  Uiso   1.00
N271   N     0.69881   0.75666   0.35070   0.00000  Uiso   1.00
N272   N     0.47222   0.93588   0.34951   0.00000  Uiso   1.00
N273   N     0.43024   0.65007   0.34836   0.00000  Uiso   1.00
N274   N     0.69868   0.75661   0.64869   0.00000  Uiso   1.00
N275   N     0.47209   0.93583   0.64750   0.00000  Uiso   1.00
N276   N     0.43011   0.65002   0.64634   0.00000  Uiso   1.00
C277   C     0.28085   0.96622   0.82330   0.00000  Uiso   1.00
C278   C     0.27417   0.92077   0.90367   0.00000  Uiso   1.00
C279   C     0.26858   0.88248   0.80526   0.00000  Uiso   1.00
C280   C     0.26295   0.84423   0.90404   0.00000  Uiso   1.00
C281   C     0.25260   0.77365   0.99989   0.00000  Uiso   1.00
C282   C     0.32357   0.98321   0.90335   0.00000  Uiso   1.00
C283   C     0.35951   0.99743   0.80465   0.00000  Uiso   1.00
C284   C     0.39547   0.01175   0.90317   0.00000  Uiso   1.00
C285   C     0.46179   0.03814   0.99851   0.00000  Uiso   1.00
C286   C     0.24479   0.99477   0.90302   0.00000  Uiso   1.00
C287   C     0.21451   0.01873   0.80407   0.00000  Uiso   1.00
C288   C     0.18415   0.04279   0.90231   0.00000  Uiso   1.00
C289   C     0.12816   0.08714   0.99715   0.00000  Uiso   1.00
C290   C     0.28080   0.96637   0.17373   0.00000  Uiso   1.00
C291   C     0.27414   0.92085   0.09401   0.00000  Uiso   1.00
C292   C     0.26852   0.88265   0.19297   0.00000  Uiso   1.00
C293   C     0.26292   0.84432   0.09472   0.00000  Uiso   1.00
C294   C     0.32354   0.98330   0.09368   0.00000  Uiso   1.00
C295   C     0.35945   0.99760   0.19236   0.00000  Uiso   1.00
C296   C     0.39543   0.01184   0.09385   0.00000  Uiso   1.00
C297   C     0.24476   0.99486   0.09336   0.00000  Uiso   1.00
C298   C     0.21444   0.01890   0.19178   0.00000  Uiso   1.00
C299   C     0.18411   0.04288   0.09300   0.00000  Uiso   1.00
H300   H     0.28088   0.96615   0.67511   0.00000  Uiso   1.00
H301   H     0.26861   0.88243   0.65796   0.00000  Uiso   1.00
H302   H     0.35952   0.99737   0.65736   0.00000  Uiso   1.00
H303   H     0.21454   0.01866   0.65678   0.00000  Uiso   1.00
H304   H     0.25501   0.78964   0.72288   0.00000  Uiso   1.00
H305   H     0.44670   0.03201   0.72162   0.00000  Uiso   1.00
H306   H     0.14098   0.07690   0.72038   0.00000  Uiso   1.00
H307   H     0.28077   0.96644   0.32192   0.00000  Uiso   1.00
H308   H     0.26849   0.88273   0.34027   0.00000  Uiso   1.00
H309   H     0.35941   0.99767   0.33966   0.00000  Uiso   1.00
H310   H     0.21443   0.01895   0.33907   0.00000  Uiso   1.00
H311   H     0.25491   0.78988   0.27667   0.00000  Uiso   1.00
H312   H     0.44661   0.03225   0.27539   0.00000  Uiso   1.00
H313   H     0.14088   0.07714   0.27416   0.00000  Uiso   1.00
O314   O     0.24690   0.73469   0.00017   0.00000  Uiso   1.00
O315   O     0.49839   0.05267   0.99850   0.00000  Uiso   1.00
O316   O     0.09729   0.11157   0.99688   0.00000  Uiso   1.00
N317   N     0.25666   0.80119   0.85070   0.00000  Uiso   1.00
N318   N     0.43588   0.02778   0.84951   0.00000  Uiso   1.00
N319   N     0.15007   0.06976   0.84836   0.00000  Uiso   1.00
N320   N     0.25661   0.80132   0.14869   0.00000  Uiso   1.00
N321   N     0.43583   0.02791   0.14750   0.00000  Uiso   1.00
N322   N     0.15002   0.06989   0.14634   0.00000  Uiso   1.00
C323   C     0.71915   0.03378   0.82330   0.00000  Uiso   1.00
C324   C     0.72583   0.07923   0.90367   0.00000  Uiso   1.00
C325   C     0.73142   0.11752   0.80526   0.00000  Uiso   1.00
C326   C     0.73705   0.15577   0.90404   0.00000  Uiso   1.00
C327   C     0.74740   0.22635   0.99989   0.00000  Uiso   1.00
C328   C     0.67643   0.01679   0.90335   0.00000  Uiso   1.00
C329   C     0.64049   0.00257   0.80465   0.00000  Uiso   1.00
C330   C     0.60453   0.98825   0.90317   0.00000  Uiso   1.00
C331   C     0.53821   0.96186   0.99851   0.00000  Uiso   1.00
C332   C     0.75521   0.00523   0.90302   0.00000  Uiso   1.00
C333   C     0.78549   0.98127   0.80407   0.00000  Uiso   1.00
C334   C     0.81585   0.95721   0.90231   0.00000  Uiso   1.00
C335   C     0.87184   0.91286   0.99715   0.00000  Uiso   1.00
C336   C     0.71920   0.03363   0.17373   0.00000  Uiso   1.00
C337   C     0.72586   0.07915   0.09401   0.00000  Uiso   1.00
C338   C     0.73148   0.11735   0.19297   0.00000  Uiso   1.00
C339   C     0.73708   0.15568   0.09472   0.00000  Uiso   1.00
C340   C     0.67646   0.01670   0.09368   0.00000  Uiso   1.00
C341   C     0.64055   0.00240   0.19236   0.00000  Uiso   1.00
C342   C     0.60457   0.98816   0.09385   0.00000  Uiso   1.00
C343   C     0.75524   0.00514   0.09336   0.00000  Uiso   1.00
C344   C     0.78556   0.98110   0.19178   0.00000  Uiso   1.00
C345   C     0.81589   0.95712   0.09300   0.00000  Uiso   1.00
H346   H     0.71912   0.03385   0.67511   0.00000  Uiso   1.00
H347   H     0.73139   0.11757   0.65796   0.00000  Uiso   1.00
H348   H     0.64048   0.00263   0.65736   0.00000  Uiso   1.00
H349   H     0.78546   0.98134   0.65678   0.00000  Uiso   1.00
H350   H     0.74499   0.21036   0.72288   0.00000  Uiso   1.00
H351   H     0.55330   0.96799   0.72162   0.00000  Uiso   1.00
H352   H     0.85902   0.92310   0.72038   0.00000  Uiso   1.00
H353   H     0.71923   0.03356   0.32192   0.00000  Uiso   1.00
H354   H     0.73151   0.11727   0.34027   0.00000  Uiso   1.00
H355   H     0.64059   0.00233   0.33966   0.00000  Uiso   1.00
H356   H     0.78557   0.98105   0.33907   0.00000  Uiso   1.00
H357   H     0.74509   0.21012   0.27667   0.00000  Uiso   1.00
H358   H     0.55339   0.96775   0.27539   0.00000  Uiso   1.00
H359   H     0.85912   0.92286   0.27416   0.00000  Uiso   1.00
O360   O     0.75310   0.26531   0.00017   0.00000  Uiso   1.00
O361   O     0.50161   0.94733   0.99850   0.00000  Uiso   1.00
O362   O     0.90271   0.88843   0.99688   0.00000  Uiso   1.00
N363   N     0.74334   0.19881   0.85070   0.00000  Uiso   1.00
N364   N     0.56412   0.97222   0.84951   0.00000  Uiso   1.00
N365   N     0.84993   0.93024   0.84836   0.00000  Uiso   1.00
N366   N     0.74339   0.19868   0.14869   0.00000  Uiso   1.00
N367   N     0.56417   0.97209   0.14750   0.00000  Uiso   1.00
N368   N     0.84998   0.93011   0.14634   0.00000  Uiso   1.00
