data_job_06378
_audit_creation_date              2018-12-19
_audit_creation_method            'Materials Studio'
_symmetry_space_group_name_H-M    'P1'
_symmetry_Int_Tables_number       1
_symmetry_cell_setting            triclinic
loop_
_symmetry_equiv_pos_as_xyz
  x,y,z
_cell_length_a                    16.2748
_cell_length_b                    16.0844
_cell_length_c                    15.6014
_cell_angle_alpha                 97.2860
_cell_angle_beta                  96.7576
_cell_angle_gamma                 95.2736
loop_
_atom_site_label
_atom_site_type_symbol
_atom_site_fract_x
_atom_site_fract_y
_atom_site_fract_z
_atom_site_U_iso_or_equiv
_atom_site_adp_type
_atom_site_occupancy
C1     C     0.20930   0.63897   0.34231   0.00000  Uiso   1.00
C2     C     0.12692   0.67405   0.35471   0.00000  Uiso   1.00
C3     C     0.10740   0.75373   0.34024   0.00000  Uiso   1.00
C4     C     0.02873   0.77385   0.35536   0.00000  Uiso   1.00
C5     C     0.90951   0.83708   0.37031   0.00000  Uiso   1.00
C6     C     0.24153   0.61266   0.42954   0.00000  Uiso   1.00
C7     C     0.31838   0.64072   0.47798   0.00000  Uiso   1.00
C8     C     0.33618   0.60916   0.55609   0.00000  Uiso   1.00
C9     C     0.39492   0.57704   0.68719   0.00000  Uiso   1.00
C10    C     0.18749   0.55761   0.27873   0.00000  Uiso   1.00
C11    C     0.21891   0.53936   0.20037   0.00000  Uiso   1.00
C12    C     0.19124   0.46144   0.15152   0.00000  Uiso   1.00
C13    C     0.16608   0.34384   0.04845   0.00000  Uiso   1.00
C14    C     0.10430   0.53301   0.39491   0.00000  Uiso   1.00
C15    C     0.06989   0.61649   0.38328   0.00000  Uiso   1.00
C16    C     0.99123   0.63650   0.39843   0.00000  Uiso   1.00
C17    C     0.97159   0.71619   0.38398   0.00000  Uiso   1.00
C18    C     0.18450   0.55511   0.45811   0.00000  Uiso   1.00
C19    C     0.20220   0.52349   0.53617   0.00000  Uiso   1.00
C20    C     0.27905   0.55150   0.58471   0.00000  Uiso   1.00
C21    C     0.13045   0.50005   0.30730   0.00000  Uiso   1.00
C22    C     0.10274   0.42213   0.25856   0.00000  Uiso   1.00
C23    C     0.13411   0.40378   0.18014   0.00000  Uiso   1.00
H24    H     0.25370   0.68378   0.32007   0.00000  Uiso   1.00
H25    H     0.15156   0.79825   0.31813   0.00000  Uiso   1.00
H26    H     0.36250   0.68525   0.45585   0.00000  Uiso   1.00
H27    H     0.26305   0.58392   0.17828   0.00000  Uiso   1.00
H28    H     0.01317   0.89980   0.32862   0.00000  Uiso   1.00
H29    H     0.45796   0.66151   0.61898   0.00000  Uiso   1.00
H30    H     0.24826   0.44782   0.03367   0.00000  Uiso   1.00
H31    H     0.05989   0.48820   0.41715   0.00000  Uiso   1.00
H32    H     0.94710   0.59194   0.42054   0.00000  Uiso   1.00
H33    H     0.15805   0.47895   0.55825   0.00000  Uiso   1.00
H34    H     0.05860   0.37761   0.28069   0.00000  Uiso   1.00
H35    H     0.84723   0.73235   0.41173   0.00000  Uiso   1.00
H36    H     0.29203   0.49407   0.70210   0.00000  Uiso   1.00
H37    H     0.08232   0.28038   0.11679   0.00000  Uiso   1.00
O38    O     0.85951   0.88786   0.37068   0.00000  Uiso   1.00
O39    O     0.44307   0.57523   0.75161   0.00000  Uiso   1.00
O40    O     0.16794   0.29487   0.98371   0.00000  Uiso   1.00
N41    N     0.98958   0.84614   0.34769   0.00000  Uiso   1.00
N42    N     0.40544   0.62338   0.61917   0.00000  Uiso   1.00
N43    N     0.20940   0.42358   0.07197   0.00000  Uiso   1.00
N44    N     0.90029   0.75604   0.39242   0.00000  Uiso   1.00
N45    N     0.31615   0.53328   0.66390   0.00000  Uiso   1.00
N46    N     0.12011   0.33348   0.11670   0.00000  Uiso   1.00
C47    C     0.35658   0.21831   0.64996   0.00000  Uiso   1.00
C48    C     0.36936   0.13534   0.68469   0.00000  Uiso   1.00
C49    C     0.35523   0.11698   0.76661   0.00000  Uiso   1.00
C50    C     0.37067   0.03751   0.78597   0.00000  Uiso   1.00
C51    C     0.38622   0.91766   0.84910   0.00000  Uiso   1.00
C52    C     0.43983   0.24966   0.62320   0.00000  Uiso   1.00
C53    C     0.48494   0.32744   0.65342   0.00000  Uiso   1.00
C54    C     0.55970   0.34420   0.62101   0.00000  Uiso   1.00
C55    C     0.68462   0.40187   0.58863   0.00000  Uiso   1.00
C56    C     0.29656   0.19556   0.56573   0.00000  Uiso   1.00
C57    C     0.22122   0.22786   0.54761   0.00000  Uiso   1.00
C58    C     0.17536   0.19908   0.46680   0.00000  Uiso   1.00
C59    C     0.07783   0.17275   0.34519   0.00000  Uiso   1.00
C60    C     0.40912   0.10980   0.53866   0.00000  Uiso   1.00
C61    C     0.39790   0.07641   0.62423   0.00000  Uiso   1.00
C62    C     0.41336   0.99693   0.64347   0.00000  Uiso   1.00
C63    C     0.39926   0.97846   0.72540   0.00000  Uiso   1.00
C64    C     0.46837   0.19073   0.56275   0.00000  Uiso   1.00
C65    C     0.54307   0.20738   0.53028   0.00000  Uiso   1.00
C66    C     0.58829   0.28516   0.56044   0.00000  Uiso   1.00
C67    C     0.32510   0.13662   0.50528   0.00000  Uiso   1.00
C68    C     0.27935   0.10780   0.42447   0.00000  Uiso   1.00
C69    C     0.20395   0.14004   0.40623   0.00000  Uiso   1.00
H70    H     0.33436   0.26420   0.69703   0.00000  Uiso   1.00
H71    H     0.33315   0.16262   0.81338   0.00000  Uiso   1.00
H72    H     0.46283   0.37303   0.70020   0.00000  Uiso   1.00
H73    H     0.19915   0.27346   0.59441   0.00000  Uiso   1.00
H74    H     0.34442   0.02402   0.91572   0.00000  Uiso   1.00
H75    H     0.61786   0.46771   0.67706   0.00000  Uiso   1.00
H76    H     0.06183   0.25775   0.45397   0.00000  Uiso   1.00
H77    H     0.43134   0.06392   0.49160   0.00000  Uiso   1.00
H78    H     0.43545   0.95134   0.59667   0.00000  Uiso   1.00
H79    H     0.56514   0.16176   0.48350   0.00000  Uiso   1.00
H80    H     0.30146   0.06219   0.37771   0.00000  Uiso   1.00
H81    H     0.42746   0.85254   0.73984   0.00000  Uiso   1.00
H82    H     0.70089   0.29623   0.50117   0.00000  Uiso   1.00
H83    H     0.14486   0.08627   0.27809   0.00000  Uiso   1.00
O84    O     0.38692   0.86785   0.90062   0.00000  Uiso   1.00
O85    O     0.74564   0.44996   0.58749   0.00000  Uiso   1.00
O86    O     0.01615   0.17449   0.29481   0.00000  Uiso   1.00
N87    N     0.36338   0.99910   0.85990   0.00000  Uiso   1.00
N88    N     0.61904   0.41392   0.63677   0.00000  Uiso   1.00
N89    N     0.09921   0.21764   0.42820   0.00000  Uiso   1.00
N90    N     0.40806   0.90683   0.76526   0.00000  Uiso   1.00
N91    N     0.66372   0.32165   0.54213   0.00000  Uiso   1.00
N92    N     0.14389   0.12537   0.33356   0.00000  Uiso   1.00
C93    C     0.64177   0.35180   0.22063   0.00000  Uiso   1.00
C94    C     0.67540   0.36308   0.13516   0.00000  Uiso   1.00
C95    C     0.75416   0.34768   0.11581   0.00000  Uiso   1.00
C96    C     0.77302   0.36186   0.03402   0.00000  Uiso   1.00
C97    C     0.83407   0.37508   0.91049   0.00000  Uiso   1.00
C98    C     0.61477   0.43685   0.25451   0.00000  Uiso   1.00
C99    C     0.64255   0.48346   0.33550   0.00000  Uiso   1.00
C100   C     0.61036   0.55973   0.35418   0.00000  Uiso   1.00
C101   C     0.57722   0.68744   0.41595   0.00000  Uiso   1.00
C102   C     0.56211   0.29151   0.19627   0.00000  Uiso   1.00
C103   C     0.54559   0.21592   0.22831   0.00000  Uiso   1.00
C104   C     0.46905   0.16983   0.19796   0.00000  Uiso   1.00
C105   C     0.35415   0.07186   0.16931   0.00000  Uiso   1.00
C106   C     0.53521   0.40437   0.10979   0.00000  Uiso   1.00
C107   C     0.61752   0.39164   0.07496   0.00000  Uiso   1.00
C108   C     0.63627   0.40584   0.99318   0.00000  Uiso   1.00
C109   C     0.71504   0.39046   0.97371   0.00000  Uiso   1.00
C110   C     0.55690   0.46541   0.19431   0.00000  Uiso   1.00
C111   C     0.52465   0.54162   0.21287   0.00000  Uiso   1.00
C112   C     0.55237   0.58834   0.29387   0.00000  Uiso   1.00
C113   C     0.50423   0.32006   0.13606   0.00000  Uiso   1.00
C114   C     0.42770   0.27408   0.10567   0.00000  Uiso   1.00
C115   C     0.41107   0.19843   0.13765   0.00000  Uiso   1.00
H116   H     0.68683   0.32958   0.26751   0.00000  Uiso   1.00
H117   H     0.79894   0.32559   0.16243   0.00000  Uiso   1.00
H118   H     0.68733   0.46135   0.38208   0.00000  Uiso   1.00
H119   H     0.59039   0.19384   0.27490   0.00000  Uiso   1.00
H120   H     0.89772   0.33380   0.01939   0.00000  Uiso   1.00
H121   H     0.66237   0.62003   0.48255   0.00000  Uiso   1.00
H122   H     0.45795   0.05594   0.25654   0.00000  Uiso   1.00
H123   H     0.49015   0.42660   0.06292   0.00000  Uiso   1.00
H124   H     0.59146   0.42794   0.94660   0.00000  Uiso   1.00
H125   H     0.47986   0.56370   0.16626   0.00000  Uiso   1.00
H126   H     0.38292   0.29619   0.05908   0.00000  Uiso   1.00
H127   H     0.72933   0.41687   0.84422   0.00000  Uiso   1.00
H128   H     0.49397   0.70310   0.30739   0.00000  Uiso   1.00
H129   H     0.28956   0.13901   0.08137   0.00000  Uiso   1.00
O130   O     0.88373   0.37449   0.85899   0.00000  Uiso   1.00
O131   O     0.57495   0.75000   0.46666   0.00000  Uiso   1.00
O132   O     0.30677   0.00994   0.17013   0.00000  Uiso   1.00
N133   N     0.84418   0.35315   0.99412   0.00000  Uiso   1.00
N134   N     0.62415   0.62076   0.42715   0.00000  Uiso   1.00
N135   N     0.43303   0.09340   0.21586   0.00000  Uiso   1.00
N136   N     0.75357   0.39785   0.89986   0.00000  Uiso   1.00
N137   N     0.53354   0.66546   0.33289   0.00000  Uiso   1.00
N138   N     0.34242   0.13810   0.12160   0.00000  Uiso   1.00
C139   C     0.71477   0.85219   0.14865   0.00000  Uiso   1.00
C140   C     0.63264   0.86521   0.18376   0.00000  Uiso   1.00
C141   C     0.61414   0.85127   0.26570   0.00000  Uiso   1.00
C142   C     0.53552   0.86692   0.28543   0.00000  Uiso   1.00
C143   C     0.41681   0.88284   0.34910   0.00000  Uiso   1.00
C144   C     0.74580   0.93636   0.12210   0.00000  Uiso   1.00
C145   C     0.82245   0.98224   0.15219   0.00000  Uiso   1.00
C146   C     0.83909   0.05777   0.12001   0.00000  Uiso   1.00
C147   C     0.89609   0.18412   0.08791   0.00000  Uiso   1.00
C148   C     0.69274   0.79102   0.06427   0.00000  Uiso   1.00
C149   C     0.72480   0.71470   0.04572   0.00000  Uiso   1.00
C150   C     0.69679   0.66788   0.96483   0.00000  Uiso   1.00
C151   C     0.67142   0.56857   0.84293   0.00000  Uiso   1.00
C152   C     0.60804   0.90476   0.03799   0.00000  Uiso   1.00
C153   C     0.57467   0.89377   0.12365   0.00000  Uiso   1.00
C154   C     0.49605   0.90944   0.14326   0.00000  Uiso   1.00
C155   C     0.47744   0.89552   0.22521   0.00000  Uiso   1.00
C156   C     0.68783   0.96492   0.06200   0.00000  Uiso   1.00
C157   C     0.70436   0.04040   0.02976   0.00000  Uiso   1.00
C158   C     0.78101   0.08638   0.05980   0.00000  Uiso   1.00
C159   C     0.63477   0.81957   0.00416   0.00000  Uiso   1.00
C160   C     0.60671   0.77287   0.92329   0.00000  Uiso   1.00
C161   C     0.63871   0.69649   0.90462   0.00000  Uiso   1.00
H162   H     0.75991   0.82996   0.19545   0.00000  Uiso   1.00
H163   H     0.65902   0.82918   0.31220   0.00000  Uiso   1.00
H164   H     0.86730   0.96012   0.19870   0.00000  Uiso   1.00
H165   H     0.76967   0.69263   0.09225   0.00000  Uiso   1.00
H166   H     0.52161   0.84094   0.41514   0.00000  Uiso   1.00
H167   H     0.96079   0.11702   0.17581   0.00000  Uiso   1.00
H168   H     0.75491   0.55295   0.95132   0.00000  Uiso   1.00
H169   H     0.56291   0.92699   0.99119   0.00000  Uiso   1.00
H170   H     0.45120   0.93154   0.09673   0.00000  Uiso   1.00
H171   H     0.65948   0.06248   0.98324   0.00000  Uiso   1.00
H172   H     0.56185   0.79498   0.87679   0.00000  Uiso   1.00
H173   H     0.35294   0.92402   0.24026   0.00000  Uiso   1.00
H174   H     0.79212   0.20009   0.00093   0.00000  Uiso   1.00
H175   H     0.58624   0.63603   0.77645   0.00000  Uiso   1.00
O176   O     0.36736   0.88375   0.40083   0.00000  Uiso   1.00
O177   O     0.94355   0.24593   0.08682   0.00000  Uiso   1.00
O178   O     0.67344   0.50590   0.79230   0.00000  Uiso   1.00
N179   N     0.49724   0.85986   0.35949   0.00000  Uiso   1.00
N180   N     0.90784   0.11798   0.13574   0.00000  Uiso   1.00
N181   N     0.71538   0.59063   0.92586   0.00000  Uiso   1.00
N182   N     0.40648   0.90456   0.26539   0.00000  Uiso   1.00
N183   N     0.81708   0.16268   0.04164   0.00000  Uiso   1.00
N184   N     0.62462   0.63534   0.83176   0.00000  Uiso   1.00
C185   C     0.85630   0.14548   0.72205   0.00000  Uiso   1.00
C186   C     0.86781   0.17914   0.63667   0.00000  Uiso   1.00
C187   C     0.85261   0.25876   0.61769   0.00000  Uiso   1.00
C188   C     0.86697   0.27748   0.53592   0.00000  Uiso   1.00
C189   C     0.88054   0.33871   0.41258   0.00000  Uiso   1.00
C190   C     0.94019   0.11839   0.75548   0.00000  Uiso   1.00
C191   C     0.98584   0.14692   0.83640   0.00000  Uiso   1.00
C192   C     0.06113   0.11449   0.85465   0.00000  Uiso   1.00
C193   C     0.18705   0.08136   0.91578   0.00000  Uiso   1.00
C194   C     0.79692   0.06468   0.69760   0.00000  Uiso   1.00
C195   C     0.72211   0.04804   0.72988   0.00000  Uiso   1.00
C196   C     0.67678   0.97038   0.69941   0.00000  Uiso   1.00
C197   C     0.58024   0.85385   0.67068   0.00000  Uiso   1.00
C198   C     0.90884   0.03715   0.61057   0.00000  Uiso   1.00
C199   C     0.89635   0.12030   0.57612   0.00000  Uiso   1.00
C200   C     0.91074   0.13890   0.49435   0.00000  Uiso   1.00
C201   C     0.89556   0.21853   0.47526   0.00000  Uiso   1.00
C202   C     0.96873   0.05955   0.69493   0.00000  Uiso   1.00
C203   C     0.04397   0.02707   0.71306   0.00000  Uiso   1.00
C204   C     0.08972   0.05554   0.79399   0.00000  Uiso   1.00
C205   C     0.82545   0.00584   0.63705   0.00000  Uiso   1.00
C206   C     0.78024   0.92818   0.60653   0.00000  Uiso   1.00
C207   C     0.70538   0.91143   0.63875   0.00000  Uiso   1.00
H208   H     0.83408   0.19129   0.76919   0.00000  Uiso   1.00
H209   H     0.83053   0.30428   0.66458   0.00000  Uiso   1.00
H210   H     0.96373   0.19245   0.88325   0.00000  Uiso   1.00
H211   H     0.70004   0.09358   0.77673   0.00000  Uiso   1.00
H212   H     0.83920   0.40361   0.52189   0.00000  Uiso   1.00
H213   H     0.12006   0.16779   0.98299   0.00000  Uiso   1.00
H214   H     0.56401   0.95931   0.75839   0.00000  Uiso   1.00
H215   H     0.93106   0.99134   0.56343   0.00000  Uiso   1.00
H216   H     0.93282   0.09335   0.44751   0.00000  Uiso   1.00
H217   H     0.06603   0.98153   0.66619   0.00000  Uiso   1.00
H218   H     0.80234   0.88266   0.55967   0.00000  Uiso   1.00
H219   H     0.92223   0.23241   0.34572   0.00000  Uiso   1.00
H220   H     0.20309   0.99660   0.80682   0.00000  Uiso   1.00
H221   H     0.64705   0.78812   0.58221   0.00000  Uiso   1.00
O222   O     0.88015   0.38874   0.36128   0.00000  Uiso   1.00
O223   O     0.24862   0.07935   0.96623   0.00000  Uiso   1.00
O224   O     0.51910   0.80583   0.67155   0.00000  Uiso   1.00
N225   N     0.85848   0.34931   0.49633   0.00000  Uiso   1.00
N226   N     0.12108   0.12885   0.92743   0.00000  Uiso   1.00
N227   N     0.60123   0.93393   0.71746   0.00000  Uiso   1.00
N228   N     0.90316   0.25719   0.40153   0.00000  Uiso   1.00
N229   N     0.16575   0.03673   0.83263   0.00000  Uiso   1.00
N230   N     0.64591   0.84181   0.62266   0.00000  Uiso   1.00
C231   C     0.13657   0.71142   0.84220   0.00000  Uiso   1.00
C232   C     0.17124   0.62812   0.85414   0.00000  Uiso   1.00
C233   C     0.25005   0.60837   0.83927   0.00000  Uiso   1.00
C234   C     0.26993   0.52882   0.85400   0.00000  Uiso   1.00
C235   C     0.33244   0.40827   0.86822   0.00000  Uiso   1.00
C236   C     0.11015   0.74442   0.92967   0.00000  Uiso   1.00
C237   C     0.13757   0.82246   0.97830   0.00000  Uiso   1.00
C238   C     0.10602   0.84082   0.05662   0.00000  Uiso   1.00
C239   C     0.07362   0.90086   0.18808   0.00000  Uiso   1.00
C240   C     0.05650   0.68897   0.77886   0.00000  Uiso   1.00
C241   C     0.03881   0.72040   0.70069   0.00000  Uiso   1.00
C242   C     0.96208   0.69209   0.65204   0.00000  Uiso   1.00
C243   C     0.84639   0.66603   0.54934   0.00000  Uiso   1.00
C244   C     0.03175   0.60528   0.89480   0.00000  Uiso   1.00
C245   C     0.11430   0.57047   0.88271   0.00000  Uiso   1.00
C246   C     0.13407   0.49094   0.89746   0.00000  Uiso   1.00
C247   C     0.21289   0.47107   0.88261   0.00000  Uiso   1.00
C248   C     0.05321   0.68678   0.95824   0.00000  Uiso   1.00
C249   C     0.02160   0.70503   0.03650   0.00000  Uiso   1.00
C250   C     0.04898   0.78307   0.08524   0.00000  Uiso   1.00
C251   C     0.99956   0.63132   0.80742   0.00000  Uiso   1.00
C252   C     0.92284   0.60296   0.75888   0.00000  Uiso   1.00
C253   C     0.90504   0.63434   0.68066   0.00000  Uiso   1.00
H254   H     0.18090   0.75630   0.81997   0.00000  Uiso   1.00
H255   H     0.29409   0.65300   0.81717   0.00000  Uiso   1.00
H256   H     0.18163   0.86706   0.95618   0.00000  Uiso   1.00
H257   H     0.08289   0.76501   0.67861   0.00000  Uiso   1.00
H258   H     0.39449   0.51306   0.82669   0.00000  Uiso   1.00
H259   H     0.15734   0.96444   0.11978   0.00000  Uiso   1.00
H260   H     0.94911   0.74924   0.53448   0.00000  Uiso   1.00
H261   H     0.98742   0.56040   0.91705   0.00000  Uiso   1.00
H262   H     0.09000   0.44634   0.91957   0.00000  Uiso   1.00
H263   H     0.97753   0.66041   0.05858   0.00000  Uiso   1.00
H264   H     0.87879   0.55835   0.78101   0.00000  Uiso   1.00
H265   H     0.22884   0.34532   0.90981   0.00000  Uiso   1.00
H266   H     0.99168   0.79671   0.20290   0.00000  Uiso   1.00
H267   H     0.78346   0.58151   0.61759   0.00000  Uiso   1.00
O268   O     0.38265   0.35771   0.86819   0.00000  Uiso   1.00
O269   O     0.07150   0.94990   0.25270   0.00000  Uiso   1.00
O270   O     0.79832   0.66757   0.48479   0.00000  Uiso   1.00
N271   N     0.34142   0.48923   0.84589   0.00000  Uiso   1.00
N272   N     0.11971   0.91124   0.11992   0.00000  Uiso   1.00
N273   N     0.92503   0.71006   0.57272   0.00000  Uiso   1.00
N274   N     0.25229   0.39897   0.89061   0.00000  Uiso   1.00
N275   N     0.03057   0.82098   0.16465   0.00000  Uiso   1.00
N276   N     0.83589   0.61981   0.61744   0.00000  Uiso   1.00
