data_job_00344
_audit_creation_date              2018-12-19
_audit_creation_method            'Materials Studio'
_symmetry_space_group_name_H-M    'P1'
_symmetry_Int_Tables_number       1
_symmetry_cell_setting            triclinic
loop_
_symmetry_equiv_pos_as_xyz
  x,y,z
_cell_length_a                    10.9704
_cell_length_b                    16.0187
_cell_length_c                    15.2599
_cell_angle_alpha                 90.0000
_cell_angle_beta                  127.5294
_cell_angle_gamma                 90.0000
loop_
_atom_site_label
_atom_site_type_symbol
_atom_site_fract_x
_atom_site_fract_y
_atom_site_fract_z
_atom_site_U_iso_or_equiv
_atom_site_adp_type
_atom_site_occupancy
C1     C     0.76913   0.67816   0.46947   0.00000  Uiso   1.00
C2     C     0.72285   0.76883   0.46444   0.00000  Uiso   1.00
C3     C     0.58463   0.80495   0.37896   0.00000  Uiso   1.00
C4     C     0.56429   0.88880   0.38994   0.00000  Uiso   1.00
C5     C     0.47514   0.02259   0.36793   0.00000  Uiso   1.00
C6     C     0.92013   0.68101   0.48495   0.00000  Uiso   1.00
C7     C     0.94778   0.64329   0.41672   0.00000  Uiso   1.00
C8     C     0.09353   0.65321   0.44498   0.00000  Uiso   1.00
C9     C     0.31069   0.65062   0.45486   0.00000  Uiso   1.00
C10    C     0.80811   0.64268   0.57657   0.00000  Uiso   1.00
C11    C     0.74160   0.57271   0.58537   0.00000  Uiso   1.00
C12    C     0.79307   0.55035   0.69078   0.00000  Uiso   1.00
C13    C     0.83630   0.48825   0.84291   0.00000  Uiso   1.00
C14    C     0.97882   0.76285   0.64100   0.00000  Uiso   1.00
C15    C     0.83675   0.81482   0.55761   0.00000  Uiso   1.00
C16    C     0.81662   0.89864   0.56873   0.00000  Uiso   1.00
C17    C     0.67839   0.93488   0.48328   0.00000  Uiso   1.00
C18    C     0.03403   0.72701   0.57812   0.00000  Uiso   1.00
C19    C     0.17978   0.73699   0.60649   0.00000  Uiso   1.00
C20    C     0.20763   0.69929   0.53832   0.00000  Uiso   1.00
C21    C     0.92201   0.68868   0.66974   0.00000  Uiso   1.00
C22    C     0.97360   0.66642   0.77515   0.00000  Uiso   1.00
C23    C     0.90717   0.59643   0.78412   0.00000  Uiso   1.00
H24    H     0.68046   0.64235   0.39694   0.00000  Uiso   1.00
H25    H     0.49652   0.76933   0.30686   0.00000  Uiso   1.00
H26    H     0.85962   0.60769   0.34463   0.00000  Uiso   1.00
H27    H     0.65347   0.53713   0.51326   0.00000  Uiso   1.00
H28    H     0.34283   0.93040   0.24807   0.00000  Uiso   1.00
H29    H     0.10846   0.58956   0.32772   0.00000  Uiso   1.00
H30    H     0.67376   0.44077   0.68331   0.00000  Uiso   1.00
H31    H     0.06750   0.79866   0.71354   0.00000  Uiso   1.00
H32    H     0.90479   0.93422   0.64084   0.00000  Uiso   1.00
H33    H     0.26789   0.77258   0.67860   0.00000  Uiso   1.00
H34    H     0.06174   0.70203   0.84723   0.00000  Uiso   1.00
H35    H     0.67420   0.06424   0.51913   0.00000  Uiso   1.00
H36    H     0.43984   0.72339   0.59878   0.00000  Uiso   1.00
H37    H     0.00513   0.57461   0.95438   0.00000  Uiso   1.00
O38    O     0.39451   0.08369   0.33005   0.00000  Uiso   1.00
O39    O     0.39900   0.63649   0.43455   0.00000  Uiso   1.00
O40    O     0.82867   0.44129   0.90108   0.00000  Uiso   1.00
N41    N     0.44313   0.94329   0.32185   0.00000  Uiso   1.00
N42    N     0.15895   0.62463   0.39631   0.00000  Uiso   1.00
N43    N     0.75256   0.48552   0.72876   0.00000  Uiso   1.00
N44    N     0.62144   0.01531   0.46771   0.00000  Uiso   1.00
N45    N     0.33726   0.69665   0.54217   0.00000  Uiso   1.00
N46    N     0.93087   0.55753   0.87462   0.00000  Uiso   1.00
C47    C     0.23087   0.17816   0.03053   0.00000  Uiso   1.00
C48    C     0.27715   0.26883   0.03556   0.00000  Uiso   1.00
C49    C     0.41537   0.30495   0.12104   0.00000  Uiso   1.00
C50    C     0.43571   0.38880   0.11006   0.00000  Uiso   1.00
C51    C     0.52486   0.52259   0.13207   0.00000  Uiso   1.00
C52    C     0.07987   0.18101   0.01505   0.00000  Uiso   1.00
C53    C     0.05222   0.14329   0.08328   0.00000  Uiso   1.00
C54    C     0.90647   0.15321   0.05502   0.00000  Uiso   1.00
C55    C     0.68931   0.15062   0.04514   0.00000  Uiso   1.00
C56    C     0.19189   0.14268   0.92343   0.00000  Uiso   1.00
C57    C     0.25840   0.07271   0.91463   0.00000  Uiso   1.00
C58    C     0.20693   0.05035   0.80922   0.00000  Uiso   1.00
C59    C     0.16370   0.98825   0.65709   0.00000  Uiso   1.00
C60    C     0.02118   0.26285   0.85900   0.00000  Uiso   1.00
C61    C     0.16325   0.31482   0.94239   0.00000  Uiso   1.00
C62    C     0.18338   0.39864   0.93127   0.00000  Uiso   1.00
C63    C     0.32161   0.43488   0.01672   0.00000  Uiso   1.00
C64    C     0.96597   0.22701   0.92188   0.00000  Uiso   1.00
C65    C     0.82022   0.23699   0.89351   0.00000  Uiso   1.00
C66    C     0.79237   0.19929   0.96168   0.00000  Uiso   1.00
C67    C     0.07799   0.18868   0.83026   0.00000  Uiso   1.00
C68    C     0.02640   0.16642   0.72485   0.00000  Uiso   1.00
C69    C     0.09283   0.09643   0.71588   0.00000  Uiso   1.00
H70    H     0.31954   0.14235   0.10306   0.00000  Uiso   1.00
H71    H     0.50348   0.26933   0.19314   0.00000  Uiso   1.00
H72    H     0.14038   0.10769   0.15537   0.00000  Uiso   1.00
H73    H     0.34653   0.03713   0.98674   0.00000  Uiso   1.00
H74    H     0.65717   0.43040   0.25193   0.00000  Uiso   1.00
H75    H     0.89154   0.08956   0.17228   0.00000  Uiso   1.00
H76    H     0.32624   0.94077   0.81669   0.00000  Uiso   1.00
H77    H     0.93250   0.29866   0.78646   0.00000  Uiso   1.00
H78    H     0.09521   0.43422   0.85916   0.00000  Uiso   1.00
H79    H     0.73211   0.27258   0.82140   0.00000  Uiso   1.00
H80    H     0.93826   0.20203   0.65277   0.00000  Uiso   1.00
H81    H     0.32580   0.56424   0.98087   0.00000  Uiso   1.00
H82    H     0.56016   0.22339   0.90122   0.00000  Uiso   1.00
H83    H     0.99487   0.07461   0.54562   0.00000  Uiso   1.00
O84    O     0.60549   0.58369   0.16995   0.00000  Uiso   1.00
O85    O     0.60100   0.13649   0.06545   0.00000  Uiso   1.00
O86    O     0.17133   0.94129   0.59892   0.00000  Uiso   1.00
N87    N     0.55687   0.44329   0.17815   0.00000  Uiso   1.00
N88    N     0.84105   0.12463   0.10369   0.00000  Uiso   1.00
N89    N     0.24744   0.98552   0.77124   0.00000  Uiso   1.00
N90    N     0.37856   0.51531   0.03229   0.00000  Uiso   1.00
N91    N     0.66274   0.19665   0.95783   0.00000  Uiso   1.00
N92    N     0.06913   0.05753   0.62538   0.00000  Uiso   1.00
C93    C     0.23087   0.32184   0.53053   0.00000  Uiso   1.00
C94    C     0.27715   0.23117   0.53556   0.00000  Uiso   1.00
C95    C     0.41537   0.19505   0.62104   0.00000  Uiso   1.00
C96    C     0.43571   0.11120   0.61006   0.00000  Uiso   1.00
C97    C     0.52486   0.97741   0.63207   0.00000  Uiso   1.00
C98    C     0.07987   0.31899   0.51505   0.00000  Uiso   1.00
C99    C     0.05222   0.35671   0.58328   0.00000  Uiso   1.00
C100   C     0.90647   0.34679   0.55502   0.00000  Uiso   1.00
C101   C     0.68931   0.34938   0.54514   0.00000  Uiso   1.00
C102   C     0.19189   0.35732   0.42343   0.00000  Uiso   1.00
C103   C     0.25840   0.42729   0.41463   0.00000  Uiso   1.00
C104   C     0.20693   0.44965   0.30922   0.00000  Uiso   1.00
C105   C     0.16370   0.51175   0.15709   0.00000  Uiso   1.00
C106   C     0.02118   0.23715   0.35900   0.00000  Uiso   1.00
C107   C     0.16325   0.18518   0.44239   0.00000  Uiso   1.00
C108   C     0.18338   0.10136   0.43127   0.00000  Uiso   1.00
C109   C     0.32161   0.06512   0.51672   0.00000  Uiso   1.00
C110   C     0.96597   0.27299   0.42188   0.00000  Uiso   1.00
C111   C     0.82022   0.26301   0.39351   0.00000  Uiso   1.00
C112   C     0.79237   0.30071   0.46168   0.00000  Uiso   1.00
C113   C     0.07799   0.31132   0.33026   0.00000  Uiso   1.00
C114   C     0.02640   0.33358   0.22485   0.00000  Uiso   1.00
C115   C     0.09283   0.40357   0.21588   0.00000  Uiso   1.00
H116   H     0.31954   0.35765   0.60306   0.00000  Uiso   1.00
H117   H     0.50348   0.23067   0.69314   0.00000  Uiso   1.00
H118   H     0.14038   0.39231   0.65537   0.00000  Uiso   1.00
H119   H     0.34653   0.46287   0.48674   0.00000  Uiso   1.00
H120   H     0.65717   0.06960   0.75193   0.00000  Uiso   1.00
H121   H     0.89154   0.41044   0.67228   0.00000  Uiso   1.00
H122   H     0.32624   0.55923   0.31669   0.00000  Uiso   1.00
H123   H     0.93250   0.20134   0.28646   0.00000  Uiso   1.00
H124   H     0.09521   0.06578   0.35916   0.00000  Uiso   1.00
H125   H     0.73211   0.22742   0.32140   0.00000  Uiso   1.00
H126   H     0.93826   0.29797   0.15277   0.00000  Uiso   1.00
H127   H     0.32580   0.93576   0.48087   0.00000  Uiso   1.00
H128   H     0.56016   0.27661   0.40122   0.00000  Uiso   1.00
H129   H     0.99487   0.42539   0.04562   0.00000  Uiso   1.00
O130   O     0.60549   0.91631   0.66995   0.00000  Uiso   1.00
O131   O     0.60100   0.36351   0.56545   0.00000  Uiso   1.00
O132   O     0.17133   0.55871   0.09892   0.00000  Uiso   1.00
N133   N     0.55687   0.05671   0.67815   0.00000  Uiso   1.00
N134   N     0.84105   0.37537   0.60369   0.00000  Uiso   1.00
N135   N     0.24744   0.51448   0.27124   0.00000  Uiso   1.00
N136   N     0.37856   0.98469   0.53229   0.00000  Uiso   1.00
N137   N     0.66274   0.30335   0.45783   0.00000  Uiso   1.00
N138   N     0.06913   0.44247   0.12538   0.00000  Uiso   1.00
C139   C     0.76913   0.82184   0.96947   0.00000  Uiso   1.00
C140   C     0.72285   0.73117   0.96444   0.00000  Uiso   1.00
C141   C     0.58463   0.69505   0.87896   0.00000  Uiso   1.00
C142   C     0.56429   0.61120   0.88994   0.00000  Uiso   1.00
C143   C     0.47514   0.47741   0.86793   0.00000  Uiso   1.00
C144   C     0.92013   0.81899   0.98495   0.00000  Uiso   1.00
C145   C     0.94778   0.85671   0.91672   0.00000  Uiso   1.00
C146   C     0.09353   0.84679   0.94498   0.00000  Uiso   1.00
C147   C     0.31069   0.84938   0.95486   0.00000  Uiso   1.00
C148   C     0.80811   0.85732   0.07657   0.00000  Uiso   1.00
C149   C     0.74160   0.92729   0.08537   0.00000  Uiso   1.00
C150   C     0.79307   0.94965   0.19078   0.00000  Uiso   1.00
C151   C     0.83630   0.01175   0.34291   0.00000  Uiso   1.00
C152   C     0.97882   0.73715   0.14100   0.00000  Uiso   1.00
C153   C     0.83675   0.68518   0.05761   0.00000  Uiso   1.00
C154   C     0.81662   0.60136   0.06873   0.00000  Uiso   1.00
C155   C     0.67839   0.56512   0.98328   0.00000  Uiso   1.00
C156   C     0.03403   0.77299   0.07812   0.00000  Uiso   1.00
C157   C     0.17978   0.76301   0.10649   0.00000  Uiso   1.00
C158   C     0.20763   0.80071   0.03832   0.00000  Uiso   1.00
C159   C     0.92201   0.81132   0.16974   0.00000  Uiso   1.00
C160   C     0.97360   0.83358   0.27515   0.00000  Uiso   1.00
C161   C     0.90717   0.90357   0.28412   0.00000  Uiso   1.00
H162   H     0.68046   0.85765   0.89694   0.00000  Uiso   1.00
H163   H     0.49652   0.73067   0.80686   0.00000  Uiso   1.00
H164   H     0.85962   0.89231   0.84463   0.00000  Uiso   1.00
H165   H     0.65347   0.96287   0.01326   0.00000  Uiso   1.00
H166   H     0.34283   0.56960   0.74807   0.00000  Uiso   1.00
H167   H     0.10846   0.91044   0.82772   0.00000  Uiso   1.00
H168   H     0.67376   0.05923   0.18331   0.00000  Uiso   1.00
H169   H     0.06750   0.70134   0.21354   0.00000  Uiso   1.00
H170   H     0.90479   0.56578   0.14084   0.00000  Uiso   1.00
H171   H     0.26789   0.72742   0.17860   0.00000  Uiso   1.00
H172   H     0.06174   0.79797   0.34723   0.00000  Uiso   1.00
H173   H     0.67420   0.43576   0.01913   0.00000  Uiso   1.00
H174   H     0.43984   0.77661   0.09878   0.00000  Uiso   1.00
H175   H     0.00513   0.92539   0.45438   0.00000  Uiso   1.00
O176   O     0.39451   0.41631   0.83005   0.00000  Uiso   1.00
O177   O     0.39900   0.86351   0.93455   0.00000  Uiso   1.00
O178   O     0.82867   0.05871   0.40108   0.00000  Uiso   1.00
N179   N     0.44313   0.55671   0.82185   0.00000  Uiso   1.00
N180   N     0.15895   0.87537   0.89631   0.00000  Uiso   1.00
N181   N     0.75256   0.01448   0.22876   0.00000  Uiso   1.00
N182   N     0.62144   0.48469   0.96771   0.00000  Uiso   1.00
N183   N     0.33726   0.80335   0.04217   0.00000  Uiso   1.00
N184   N     0.93087   0.94247   0.37462   0.00000  Uiso   1.00
