data_job_03911
_audit_creation_date              2018-12-19
_audit_creation_method            'Materials Studio'
_symmetry_space_group_name_H-M    'P1'
_symmetry_Int_Tables_number       1
_symmetry_cell_setting            triclinic
loop_
_symmetry_equiv_pos_as_xyz
  x,y,z
_cell_length_a                    20.4896
_cell_length_b                    17.8536
_cell_length_c                    7.5036
_cell_angle_alpha                 90.0000
_cell_angle_beta                  90.0000
_cell_angle_gamma                 90.0000
loop_
_atom_site_label
_atom_site_type_symbol
_atom_site_fract_x
_atom_site_fract_y
_atom_site_fract_z
_atom_site_U_iso_or_equiv
_atom_site_adp_type
_atom_site_occupancy
C1     C     0.72774   0.81343   0.33332   0.00000  Uiso   1.00
C2     C     0.68091   0.74705   0.33015   0.00000  Uiso   1.00
C3     C     0.66001   0.70933   0.17884   0.00000  Uiso   1.00
C4     C     0.61712   0.65007   0.20402   0.00000  Uiso   1.00
C5     C     0.54761   0.55018   0.17316   0.00000  Uiso   1.00
C6     C     0.69177   0.87639   0.42929   0.00000  Uiso   1.00
C7     C     0.68001   0.94742   0.36135   0.00000  Uiso   1.00
C8     C     0.64626   0.99704   0.47001   0.00000  Uiso   1.00
C9     C     0.59365   0.09798   0.59312   0.00000  Uiso   1.00
C10    C     0.78379   0.79069   0.45557   0.00000  Uiso   1.00
C11    C     0.84940   0.78967   0.40975   0.00000  Uiso   1.00
C12    C     0.89313   0.76715   0.54055   0.00000  Uiso   1.00
C13    C     0.98339   0.73501   0.70446   0.00000  Uiso   1.00
C14    C     0.68872   0.77526   0.64712   0.00000  Uiso   1.00
C15    C     0.65972   0.72632   0.50059   0.00000  Uiso   1.00
C16    C     0.61685   0.66710   0.52601   0.00000  Uiso   1.00
C17    C     0.59589   0.62930   0.37477   0.00000  Uiso   1.00
C18    C     0.67058   0.85566   0.59973   0.00000  Uiso   1.00
C19    C     0.63685   0.90519   0.70853   0.00000  Uiso   1.00
C20    C     0.62503   0.97628   0.64076   0.00000  Uiso   1.00
C21    C     0.76260   0.76995   0.62601   0.00000  Uiso   1.00
C22    C     0.80623   0.74743   0.75692   0.00000  Uiso   1.00
C23    C     0.87190   0.74638   0.71130   0.00000  Uiso   1.00
H24    H     0.74423   0.82958   0.20063   0.00000  Uiso   1.00
H25    H     0.67642   0.72540   0.04696   0.00000  Uiso   1.00
H26    H     0.69642   0.96345   0.22945   0.00000  Uiso   1.00
H27    H     0.86578   0.80572   0.27784   0.00000  Uiso   1.00
H28    H     0.59187   0.60078   0.95174   0.00000  Uiso   1.00
H29    H     0.63407   0.10274   0.33656   0.00000  Uiso   1.00
H30    H     0.99120   0.77013   0.43859   0.00000  Uiso   1.00
H31    H     0.67222   0.75912   0.77982   0.00000  Uiso   1.00
H32    H     0.60046   0.65107   0.65793   0.00000  Uiso   1.00
H33    H     0.62046   0.88913   0.84042   0.00000  Uiso   1.00
H34    H     0.78982   0.73139   0.88880   0.00000  Uiso   1.00
H35    H     0.53021   0.54045   0.44762   0.00000  Uiso   1.00
H36    H     0.57241   0.04241   0.83245   0.00000  Uiso   1.00
H37    H     0.92954   0.70980   0.93448   0.00000  Uiso   1.00
O38    O     0.51512   0.50082   0.10904   0.00000  Uiso   1.00
O39    O     0.57048   0.15938   0.61393   0.00000  Uiso   1.00
O40    O     0.03903   0.72300   0.74778   0.00000  Uiso   1.00
N41    N     0.58722   0.60140   0.08518   0.00000  Uiso   1.00
N42    N     0.62666   0.07070   0.44495   0.00000  Uiso   1.00
N43    N     0.96055   0.75975   0.54036   0.00000  Uiso   1.00
N44    N     0.55404   0.56893   0.35201   0.00000  Uiso   1.00
N45    N     0.59348   0.03823   0.71179   0.00000  Uiso   1.00
N46    N     0.92737   0.72729   0.80719   0.00000  Uiso   1.00
C47    C     0.27226   0.18657   0.83332   0.00000  Uiso   1.00
C48    C     0.31909   0.25295   0.83015   0.00000  Uiso   1.00
C49    C     0.33999   0.29067   0.67884   0.00000  Uiso   1.00
C50    C     0.38288   0.34993   0.70402   0.00000  Uiso   1.00
C51    C     0.45239   0.44982   0.67316   0.00000  Uiso   1.00
C52    C     0.30823   0.12361   0.92929   0.00000  Uiso   1.00
C53    C     0.31999   0.05258   0.86135   0.00000  Uiso   1.00
C54    C     0.35374   0.00296   0.97001   0.00000  Uiso   1.00
C55    C     0.40635   0.90202   0.09312   0.00000  Uiso   1.00
C56    C     0.21621   0.20931   0.95557   0.00000  Uiso   1.00
C57    C     0.15060   0.21033   0.90975   0.00000  Uiso   1.00
C58    C     0.10687   0.23285   0.04055   0.00000  Uiso   1.00
C59    C     0.01661   0.26499   0.20446   0.00000  Uiso   1.00
C60    C     0.31128   0.22474   0.14712   0.00000  Uiso   1.00
C61    C     0.34028   0.27368   0.00059   0.00000  Uiso   1.00
C62    C     0.38315   0.33290   0.02601   0.00000  Uiso   1.00
C63    C     0.40411   0.37070   0.87477   0.00000  Uiso   1.00
C64    C     0.32942   0.14434   0.09973   0.00000  Uiso   1.00
C65    C     0.36315   0.09481   0.20853   0.00000  Uiso   1.00
C66    C     0.37497   0.02372   0.14076   0.00000  Uiso   1.00
C67    C     0.23740   0.23005   0.12601   0.00000  Uiso   1.00
C68    C     0.19377   0.25257   0.25692   0.00000  Uiso   1.00
C69    C     0.12810   0.25362   0.21130   0.00000  Uiso   1.00
H70    H     0.25577   0.17042   0.70063   0.00000  Uiso   1.00
H71    H     0.32358   0.27460   0.54696   0.00000  Uiso   1.00
H72    H     0.30358   0.03655   0.72945   0.00000  Uiso   1.00
H73    H     0.13422   0.19428   0.77784   0.00000  Uiso   1.00
H74    H     0.40813   0.39922   0.45174   0.00000  Uiso   1.00
H75    H     0.36593   0.89726   0.83656   0.00000  Uiso   1.00
H76    H     0.00880   0.22987   0.93859   0.00000  Uiso   1.00
H77    H     0.32778   0.24088   0.27982   0.00000  Uiso   1.00
H78    H     0.39954   0.34893   0.15793   0.00000  Uiso   1.00
H79    H     0.37954   0.11087   0.34042   0.00000  Uiso   1.00
H80    H     0.21018   0.26861   0.38880   0.00000  Uiso   1.00
H81    H     0.46979   0.45955   0.94762   0.00000  Uiso   1.00
H82    H     0.42759   0.95759   0.33245   0.00000  Uiso   1.00
H83    H     0.07046   0.29020   0.43448   0.00000  Uiso   1.00
O84    O     0.48488   0.49918   0.60904   0.00000  Uiso   1.00
O85    O     0.42952   0.84062   0.11393   0.00000  Uiso   1.00
O86    O     0.96097   0.27700   0.24778   0.00000  Uiso   1.00
N87    N     0.41278   0.39860   0.58518   0.00000  Uiso   1.00
N88    N     0.37334   0.92930   0.94495   0.00000  Uiso   1.00
N89    N     0.03945   0.24025   0.04036   0.00000  Uiso   1.00
N90    N     0.44596   0.43107   0.85201   0.00000  Uiso   1.00
N91    N     0.40652   0.96177   0.21179   0.00000  Uiso   1.00
N92    N     0.07263   0.27271   0.30719   0.00000  Uiso   1.00
C93    C     0.22774   0.68657   0.33332   0.00000  Uiso   1.00
C94    C     0.18091   0.75295   0.33015   0.00000  Uiso   1.00
C95    C     0.16001   0.79067   0.17884   0.00000  Uiso   1.00
C96    C     0.11712   0.84993   0.20402   0.00000  Uiso   1.00
C97    C     0.04761   0.94982   0.17316   0.00000  Uiso   1.00
C98    C     0.19177   0.62361   0.42929   0.00000  Uiso   1.00
C99    C     0.18001   0.55258   0.36135   0.00000  Uiso   1.00
C100   C     0.14626   0.50296   0.47001   0.00000  Uiso   1.00
C101   C     0.09365   0.40202   0.59312   0.00000  Uiso   1.00
C102   C     0.28379   0.70931   0.45557   0.00000  Uiso   1.00
C103   C     0.34940   0.71033   0.40975   0.00000  Uiso   1.00
C104   C     0.39313   0.73285   0.54055   0.00000  Uiso   1.00
C105   C     0.48339   0.76499   0.70446   0.00000  Uiso   1.00
C106   C     0.18872   0.72474   0.64712   0.00000  Uiso   1.00
C107   C     0.15972   0.77368   0.50059   0.00000  Uiso   1.00
C108   C     0.11685   0.83290   0.52601   0.00000  Uiso   1.00
C109   C     0.09589   0.87070   0.37477   0.00000  Uiso   1.00
C110   C     0.17058   0.64434   0.59973   0.00000  Uiso   1.00
C111   C     0.13685   0.59481   0.70853   0.00000  Uiso   1.00
C112   C     0.12503   0.52372   0.64076   0.00000  Uiso   1.00
C113   C     0.26260   0.73005   0.62601   0.00000  Uiso   1.00
C114   C     0.30623   0.75257   0.75692   0.00000  Uiso   1.00
C115   C     0.37190   0.75362   0.71130   0.00000  Uiso   1.00
H116   H     0.24423   0.67042   0.20063   0.00000  Uiso   1.00
H117   H     0.17642   0.77460   0.04696   0.00000  Uiso   1.00
H118   H     0.19642   0.53655   0.22945   0.00000  Uiso   1.00
H119   H     0.36578   0.69428   0.27784   0.00000  Uiso   1.00
H120   H     0.09187   0.89922   0.95174   0.00000  Uiso   1.00
H121   H     0.13407   0.39726   0.33656   0.00000  Uiso   1.00
H122   H     0.49120   0.72987   0.43859   0.00000  Uiso   1.00
H123   H     0.17222   0.74088   0.77982   0.00000  Uiso   1.00
H124   H     0.10046   0.84893   0.65793   0.00000  Uiso   1.00
H125   H     0.12046   0.61087   0.84042   0.00000  Uiso   1.00
H126   H     0.28982   0.76861   0.88880   0.00000  Uiso   1.00
H127   H     0.03021   0.95955   0.44762   0.00000  Uiso   1.00
H128   H     0.07241   0.45759   0.83245   0.00000  Uiso   1.00
H129   H     0.42954   0.79020   0.93448   0.00000  Uiso   1.00
O130   O     0.01512   0.99918   0.10904   0.00000  Uiso   1.00
O131   O     0.07048   0.34062   0.61393   0.00000  Uiso   1.00
O132   O     0.53903   0.77700   0.74778   0.00000  Uiso   1.00
N133   N     0.08722   0.89860   0.08518   0.00000  Uiso   1.00
N134   N     0.12666   0.42930   0.44495   0.00000  Uiso   1.00
N135   N     0.46055   0.74025   0.54036   0.00000  Uiso   1.00
N136   N     0.05404   0.93107   0.35201   0.00000  Uiso   1.00
N137   N     0.09348   0.46177   0.71179   0.00000  Uiso   1.00
N138   N     0.42737   0.77271   0.80719   0.00000  Uiso   1.00
C139   C     0.77226   0.31343   0.83332   0.00000  Uiso   1.00
C140   C     0.81909   0.24705   0.83015   0.00000  Uiso   1.00
C141   C     0.83999   0.20933   0.67884   0.00000  Uiso   1.00
C142   C     0.88288   0.15007   0.70402   0.00000  Uiso   1.00
C143   C     0.95239   0.05018   0.67316   0.00000  Uiso   1.00
C144   C     0.80823   0.37639   0.92929   0.00000  Uiso   1.00
C145   C     0.81999   0.44742   0.86135   0.00000  Uiso   1.00
C146   C     0.85374   0.49704   0.97001   0.00000  Uiso   1.00
C147   C     0.90635   0.59798   0.09312   0.00000  Uiso   1.00
C148   C     0.71621   0.29069   0.95557   0.00000  Uiso   1.00
C149   C     0.65060   0.28967   0.90975   0.00000  Uiso   1.00
C150   C     0.60687   0.26715   0.04055   0.00000  Uiso   1.00
C151   C     0.51661   0.23501   0.20446   0.00000  Uiso   1.00
C152   C     0.81128   0.27526   0.14712   0.00000  Uiso   1.00
C153   C     0.84028   0.22632   0.00059   0.00000  Uiso   1.00
C154   C     0.88315   0.16710   0.02601   0.00000  Uiso   1.00
C155   C     0.90411   0.12930   0.87477   0.00000  Uiso   1.00
C156   C     0.82942   0.35566   0.09973   0.00000  Uiso   1.00
C157   C     0.86315   0.40519   0.20853   0.00000  Uiso   1.00
C158   C     0.87497   0.47628   0.14076   0.00000  Uiso   1.00
C159   C     0.73740   0.26995   0.12601   0.00000  Uiso   1.00
C160   C     0.69377   0.24743   0.25692   0.00000  Uiso   1.00
C161   C     0.62810   0.24638   0.21130   0.00000  Uiso   1.00
H162   H     0.75577   0.32958   0.70063   0.00000  Uiso   1.00
H163   H     0.82358   0.22540   0.54696   0.00000  Uiso   1.00
H164   H     0.80358   0.46345   0.72945   0.00000  Uiso   1.00
H165   H     0.63422   0.30572   0.77784   0.00000  Uiso   1.00
H166   H     0.90813   0.10078   0.45174   0.00000  Uiso   1.00
H167   H     0.86593   0.60274   0.83656   0.00000  Uiso   1.00
H168   H     0.50880   0.27013   0.93859   0.00000  Uiso   1.00
H169   H     0.82778   0.25912   0.27982   0.00000  Uiso   1.00
H170   H     0.89954   0.15107   0.15793   0.00000  Uiso   1.00
H171   H     0.87954   0.38913   0.34042   0.00000  Uiso   1.00
H172   H     0.71018   0.23139   0.38880   0.00000  Uiso   1.00
H173   H     0.96979   0.04045   0.94762   0.00000  Uiso   1.00
H174   H     0.92759   0.54241   0.33245   0.00000  Uiso   1.00
H175   H     0.57046   0.20980   0.43448   0.00000  Uiso   1.00
O176   O     0.98488   0.00082   0.60904   0.00000  Uiso   1.00
O177   O     0.92952   0.65938   0.11393   0.00000  Uiso   1.00
O178   O     0.46097   0.22300   0.24778   0.00000  Uiso   1.00
N179   N     0.91278   0.10140   0.58518   0.00000  Uiso   1.00
N180   N     0.87334   0.57070   0.94495   0.00000  Uiso   1.00
N181   N     0.53945   0.25975   0.04036   0.00000  Uiso   1.00
N182   N     0.94596   0.06893   0.85201   0.00000  Uiso   1.00
N183   N     0.90652   0.53823   0.21179   0.00000  Uiso   1.00
N184   N     0.57263   0.22729   0.30719   0.00000  Uiso   1.00
