data_job_00428
_audit_creation_date              2018-12-19
_audit_creation_method            'Materials Studio'
_symmetry_space_group_name_H-M    'P1'
_symmetry_Int_Tables_number       1
_symmetry_cell_setting            triclinic
loop_
_symmetry_equiv_pos_as_xyz
  x,y,z
_cell_length_a                    7.0503
_cell_length_b                    40.6337
_cell_length_c                    46.8439
_cell_angle_alpha                 90.0000
_cell_angle_beta                  90.0000
_cell_angle_gamma                 90.0000
loop_
_atom_site_label
_atom_site_type_symbol
_atom_site_fract_x
_atom_site_fract_y
_atom_site_fract_z
_atom_site_U_iso_or_equiv
_atom_site_adp_type
_atom_site_occupancy
C1     C     0.44325   0.57898   0.37675   0.00000  Uiso   1.00
C2     C     0.55295   0.56402   0.40163   0.00000  Uiso   1.00
C3     C     0.47409   0.54741   0.42463   0.00000  Uiso   1.00
C4     C     0.59852   0.53558   0.44519   0.00000  Uiso   1.00
C5     C     0.73901   0.51166   0.48418   0.00000  Uiso   1.00
C6     C     0.49897   0.61523   0.37583   0.00000  Uiso   1.00
C7     C     0.37471   0.64168   0.37713   0.00000  Uiso   1.00
C8     C     0.45371   0.67295   0.37596   0.00000  Uiso   1.00
C9     C     0.51037   0.72853   0.37487   0.00000  Uiso   1.00
C10    C     0.52535   0.56353   0.34979   0.00000  Uiso   1.00
C11    C     0.42328   0.54652   0.32919   0.00000  Uiso   1.00
C12    C     0.52449   0.53427   0.30609   0.00000  Uiso   1.00
C13    C     0.62212   0.50959   0.26458   0.00000  Uiso   1.00
C14    C     0.80446   0.58749   0.37234   0.00000  Uiso   1.00
C15    C     0.74915   0.56864   0.39923   0.00000  Uiso   1.00
C16    C     0.87373   0.55683   0.41975   0.00000  Uiso   1.00
C17    C     0.79507   0.54021   0.44278   0.00000  Uiso   1.00
C18    C     0.69515   0.61985   0.37343   0.00000  Uiso   1.00
C19    C     0.77435   0.65109   0.37225   0.00000  Uiso   1.00
C20    C     0.65025   0.67758   0.37356   0.00000  Uiso   1.00
C21    C     0.72155   0.56815   0.34739   0.00000  Uiso   1.00
C22    C     0.82293   0.55593   0.32431   0.00000  Uiso   1.00
C23    C     0.72103   0.53890   0.30369   0.00000  Uiso   1.00
H24    H     0.29050   0.57539   0.37862   0.00000  Uiso   1.00
H25    H     0.32225   0.54385   0.42648   0.00000  Uiso   1.00
H26    H     0.22289   0.63809   0.37899   0.00000  Uiso   1.00
H27    H     0.27146   0.54295   0.33106   0.00000  Uiso   1.00
H28    H     0.44397   0.51092   0.47850   0.00000  Uiso   1.00
H29    H     0.23446   0.70965   0.37834   0.00000  Uiso   1.00
H30    H     0.33686   0.50902   0.27727   0.00000  Uiso   1.00
H31    H     0.95721   0.59109   0.37047   0.00000  Uiso   1.00
H32    H     0.02555   0.56041   0.41789   0.00000  Uiso   1.00
H33    H     0.92618   0.65465   0.37039   0.00000  Uiso   1.00
H34    H     0.97475   0.55951   0.32246   0.00000  Uiso   1.00
H35    H     0.01479   0.52437   0.47152   0.00000  Uiso   1.00
H36    H     0.80528   0.72309   0.37136   0.00000  Uiso   1.00
H37    H     0.90769   0.52246   0.27029   0.00000  Uiso   1.00
O38    O     0.76230   0.49719   0.50635   0.00000  Uiso   1.00
O39    O     0.48742   0.75791   0.37494   0.00000  Uiso   1.00
O40    O     0.62178   0.49469   0.24234   0.00000  Uiso   1.00
N41    N     0.56894   0.51829   0.47034   0.00000  Uiso   1.00
N42    N     0.37306   0.70409   0.37671   0.00000  Uiso   1.00
N43    N     0.46879   0.51653   0.28221   0.00000  Uiso   1.00
N44    N     0.87609   0.52553   0.46659   0.00000  Uiso   1.00
N45    N     0.68021   0.71132   0.37295   0.00000  Uiso   1.00
N46    N     0.77595   0.52376   0.27846   0.00000  Uiso   1.00
C47    C     0.05675   0.92102   0.37675   0.00000  Uiso   1.00
C48    C     0.94705   0.93598   0.40163   0.00000  Uiso   1.00
C49    C     0.02591   0.95259   0.42463   0.00000  Uiso   1.00
C50    C     0.90148   0.96442   0.44519   0.00000  Uiso   1.00
C51    C     0.76099   0.98834   0.48418   0.00000  Uiso   1.00
C52    C     0.00103   0.88477   0.37583   0.00000  Uiso   1.00
C53    C     0.12529   0.85832   0.37713   0.00000  Uiso   1.00
C54    C     0.04629   0.82705   0.37596   0.00000  Uiso   1.00
C55    C     0.98963   0.77147   0.37487   0.00000  Uiso   1.00
C56    C     0.97465   0.93647   0.34979   0.00000  Uiso   1.00
C57    C     0.07672   0.95348   0.32919   0.00000  Uiso   1.00
C58    C     0.97551   0.96573   0.30609   0.00000  Uiso   1.00
C59    C     0.87788   0.99041   0.26458   0.00000  Uiso   1.00
C60    C     0.69554   0.91251   0.37234   0.00000  Uiso   1.00
C61    C     0.75085   0.93136   0.39923   0.00000  Uiso   1.00
C62    C     0.62627   0.94317   0.41975   0.00000  Uiso   1.00
C63    C     0.70493   0.95979   0.44278   0.00000  Uiso   1.00
C64    C     0.80485   0.88015   0.37343   0.00000  Uiso   1.00
C65    C     0.72565   0.84891   0.37225   0.00000  Uiso   1.00
C66    C     0.84975   0.82242   0.37356   0.00000  Uiso   1.00
C67    C     0.77845   0.93185   0.34739   0.00000  Uiso   1.00
C68    C     0.67707   0.94407   0.32431   0.00000  Uiso   1.00
C69    C     0.77897   0.96110   0.30369   0.00000  Uiso   1.00
H70    H     0.20950   0.92461   0.37862   0.00000  Uiso   1.00
H71    H     0.17775   0.95615   0.42648   0.00000  Uiso   1.00
H72    H     0.27711   0.86191   0.37899   0.00000  Uiso   1.00
H73    H     0.22854   0.95705   0.33106   0.00000  Uiso   1.00
H74    H     0.05603   0.98908   0.47850   0.00000  Uiso   1.00
H75    H     0.26554   0.79035   0.37834   0.00000  Uiso   1.00
H76    H     0.16314   0.99098   0.27727   0.00000  Uiso   1.00
H77    H     0.54279   0.90891   0.37047   0.00000  Uiso   1.00
H78    H     0.47445   0.93959   0.41789   0.00000  Uiso   1.00
H79    H     0.57382   0.84535   0.37039   0.00000  Uiso   1.00
H80    H     0.52525   0.94049   0.32246   0.00000  Uiso   1.00
H81    H     0.48521   0.97563   0.47152   0.00000  Uiso   1.00
H82    H     0.69472   0.77691   0.37136   0.00000  Uiso   1.00
H83    H     0.59231   0.97754   0.27029   0.00000  Uiso   1.00
O84    O     0.73770   0.00281   0.50635   0.00000  Uiso   1.00
O85    O     0.01258   0.74209   0.37494   0.00000  Uiso   1.00
O86    O     0.87822   0.00531   0.24234   0.00000  Uiso   1.00
N87    N     0.93106   0.98171   0.47034   0.00000  Uiso   1.00
N88    N     0.12694   0.79591   0.37671   0.00000  Uiso   1.00
N89    N     0.03121   0.98347   0.28221   0.00000  Uiso   1.00
N90    N     0.62391   0.97447   0.46659   0.00000  Uiso   1.00
N91    N     0.81979   0.78868   0.37295   0.00000  Uiso   1.00
N92    N     0.72405   0.97624   0.27846   0.00000  Uiso   1.00
C93    C     0.55675   0.07898   0.12325   0.00000  Uiso   1.00
C94    C     0.44705   0.06402   0.09837   0.00000  Uiso   1.00
C95    C     0.52591   0.04741   0.07537   0.00000  Uiso   1.00
C96    C     0.40148   0.03558   0.05481   0.00000  Uiso   1.00
C97    C     0.26099   0.01166   0.01582   0.00000  Uiso   1.00
C98    C     0.50103   0.11523   0.12417   0.00000  Uiso   1.00
C99    C     0.62529   0.14168   0.12287   0.00000  Uiso   1.00
C100   C     0.54629   0.17295   0.12404   0.00000  Uiso   1.00
C101   C     0.48963   0.22853   0.12513   0.00000  Uiso   1.00
C102   C     0.47465   0.06353   0.15021   0.00000  Uiso   1.00
C103   C     0.57672   0.04652   0.17081   0.00000  Uiso   1.00
C104   C     0.47551   0.03427   0.19391   0.00000  Uiso   1.00
C105   C     0.37788   0.00959   0.23542   0.00000  Uiso   1.00
C106   C     0.19554   0.08749   0.12766   0.00000  Uiso   1.00
C107   C     0.25085   0.06864   0.10077   0.00000  Uiso   1.00
C108   C     0.12627   0.05683   0.08025   0.00000  Uiso   1.00
C109   C     0.20493   0.04021   0.05722   0.00000  Uiso   1.00
C110   C     0.30485   0.11985   0.12657   0.00000  Uiso   1.00
C111   C     0.22565   0.15109   0.12775   0.00000  Uiso   1.00
C112   C     0.34975   0.17758   0.12644   0.00000  Uiso   1.00
C113   C     0.27845   0.06815   0.15261   0.00000  Uiso   1.00
C114   C     0.17707   0.05593   0.17569   0.00000  Uiso   1.00
C115   C     0.27897   0.03890   0.19631   0.00000  Uiso   1.00
H116   H     0.70950   0.07539   0.12138   0.00000  Uiso   1.00
H117   H     0.67775   0.04385   0.07352   0.00000  Uiso   1.00
H118   H     0.77711   0.13809   0.12101   0.00000  Uiso   1.00
H119   H     0.72854   0.04295   0.16894   0.00000  Uiso   1.00
H120   H     0.55603   0.01092   0.02150   0.00000  Uiso   1.00
H121   H     0.76554   0.20965   0.12166   0.00000  Uiso   1.00
H122   H     0.66314   0.00902   0.22273   0.00000  Uiso   1.00
H123   H     0.04279   0.09109   0.12953   0.00000  Uiso   1.00
H124   H     0.97445   0.06041   0.08211   0.00000  Uiso   1.00
H125   H     0.07382   0.15465   0.12961   0.00000  Uiso   1.00
H126   H     0.02525   0.05951   0.17754   0.00000  Uiso   1.00
H127   H     0.98521   0.02437   0.02848   0.00000  Uiso   1.00
H128   H     0.19472   0.22309   0.12864   0.00000  Uiso   1.00
H129   H     0.09231   0.02246   0.22971   0.00000  Uiso   1.00
O130   O     0.23770   0.99719   0.99365   0.00000  Uiso   1.00
O131   O     0.51258   0.25791   0.12506   0.00000  Uiso   1.00
O132   O     0.37822   0.99469   0.25766   0.00000  Uiso   1.00
N133   N     0.43106   0.01829   0.02966   0.00000  Uiso   1.00
N134   N     0.62694   0.20409   0.12329   0.00000  Uiso   1.00
N135   N     0.53121   0.01653   0.21779   0.00000  Uiso   1.00
N136   N     0.12391   0.02553   0.03341   0.00000  Uiso   1.00
N137   N     0.31979   0.21132   0.12705   0.00000  Uiso   1.00
N138   N     0.22405   0.02376   0.22154   0.00000  Uiso   1.00
C139   C     0.94325   0.42102   0.12325   0.00000  Uiso   1.00
C140   C     0.05295   0.43598   0.09837   0.00000  Uiso   1.00
C141   C     0.97409   0.45259   0.07537   0.00000  Uiso   1.00
C142   C     0.09852   0.46442   0.05481   0.00000  Uiso   1.00
C143   C     0.23901   0.48834   0.01582   0.00000  Uiso   1.00
C144   C     0.99897   0.38477   0.12417   0.00000  Uiso   1.00
C145   C     0.87471   0.35832   0.12287   0.00000  Uiso   1.00
C146   C     0.95371   0.32705   0.12404   0.00000  Uiso   1.00
C147   C     0.01037   0.27147   0.12513   0.00000  Uiso   1.00
C148   C     0.02535   0.43647   0.15021   0.00000  Uiso   1.00
C149   C     0.92328   0.45348   0.17081   0.00000  Uiso   1.00
C150   C     0.02449   0.46573   0.19391   0.00000  Uiso   1.00
C151   C     0.12212   0.49041   0.23542   0.00000  Uiso   1.00
C152   C     0.30446   0.41251   0.12766   0.00000  Uiso   1.00
C153   C     0.24915   0.43136   0.10077   0.00000  Uiso   1.00
C154   C     0.37373   0.44317   0.08025   0.00000  Uiso   1.00
C155   C     0.29507   0.45979   0.05722   0.00000  Uiso   1.00
C156   C     0.19515   0.38015   0.12657   0.00000  Uiso   1.00
C157   C     0.27435   0.34891   0.12775   0.00000  Uiso   1.00
C158   C     0.15025   0.32242   0.12644   0.00000  Uiso   1.00
C159   C     0.22155   0.43185   0.15261   0.00000  Uiso   1.00
C160   C     0.32293   0.44407   0.17569   0.00000  Uiso   1.00
C161   C     0.22103   0.46110   0.19631   0.00000  Uiso   1.00
H162   H     0.79050   0.42461   0.12138   0.00000  Uiso   1.00
H163   H     0.82225   0.45615   0.07352   0.00000  Uiso   1.00
H164   H     0.72289   0.36191   0.12101   0.00000  Uiso   1.00
H165   H     0.77146   0.45705   0.16894   0.00000  Uiso   1.00
H166   H     0.94397   0.48908   0.02150   0.00000  Uiso   1.00
H167   H     0.73446   0.29035   0.12166   0.00000  Uiso   1.00
H168   H     0.83686   0.49098   0.22273   0.00000  Uiso   1.00
H169   H     0.45721   0.40891   0.12953   0.00000  Uiso   1.00
H170   H     0.52555   0.43959   0.08211   0.00000  Uiso   1.00
H171   H     0.42618   0.34535   0.12961   0.00000  Uiso   1.00
H172   H     0.47475   0.44049   0.17754   0.00000  Uiso   1.00
H173   H     0.51479   0.47563   0.02848   0.00000  Uiso   1.00
H174   H     0.30528   0.27691   0.12864   0.00000  Uiso   1.00
H175   H     0.40769   0.47754   0.22971   0.00000  Uiso   1.00
O176   O     0.26230   0.50281   0.99365   0.00000  Uiso   1.00
O177   O     0.98742   0.24209   0.12506   0.00000  Uiso   1.00
O178   O     0.12178   0.50531   0.25766   0.00000  Uiso   1.00
N179   N     0.06894   0.48171   0.02966   0.00000  Uiso   1.00
N180   N     0.87306   0.29591   0.12329   0.00000  Uiso   1.00
N181   N     0.96879   0.48347   0.21779   0.00000  Uiso   1.00
N182   N     0.37609   0.47447   0.03341   0.00000  Uiso   1.00
N183   N     0.18021   0.28868   0.12705   0.00000  Uiso   1.00
N184   N     0.27595   0.47624   0.22154   0.00000  Uiso   1.00
C185   C     0.55675   0.42102   0.62325   0.00000  Uiso   1.00
C186   C     0.44705   0.43598   0.59837   0.00000  Uiso   1.00
C187   C     0.52591   0.45259   0.57537   0.00000  Uiso   1.00
C188   C     0.40148   0.46442   0.55481   0.00000  Uiso   1.00
C189   C     0.26099   0.48834   0.51582   0.00000  Uiso   1.00
C190   C     0.50103   0.38477   0.62417   0.00000  Uiso   1.00
C191   C     0.62529   0.35832   0.62287   0.00000  Uiso   1.00
C192   C     0.54629   0.32705   0.62404   0.00000  Uiso   1.00
C193   C     0.48963   0.27147   0.62513   0.00000  Uiso   1.00
C194   C     0.47465   0.43647   0.65021   0.00000  Uiso   1.00
C195   C     0.57672   0.45348   0.67081   0.00000  Uiso   1.00
C196   C     0.47551   0.46573   0.69391   0.00000  Uiso   1.00
C197   C     0.37788   0.49041   0.73542   0.00000  Uiso   1.00
C198   C     0.19554   0.41251   0.62766   0.00000  Uiso   1.00
C199   C     0.25085   0.43136   0.60077   0.00000  Uiso   1.00
C200   C     0.12627   0.44317   0.58025   0.00000  Uiso   1.00
C201   C     0.20493   0.45979   0.55722   0.00000  Uiso   1.00
C202   C     0.30485   0.38015   0.62657   0.00000  Uiso   1.00
C203   C     0.22565   0.34891   0.62775   0.00000  Uiso   1.00
C204   C     0.34975   0.32242   0.62644   0.00000  Uiso   1.00
C205   C     0.27845   0.43185   0.65261   0.00000  Uiso   1.00
C206   C     0.17707   0.44407   0.67569   0.00000  Uiso   1.00
C207   C     0.27897   0.46110   0.69631   0.00000  Uiso   1.00
H208   H     0.70950   0.42461   0.62138   0.00000  Uiso   1.00
H209   H     0.67775   0.45615   0.57352   0.00000  Uiso   1.00
H210   H     0.77711   0.36191   0.62101   0.00000  Uiso   1.00
H211   H     0.72854   0.45705   0.66894   0.00000  Uiso   1.00
H212   H     0.55603   0.48908   0.52150   0.00000  Uiso   1.00
H213   H     0.76554   0.29035   0.62166   0.00000  Uiso   1.00
H214   H     0.66314   0.49098   0.72273   0.00000  Uiso   1.00
H215   H     0.04279   0.40891   0.62953   0.00000  Uiso   1.00
H216   H     0.97445   0.43959   0.58211   0.00000  Uiso   1.00
H217   H     0.07382   0.34535   0.62961   0.00000  Uiso   1.00
H218   H     0.02525   0.44049   0.67754   0.00000  Uiso   1.00
H219   H     0.98521   0.47563   0.52848   0.00000  Uiso   1.00
H220   H     0.19472   0.27691   0.62864   0.00000  Uiso   1.00
H221   H     0.09231   0.47754   0.72971   0.00000  Uiso   1.00
O222   O     0.23770   0.50281   0.49365   0.00000  Uiso   1.00
O223   O     0.51258   0.24209   0.62506   0.00000  Uiso   1.00
O224   O     0.37822   0.50531   0.75766   0.00000  Uiso   1.00
N225   N     0.43106   0.48171   0.52966   0.00000  Uiso   1.00
N226   N     0.62694   0.29591   0.62329   0.00000  Uiso   1.00
N227   N     0.53121   0.48347   0.71779   0.00000  Uiso   1.00
N228   N     0.12391   0.47447   0.53341   0.00000  Uiso   1.00
N229   N     0.31979   0.28868   0.62705   0.00000  Uiso   1.00
N230   N     0.22405   0.47624   0.72154   0.00000  Uiso   1.00
C231   C     0.94325   0.07898   0.62325   0.00000  Uiso   1.00
C232   C     0.05295   0.06402   0.59837   0.00000  Uiso   1.00
C233   C     0.97409   0.04741   0.57537   0.00000  Uiso   1.00
C234   C     0.09852   0.03558   0.55481   0.00000  Uiso   1.00
C235   C     0.23901   0.01166   0.51582   0.00000  Uiso   1.00
C236   C     0.99897   0.11523   0.62417   0.00000  Uiso   1.00
C237   C     0.87471   0.14168   0.62287   0.00000  Uiso   1.00
C238   C     0.95371   0.17295   0.62404   0.00000  Uiso   1.00
C239   C     0.01037   0.22853   0.62513   0.00000  Uiso   1.00
C240   C     0.02535   0.06353   0.65021   0.00000  Uiso   1.00
C241   C     0.92328   0.04652   0.67081   0.00000  Uiso   1.00
C242   C     0.02449   0.03427   0.69391   0.00000  Uiso   1.00
C243   C     0.12212   0.00959   0.73542   0.00000  Uiso   1.00
C244   C     0.30446   0.08749   0.62766   0.00000  Uiso   1.00
C245   C     0.24915   0.06864   0.60077   0.00000  Uiso   1.00
C246   C     0.37373   0.05683   0.58025   0.00000  Uiso   1.00
C247   C     0.29507   0.04021   0.55722   0.00000  Uiso   1.00
C248   C     0.19515   0.11985   0.62657   0.00000  Uiso   1.00
C249   C     0.27435   0.15109   0.62775   0.00000  Uiso   1.00
C250   C     0.15025   0.17758   0.62644   0.00000  Uiso   1.00
C251   C     0.22155   0.06815   0.65261   0.00000  Uiso   1.00
C252   C     0.32293   0.05593   0.67569   0.00000  Uiso   1.00
C253   C     0.22103   0.03890   0.69631   0.00000  Uiso   1.00
H254   H     0.79050   0.07539   0.62138   0.00000  Uiso   1.00
H255   H     0.82225   0.04385   0.57352   0.00000  Uiso   1.00
H256   H     0.72289   0.13809   0.62101   0.00000  Uiso   1.00
H257   H     0.77146   0.04295   0.66894   0.00000  Uiso   1.00
H258   H     0.94397   0.01092   0.52150   0.00000  Uiso   1.00
H259   H     0.73446   0.20965   0.62166   0.00000  Uiso   1.00
H260   H     0.83686   0.00902   0.72273   0.00000  Uiso   1.00
H261   H     0.45721   0.09109   0.62953   0.00000  Uiso   1.00
H262   H     0.52555   0.06041   0.58211   0.00000  Uiso   1.00
H263   H     0.42618   0.15465   0.62961   0.00000  Uiso   1.00
H264   H     0.47475   0.05951   0.67754   0.00000  Uiso   1.00
H265   H     0.51479   0.02437   0.52848   0.00000  Uiso   1.00
H266   H     0.30528   0.22309   0.62864   0.00000  Uiso   1.00
H267   H     0.40769   0.02246   0.72971   0.00000  Uiso   1.00
O268   O     0.26230   0.99719   0.49365   0.00000  Uiso   1.00
O269   O     0.98742   0.25791   0.62506   0.00000  Uiso   1.00
O270   O     0.12178   0.99469   0.75766   0.00000  Uiso   1.00
N271   N     0.06894   0.01829   0.52966   0.00000  Uiso   1.00
N272   N     0.87306   0.20409   0.62329   0.00000  Uiso   1.00
N273   N     0.96879   0.01653   0.71779   0.00000  Uiso   1.00
N274   N     0.37609   0.02553   0.53341   0.00000  Uiso   1.00
N275   N     0.18021   0.21132   0.62705   0.00000  Uiso   1.00
N276   N     0.27595   0.02376   0.72154   0.00000  Uiso   1.00
C277   C     0.44325   0.92102   0.87675   0.00000  Uiso   1.00
C278   C     0.55295   0.93598   0.90163   0.00000  Uiso   1.00
C279   C     0.47409   0.95259   0.92463   0.00000  Uiso   1.00
C280   C     0.59852   0.96442   0.94519   0.00000  Uiso   1.00
C281   C     0.73901   0.98834   0.98418   0.00000  Uiso   1.00
C282   C     0.49897   0.88477   0.87583   0.00000  Uiso   1.00
C283   C     0.37471   0.85832   0.87713   0.00000  Uiso   1.00
C284   C     0.45371   0.82705   0.87596   0.00000  Uiso   1.00
C285   C     0.51037   0.77147   0.87487   0.00000  Uiso   1.00
C286   C     0.52535   0.93647   0.84979   0.00000  Uiso   1.00
C287   C     0.42328   0.95348   0.82919   0.00000  Uiso   1.00
C288   C     0.52449   0.96573   0.80609   0.00000  Uiso   1.00
C289   C     0.62212   0.99041   0.76458   0.00000  Uiso   1.00
C290   C     0.80446   0.91251   0.87234   0.00000  Uiso   1.00
C291   C     0.74915   0.93136   0.89923   0.00000  Uiso   1.00
C292   C     0.87373   0.94317   0.91975   0.00000  Uiso   1.00
C293   C     0.79507   0.95979   0.94278   0.00000  Uiso   1.00
C294   C     0.69515   0.88015   0.87343   0.00000  Uiso   1.00
C295   C     0.77435   0.84891   0.87225   0.00000  Uiso   1.00
C296   C     0.65025   0.82242   0.87356   0.00000  Uiso   1.00
C297   C     0.72155   0.93185   0.84739   0.00000  Uiso   1.00
C298   C     0.82293   0.94407   0.82431   0.00000  Uiso   1.00
C299   C     0.72103   0.96110   0.80369   0.00000  Uiso   1.00
H300   H     0.29050   0.92461   0.87862   0.00000  Uiso   1.00
H301   H     0.32225   0.95615   0.92648   0.00000  Uiso   1.00
H302   H     0.22289   0.86191   0.87899   0.00000  Uiso   1.00
H303   H     0.27146   0.95705   0.83106   0.00000  Uiso   1.00
H304   H     0.44397   0.98908   0.97850   0.00000  Uiso   1.00
H305   H     0.23446   0.79035   0.87834   0.00000  Uiso   1.00
H306   H     0.33686   0.99098   0.77727   0.00000  Uiso   1.00
H307   H     0.95721   0.90891   0.87047   0.00000  Uiso   1.00
H308   H     0.02555   0.93959   0.91789   0.00000  Uiso   1.00
H309   H     0.92618   0.84535   0.87039   0.00000  Uiso   1.00
H310   H     0.97475   0.94049   0.82246   0.00000  Uiso   1.00
H311   H     0.01479   0.97563   0.97152   0.00000  Uiso   1.00
H312   H     0.80528   0.77691   0.87136   0.00000  Uiso   1.00
H313   H     0.90769   0.97754   0.77029   0.00000  Uiso   1.00
O314   O     0.76230   0.00281   0.00635   0.00000  Uiso   1.00
O315   O     0.48742   0.74209   0.87494   0.00000  Uiso   1.00
O316   O     0.62178   0.00531   0.74234   0.00000  Uiso   1.00
N317   N     0.56894   0.98171   0.97034   0.00000  Uiso   1.00
N318   N     0.37306   0.79591   0.87671   0.00000  Uiso   1.00
N319   N     0.46879   0.98347   0.78221   0.00000  Uiso   1.00
N320   N     0.87609   0.97447   0.96659   0.00000  Uiso   1.00
N321   N     0.68021   0.78868   0.87295   0.00000  Uiso   1.00
N322   N     0.77595   0.97624   0.77846   0.00000  Uiso   1.00
C323   C     0.05675   0.57898   0.87675   0.00000  Uiso   1.00
C324   C     0.94705   0.56402   0.90163   0.00000  Uiso   1.00
C325   C     0.02591   0.54741   0.92463   0.00000  Uiso   1.00
C326   C     0.90148   0.53558   0.94519   0.00000  Uiso   1.00
C327   C     0.76099   0.51166   0.98418   0.00000  Uiso   1.00
C328   C     0.00103   0.61523   0.87583   0.00000  Uiso   1.00
C329   C     0.12529   0.64168   0.87713   0.00000  Uiso   1.00
C330   C     0.04629   0.67295   0.87596   0.00000  Uiso   1.00
C331   C     0.98963   0.72853   0.87487   0.00000  Uiso   1.00
C332   C     0.97465   0.56353   0.84979   0.00000  Uiso   1.00
C333   C     0.07672   0.54652   0.82919   0.00000  Uiso   1.00
C334   C     0.97551   0.53427   0.80609   0.00000  Uiso   1.00
C335   C     0.87788   0.50959   0.76458   0.00000  Uiso   1.00
C336   C     0.69554   0.58749   0.87234   0.00000  Uiso   1.00
C337   C     0.75085   0.56864   0.89923   0.00000  Uiso   1.00
C338   C     0.62627   0.55683   0.91975   0.00000  Uiso   1.00
C339   C     0.70493   0.54021   0.94278   0.00000  Uiso   1.00
C340   C     0.80485   0.61985   0.87343   0.00000  Uiso   1.00
C341   C     0.72565   0.65109   0.87225   0.00000  Uiso   1.00
C342   C     0.84975   0.67758   0.87356   0.00000  Uiso   1.00
C343   C     0.77845   0.56815   0.84739   0.00000  Uiso   1.00
C344   C     0.67707   0.55593   0.82431   0.00000  Uiso   1.00
C345   C     0.77897   0.53890   0.80369   0.00000  Uiso   1.00
H346   H     0.20950   0.57539   0.87862   0.00000  Uiso   1.00
H347   H     0.17775   0.54385   0.92648   0.00000  Uiso   1.00
H348   H     0.27711   0.63809   0.87899   0.00000  Uiso   1.00
H349   H     0.22854   0.54295   0.83106   0.00000  Uiso   1.00
H350   H     0.05603   0.51092   0.97850   0.00000  Uiso   1.00
H351   H     0.26554   0.70965   0.87834   0.00000  Uiso   1.00
H352   H     0.16314   0.50902   0.77727   0.00000  Uiso   1.00
H353   H     0.54279   0.59109   0.87047   0.00000  Uiso   1.00
H354   H     0.47445   0.56041   0.91789   0.00000  Uiso   1.00
H355   H     0.57382   0.65465   0.87039   0.00000  Uiso   1.00
H356   H     0.52525   0.55951   0.82246   0.00000  Uiso   1.00
H357   H     0.48521   0.52437   0.97152   0.00000  Uiso   1.00
H358   H     0.69472   0.72309   0.87136   0.00000  Uiso   1.00
H359   H     0.59231   0.52246   0.77029   0.00000  Uiso   1.00
O360   O     0.73770   0.49719   0.00635   0.00000  Uiso   1.00
O361   O     0.01258   0.75791   0.87494   0.00000  Uiso   1.00
O362   O     0.87822   0.49469   0.74234   0.00000  Uiso   1.00
N363   N     0.93106   0.51829   0.97034   0.00000  Uiso   1.00
N364   N     0.12694   0.70409   0.87671   0.00000  Uiso   1.00
N365   N     0.03121   0.51653   0.78221   0.00000  Uiso   1.00
N366   N     0.62391   0.52553   0.96659   0.00000  Uiso   1.00
N367   N     0.81979   0.71132   0.87295   0.00000  Uiso   1.00
N368   N     0.72405   0.52376   0.77846   0.00000  Uiso   1.00
