data_job_02601
_audit_creation_date              2018-12-19
_audit_creation_method            'Materials Studio'
_symmetry_space_group_name_H-M    'P1'
_symmetry_Int_Tables_number       1
_symmetry_cell_setting            triclinic
loop_
_symmetry_equiv_pos_as_xyz
  x,y,z
_cell_length_a                    20.1319
_cell_length_b                    20.1319
_cell_length_c                    12.5007
_cell_angle_alpha                 90.0000
_cell_angle_beta                  90.0000
_cell_angle_gamma                 90.0000
loop_
_atom_site_label
_atom_site_type_symbol
_atom_site_fract_x
_atom_site_fract_y
_atom_site_fract_z
_atom_site_U_iso_or_equiv
_atom_site_adp_type
_atom_site_occupancy
C1     C     0.09044   0.64373   0.72029   0.00000  Uiso   1.00
C2     C     0.12432   0.61923   0.61856   0.00000  Uiso   1.00
C3     C     0.10609   0.56366   0.55979   0.00000  Uiso   1.00
C4     C     0.14337   0.54959   0.46914   0.00000  Uiso   1.00
C5     C     0.18784   0.50543   0.31587   0.00000  Uiso   1.00
C6     C     0.14464   0.64718   0.80534   0.00000  Uiso   1.00
C7     C     0.14349   0.61511   0.90361   0.00000  Uiso   1.00
C8     C     0.19788   0.62457   0.97020   0.00000  Uiso   1.00
C9     C     0.27387   0.62385   0.10694   0.00000  Uiso   1.00
C10    C     0.06996   0.71536   0.69829   0.00000  Uiso   1.00
C11    C     0.00603   0.74063   0.70657   0.00000  Uiso   1.00
C12    C     0.99754   0.80750   0.68305   0.00000  Uiso   1.00
C13    C     0.95759   0.91263   0.65357   0.00000  Uiso   1.00
C14    C     0.18905   0.71754   0.66383   0.00000  Uiso   1.00
C15    C     0.17788   0.65932   0.58790   0.00000  Uiso   1.00
C16    C     0.21519   0.64533   0.49731   0.00000  Uiso   1.00
C17    C     0.19703   0.58975   0.43841   0.00000  Uiso   1.00
C18    C     0.19820   0.68727   0.77468   0.00000  Uiso   1.00
C19    C     0.25259   0.69678   0.84114   0.00000  Uiso   1.00
C20    C     0.25153   0.66474   0.93947   0.00000  Uiso   1.00
C21    C     0.12352   0.75545   0.66761   0.00000  Uiso   1.00
C22    C     0.11513   0.82230   0.64409   0.00000  Uiso   1.00
C23    C     0.05120   0.84766   0.65232   0.00000  Uiso   1.00
H24    H     0.04875   0.61251   0.74418   0.00000  Uiso   1.00
H25    H     0.06464   0.53264   0.58355   0.00000  Uiso   1.00
H26    H     0.10204   0.58410   0.92733   0.00000  Uiso   1.00
H27    H     0.96459   0.70959   0.73031   0.00000  Uiso   1.00
H28    H     0.10590   0.46176   0.39197   0.00000  Uiso   1.00
H29    H     0.18474   0.57027   0.11684   0.00000  Uiso   1.00
H30    H     0.89491   0.83490   0.70140   0.00000  Uiso   1.00
H31    H     0.23076   0.74876   0.63995   0.00000  Uiso   1.00
H32    H     0.25664   0.67637   0.47360   0.00000  Uiso   1.00
H33    H     0.29403   0.72782   0.81738   0.00000  Uiso   1.00
H34    H     0.15659   0.85331   0.62036   0.00000  Uiso   1.00
H35    H     0.26174   0.57841   0.30272   0.00000  Uiso   1.00
H36    H     0.34057   0.68692   0.02761   0.00000  Uiso   1.00
H37    H     0.05074   0.95154   0.61215   0.00000  Uiso   1.00
O38    O     0.19758   0.46999   0.23981   0.00000  Uiso   1.00
O39    O     0.30099   0.61236   0.19084   0.00000  Uiso   1.00
O40    O     0.92075   0.95954   0.64577   0.00000  Uiso   1.00
N41    N     0.13902   0.49916   0.39378   0.00000  Uiso   1.00
N42    N     0.21273   0.60060   0.07149   0.00000  Uiso   1.00
N43    N     0.94177   0.84800   0.68311   0.00000  Uiso   1.00
N44    N     0.22287   0.56192   0.34576   0.00000  Uiso   1.00
N45    N     0.29658   0.66336   0.02347   0.00000  Uiso   1.00
N46    N     0.02562   0.91077   0.63509   0.00000  Uiso   1.00
C47    C     0.90956   0.35627   0.72029   0.00000  Uiso   1.00
C48    C     0.87568   0.38077   0.61856   0.00000  Uiso   1.00
C49    C     0.89391   0.43634   0.55979   0.00000  Uiso   1.00
C50    C     0.85663   0.45041   0.46914   0.00000  Uiso   1.00
C51    C     0.81216   0.49457   0.31587   0.00000  Uiso   1.00
C52    C     0.85536   0.35282   0.80534   0.00000  Uiso   1.00
C53    C     0.85651   0.38489   0.90361   0.00000  Uiso   1.00
C54    C     0.80212   0.37543   0.97020   0.00000  Uiso   1.00
C55    C     0.72613   0.37615   0.10694   0.00000  Uiso   1.00
C56    C     0.93004   0.28464   0.69829   0.00000  Uiso   1.00
C57    C     0.99397   0.25937   0.70657   0.00000  Uiso   1.00
C58    C     0.00246   0.19250   0.68305   0.00000  Uiso   1.00
C59    C     0.04241   0.08737   0.65357   0.00000  Uiso   1.00
C60    C     0.81095   0.28246   0.66383   0.00000  Uiso   1.00
C61    C     0.82212   0.34068   0.58790   0.00000  Uiso   1.00
C62    C     0.78481   0.35467   0.49731   0.00000  Uiso   1.00
C63    C     0.80297   0.41025   0.43841   0.00000  Uiso   1.00
C64    C     0.80180   0.31273   0.77468   0.00000  Uiso   1.00
C65    C     0.74741   0.30322   0.84114   0.00000  Uiso   1.00
C66    C     0.74847   0.33526   0.93947   0.00000  Uiso   1.00
C67    C     0.87648   0.24455   0.66761   0.00000  Uiso   1.00
C68    C     0.88487   0.17770   0.64409   0.00000  Uiso   1.00
C69    C     0.94880   0.15234   0.65232   0.00000  Uiso   1.00
H70    H     0.95125   0.38749   0.74418   0.00000  Uiso   1.00
H71    H     0.93536   0.46736   0.58355   0.00000  Uiso   1.00
H72    H     0.89796   0.41590   0.92733   0.00000  Uiso   1.00
H73    H     0.03541   0.29041   0.73031   0.00000  Uiso   1.00
H74    H     0.89410   0.53824   0.39197   0.00000  Uiso   1.00
H75    H     0.81526   0.42973   0.11684   0.00000  Uiso   1.00
H76    H     0.10509   0.16510   0.70140   0.00000  Uiso   1.00
H77    H     0.76924   0.25124   0.63995   0.00000  Uiso   1.00
H78    H     0.74336   0.32363   0.47360   0.00000  Uiso   1.00
H79    H     0.70597   0.27218   0.81738   0.00000  Uiso   1.00
H80    H     0.84341   0.14669   0.62036   0.00000  Uiso   1.00
H81    H     0.73826   0.42159   0.30272   0.00000  Uiso   1.00
H82    H     0.65943   0.31308   0.02761   0.00000  Uiso   1.00
H83    H     0.94926   0.04846   0.61215   0.00000  Uiso   1.00
O84    O     0.80242   0.53001   0.23981   0.00000  Uiso   1.00
O85    O     0.69901   0.38764   0.19084   0.00000  Uiso   1.00
O86    O     0.07925   0.04046   0.64577   0.00000  Uiso   1.00
N87    N     0.86098   0.50084   0.39378   0.00000  Uiso   1.00
N88    N     0.78727   0.39940   0.07149   0.00000  Uiso   1.00
N89    N     0.05823   0.15200   0.68311   0.00000  Uiso   1.00
N90    N     0.77713   0.43808   0.34576   0.00000  Uiso   1.00
N91    N     0.70342   0.33664   0.02347   0.00000  Uiso   1.00
N92    N     0.97438   0.08923   0.63509   0.00000  Uiso   1.00
C93    C     0.85627   0.59044   0.72029   0.00000  Uiso   1.00
C94    C     0.88077   0.62432   0.61856   0.00000  Uiso   1.00
C95    C     0.93634   0.60609   0.55979   0.00000  Uiso   1.00
C96    C     0.95041   0.64337   0.46914   0.00000  Uiso   1.00
C97    C     0.99457   0.68784   0.31587   0.00000  Uiso   1.00
C98    C     0.85282   0.64464   0.80534   0.00000  Uiso   1.00
C99    C     0.88489   0.64349   0.90361   0.00000  Uiso   1.00
C100   C     0.87543   0.69788   0.97020   0.00000  Uiso   1.00
C101   C     0.87615   0.77387   0.10694   0.00000  Uiso   1.00
C102   C     0.78464   0.56996   0.69829   0.00000  Uiso   1.00
C103   C     0.75937   0.50603   0.70657   0.00000  Uiso   1.00
C104   C     0.69250   0.49754   0.68305   0.00000  Uiso   1.00
C105   C     0.58737   0.45759   0.65357   0.00000  Uiso   1.00
C106   C     0.78246   0.68905   0.66383   0.00000  Uiso   1.00
C107   C     0.84068   0.67788   0.58790   0.00000  Uiso   1.00
C108   C     0.85467   0.71519   0.49731   0.00000  Uiso   1.00
C109   C     0.91025   0.69703   0.43841   0.00000  Uiso   1.00
C110   C     0.81273   0.69820   0.77468   0.00000  Uiso   1.00
C111   C     0.80322   0.75259   0.84114   0.00000  Uiso   1.00
C112   C     0.83526   0.75153   0.93947   0.00000  Uiso   1.00
C113   C     0.74455   0.62352   0.66761   0.00000  Uiso   1.00
C114   C     0.67770   0.61513   0.64409   0.00000  Uiso   1.00
C115   C     0.65234   0.55120   0.65232   0.00000  Uiso   1.00
H116   H     0.88749   0.54875   0.74418   0.00000  Uiso   1.00
H117   H     0.96736   0.56464   0.58355   0.00000  Uiso   1.00
H118   H     0.91590   0.60204   0.92733   0.00000  Uiso   1.00
H119   H     0.79041   0.46459   0.73031   0.00000  Uiso   1.00
H120   H     0.03824   0.60590   0.39197   0.00000  Uiso   1.00
H121   H     0.92973   0.68474   0.11684   0.00000  Uiso   1.00
H122   H     0.66510   0.39491   0.70140   0.00000  Uiso   1.00
H123   H     0.75124   0.73076   0.63995   0.00000  Uiso   1.00
H124   H     0.82363   0.75664   0.47360   0.00000  Uiso   1.00
H125   H     0.77218   0.79403   0.81738   0.00000  Uiso   1.00
H126   H     0.64669   0.65659   0.62036   0.00000  Uiso   1.00
H127   H     0.92159   0.76174   0.30272   0.00000  Uiso   1.00
H128   H     0.81308   0.84057   0.02761   0.00000  Uiso   1.00
H129   H     0.54846   0.55074   0.61215   0.00000  Uiso   1.00
O130   O     0.03001   0.69758   0.23981   0.00000  Uiso   1.00
O131   O     0.88764   0.80099   0.19084   0.00000  Uiso   1.00
O132   O     0.54046   0.42075   0.64577   0.00000  Uiso   1.00
N133   N     0.00084   0.63902   0.39378   0.00000  Uiso   1.00
N134   N     0.89940   0.71273   0.07149   0.00000  Uiso   1.00
N135   N     0.65200   0.44177   0.68311   0.00000  Uiso   1.00
N136   N     0.93808   0.72287   0.34576   0.00000  Uiso   1.00
N137   N     0.83664   0.79658   0.02347   0.00000  Uiso   1.00
N138   N     0.58923   0.52562   0.63509   0.00000  Uiso   1.00
C139   C     0.14373   0.40956   0.72029   0.00000  Uiso   1.00
C140   C     0.11923   0.37568   0.61856   0.00000  Uiso   1.00
C141   C     0.06366   0.39391   0.55979   0.00000  Uiso   1.00
C142   C     0.04959   0.35663   0.46914   0.00000  Uiso   1.00
C143   C     0.00543   0.31216   0.31587   0.00000  Uiso   1.00
C144   C     0.14718   0.35536   0.80534   0.00000  Uiso   1.00
C145   C     0.11511   0.35651   0.90361   0.00000  Uiso   1.00
C146   C     0.12457   0.30212   0.97020   0.00000  Uiso   1.00
C147   C     0.12385   0.22613   0.10694   0.00000  Uiso   1.00
C148   C     0.21536   0.43004   0.69829   0.00000  Uiso   1.00
C149   C     0.24063   0.49397   0.70657   0.00000  Uiso   1.00
C150   C     0.30750   0.50246   0.68305   0.00000  Uiso   1.00
C151   C     0.41263   0.54241   0.65357   0.00000  Uiso   1.00
C152   C     0.21754   0.31095   0.66383   0.00000  Uiso   1.00
C153   C     0.15932   0.32212   0.58790   0.00000  Uiso   1.00
C154   C     0.14533   0.28481   0.49731   0.00000  Uiso   1.00
C155   C     0.08975   0.30297   0.43841   0.00000  Uiso   1.00
C156   C     0.18727   0.30180   0.77468   0.00000  Uiso   1.00
C157   C     0.19678   0.24741   0.84114   0.00000  Uiso   1.00
C158   C     0.16474   0.24847   0.93947   0.00000  Uiso   1.00
C159   C     0.25545   0.37648   0.66761   0.00000  Uiso   1.00
C160   C     0.32230   0.38487   0.64409   0.00000  Uiso   1.00
C161   C     0.34766   0.44880   0.65232   0.00000  Uiso   1.00
H162   H     0.11251   0.45125   0.74418   0.00000  Uiso   1.00
H163   H     0.03264   0.43536   0.58355   0.00000  Uiso   1.00
H164   H     0.08410   0.39796   0.92733   0.00000  Uiso   1.00
H165   H     0.20959   0.53541   0.73031   0.00000  Uiso   1.00
H166   H     0.96176   0.39410   0.39197   0.00000  Uiso   1.00
H167   H     0.07027   0.31526   0.11684   0.00000  Uiso   1.00
H168   H     0.33490   0.60509   0.70140   0.00000  Uiso   1.00
H169   H     0.24876   0.26924   0.63995   0.00000  Uiso   1.00
H170   H     0.17637   0.24336   0.47360   0.00000  Uiso   1.00
H171   H     0.22782   0.20597   0.81738   0.00000  Uiso   1.00
H172   H     0.35331   0.34341   0.62036   0.00000  Uiso   1.00
H173   H     0.07841   0.23826   0.30272   0.00000  Uiso   1.00
H174   H     0.18692   0.15943   0.02761   0.00000  Uiso   1.00
H175   H     0.45154   0.44926   0.61215   0.00000  Uiso   1.00
O176   O     0.96999   0.30242   0.23981   0.00000  Uiso   1.00
O177   O     0.11236   0.19901   0.19084   0.00000  Uiso   1.00
O178   O     0.45954   0.57925   0.64577   0.00000  Uiso   1.00
N179   N     0.99916   0.36098   0.39378   0.00000  Uiso   1.00
N180   N     0.10060   0.28727   0.07149   0.00000  Uiso   1.00
N181   N     0.34800   0.55823   0.68311   0.00000  Uiso   1.00
N182   N     0.06192   0.27713   0.34576   0.00000  Uiso   1.00
N183   N     0.16336   0.20342   0.02347   0.00000  Uiso   1.00
N184   N     0.41077   0.47438   0.63509   0.00000  Uiso   1.00
C185   C     0.40956   0.85627   0.27971   0.00000  Uiso   1.00
C186   C     0.37568   0.88077   0.38144   0.00000  Uiso   1.00
C187   C     0.39391   0.93634   0.44021   0.00000  Uiso   1.00
C188   C     0.35663   0.95041   0.53086   0.00000  Uiso   1.00
C189   C     0.31216   0.99457   0.68413   0.00000  Uiso   1.00
C190   C     0.35536   0.85282   0.19466   0.00000  Uiso   1.00
C191   C     0.35651   0.88489   0.09639   0.00000  Uiso   1.00
C192   C     0.30212   0.87543   0.02980   0.00000  Uiso   1.00
C193   C     0.22613   0.87615   0.89306   0.00000  Uiso   1.00
C194   C     0.43004   0.78464   0.30171   0.00000  Uiso   1.00
C195   C     0.49397   0.75937   0.29343   0.00000  Uiso   1.00
C196   C     0.50246   0.69250   0.31695   0.00000  Uiso   1.00
C197   C     0.54241   0.58737   0.34643   0.00000  Uiso   1.00
C198   C     0.31095   0.78246   0.33617   0.00000  Uiso   1.00
C199   C     0.32212   0.84068   0.41210   0.00000  Uiso   1.00
C200   C     0.28481   0.85467   0.50269   0.00000  Uiso   1.00
C201   C     0.30297   0.91025   0.56159   0.00000  Uiso   1.00
C202   C     0.30180   0.81273   0.22532   0.00000  Uiso   1.00
C203   C     0.24741   0.80322   0.15886   0.00000  Uiso   1.00
C204   C     0.24847   0.83526   0.06053   0.00000  Uiso   1.00
C205   C     0.37648   0.74455   0.33239   0.00000  Uiso   1.00
C206   C     0.38487   0.67770   0.35591   0.00000  Uiso   1.00
C207   C     0.44880   0.65234   0.34768   0.00000  Uiso   1.00
H208   H     0.45125   0.88749   0.25582   0.00000  Uiso   1.00
H209   H     0.43536   0.96736   0.41645   0.00000  Uiso   1.00
H210   H     0.39796   0.91590   0.07267   0.00000  Uiso   1.00
H211   H     0.53541   0.79041   0.26969   0.00000  Uiso   1.00
H212   H     0.39410   0.03824   0.60803   0.00000  Uiso   1.00
H213   H     0.31526   0.92973   0.88316   0.00000  Uiso   1.00
H214   H     0.60509   0.66510   0.29860   0.00000  Uiso   1.00
H215   H     0.26924   0.75124   0.36005   0.00000  Uiso   1.00
H216   H     0.24336   0.82363   0.52640   0.00000  Uiso   1.00
H217   H     0.20597   0.77218   0.18262   0.00000  Uiso   1.00
H218   H     0.34341   0.64669   0.37964   0.00000  Uiso   1.00
H219   H     0.23826   0.92159   0.69728   0.00000  Uiso   1.00
H220   H     0.15943   0.81308   0.97239   0.00000  Uiso   1.00
H221   H     0.44926   0.54846   0.38785   0.00000  Uiso   1.00
O222   O     0.30242   0.03001   0.76019   0.00000  Uiso   1.00
O223   O     0.19901   0.88764   0.80916   0.00000  Uiso   1.00
O224   O     0.57925   0.54046   0.35423   0.00000  Uiso   1.00
N225   N     0.36098   0.00084   0.60622   0.00000  Uiso   1.00
N226   N     0.28727   0.89940   0.92851   0.00000  Uiso   1.00
N227   N     0.55823   0.65200   0.31689   0.00000  Uiso   1.00
N228   N     0.27713   0.93808   0.65424   0.00000  Uiso   1.00
N229   N     0.20342   0.83664   0.97653   0.00000  Uiso   1.00
N230   N     0.47438   0.58923   0.36491   0.00000  Uiso   1.00
C231   C     0.59044   0.14373   0.27971   0.00000  Uiso   1.00
C232   C     0.62432   0.11923   0.38144   0.00000  Uiso   1.00
C233   C     0.60609   0.06366   0.44021   0.00000  Uiso   1.00
C234   C     0.64337   0.04959   0.53086   0.00000  Uiso   1.00
C235   C     0.68784   0.00543   0.68413   0.00000  Uiso   1.00
C236   C     0.64464   0.14718   0.19466   0.00000  Uiso   1.00
C237   C     0.64349   0.11511   0.09639   0.00000  Uiso   1.00
C238   C     0.69788   0.12457   0.02980   0.00000  Uiso   1.00
C239   C     0.77387   0.12385   0.89306   0.00000  Uiso   1.00
C240   C     0.56996   0.21536   0.30171   0.00000  Uiso   1.00
C241   C     0.50603   0.24063   0.29343   0.00000  Uiso   1.00
C242   C     0.49754   0.30750   0.31695   0.00000  Uiso   1.00
C243   C     0.45759   0.41263   0.34643   0.00000  Uiso   1.00
C244   C     0.68905   0.21754   0.33617   0.00000  Uiso   1.00
C245   C     0.67788   0.15932   0.41210   0.00000  Uiso   1.00
C246   C     0.71519   0.14533   0.50269   0.00000  Uiso   1.00
C247   C     0.69703   0.08975   0.56159   0.00000  Uiso   1.00
C248   C     0.69820   0.18727   0.22532   0.00000  Uiso   1.00
C249   C     0.75259   0.19678   0.15886   0.00000  Uiso   1.00
C250   C     0.75153   0.16474   0.06053   0.00000  Uiso   1.00
C251   C     0.62352   0.25545   0.33239   0.00000  Uiso   1.00
C252   C     0.61513   0.32230   0.35591   0.00000  Uiso   1.00
C253   C     0.55120   0.34766   0.34768   0.00000  Uiso   1.00
H254   H     0.54875   0.11251   0.25582   0.00000  Uiso   1.00
H255   H     0.56464   0.03264   0.41645   0.00000  Uiso   1.00
H256   H     0.60204   0.08410   0.07267   0.00000  Uiso   1.00
H257   H     0.46459   0.20959   0.26969   0.00000  Uiso   1.00
H258   H     0.60590   0.96176   0.60803   0.00000  Uiso   1.00
H259   H     0.68474   0.07027   0.88316   0.00000  Uiso   1.00
H260   H     0.39491   0.33490   0.29860   0.00000  Uiso   1.00
H261   H     0.73076   0.24876   0.36005   0.00000  Uiso   1.00
H262   H     0.75664   0.17637   0.52640   0.00000  Uiso   1.00
H263   H     0.79403   0.22782   0.18262   0.00000  Uiso   1.00
H264   H     0.65659   0.35331   0.37964   0.00000  Uiso   1.00
H265   H     0.76174   0.07841   0.69728   0.00000  Uiso   1.00
H266   H     0.84057   0.18692   0.97239   0.00000  Uiso   1.00
H267   H     0.55074   0.45154   0.38785   0.00000  Uiso   1.00
O268   O     0.69758   0.96999   0.76019   0.00000  Uiso   1.00
O269   O     0.80099   0.11236   0.80916   0.00000  Uiso   1.00
O270   O     0.42075   0.45954   0.35423   0.00000  Uiso   1.00
N271   N     0.63902   0.99916   0.60622   0.00000  Uiso   1.00
N272   N     0.71273   0.10060   0.92851   0.00000  Uiso   1.00
N273   N     0.44177   0.34800   0.31689   0.00000  Uiso   1.00
N274   N     0.72287   0.06192   0.65424   0.00000  Uiso   1.00
N275   N     0.79658   0.16336   0.97653   0.00000  Uiso   1.00
N276   N     0.52562   0.41077   0.36491   0.00000  Uiso   1.00
C277   C     0.64373   0.90956   0.27971   0.00000  Uiso   1.00
C278   C     0.61923   0.87568   0.38144   0.00000  Uiso   1.00
C279   C     0.56366   0.89391   0.44021   0.00000  Uiso   1.00
C280   C     0.54959   0.85663   0.53086   0.00000  Uiso   1.00
C281   C     0.50543   0.81216   0.68413   0.00000  Uiso   1.00
C282   C     0.64718   0.85536   0.19466   0.00000  Uiso   1.00
C283   C     0.61511   0.85651   0.09639   0.00000  Uiso   1.00
C284   C     0.62457   0.80212   0.02980   0.00000  Uiso   1.00
C285   C     0.62385   0.72613   0.89306   0.00000  Uiso   1.00
C286   C     0.71536   0.93004   0.30171   0.00000  Uiso   1.00
C287   C     0.74063   0.99397   0.29343   0.00000  Uiso   1.00
C288   C     0.80750   0.00246   0.31695   0.00000  Uiso   1.00
C289   C     0.91263   0.04241   0.34643   0.00000  Uiso   1.00
C290   C     0.71754   0.81095   0.33617   0.00000  Uiso   1.00
C291   C     0.65932   0.82212   0.41210   0.00000  Uiso   1.00
C292   C     0.64533   0.78481   0.50269   0.00000  Uiso   1.00
C293   C     0.58975   0.80297   0.56159   0.00000  Uiso   1.00
C294   C     0.68727   0.80180   0.22532   0.00000  Uiso   1.00
C295   C     0.69678   0.74741   0.15886   0.00000  Uiso   1.00
C296   C     0.66474   0.74847   0.06053   0.00000  Uiso   1.00
C297   C     0.75545   0.87648   0.33239   0.00000  Uiso   1.00
C298   C     0.82230   0.88487   0.35591   0.00000  Uiso   1.00
C299   C     0.84766   0.94880   0.34768   0.00000  Uiso   1.00
H300   H     0.61251   0.95125   0.25582   0.00000  Uiso   1.00
H301   H     0.53264   0.93536   0.41645   0.00000  Uiso   1.00
H302   H     0.58410   0.89796   0.07267   0.00000  Uiso   1.00
H303   H     0.70959   0.03541   0.26969   0.00000  Uiso   1.00
H304   H     0.46176   0.89410   0.60803   0.00000  Uiso   1.00
H305   H     0.57027   0.81526   0.88316   0.00000  Uiso   1.00
H306   H     0.83490   0.10509   0.29860   0.00000  Uiso   1.00
H307   H     0.74876   0.76924   0.36005   0.00000  Uiso   1.00
H308   H     0.67637   0.74336   0.52640   0.00000  Uiso   1.00
H309   H     0.72782   0.70597   0.18262   0.00000  Uiso   1.00
H310   H     0.85331   0.84341   0.37964   0.00000  Uiso   1.00
H311   H     0.57841   0.73826   0.69728   0.00000  Uiso   1.00
H312   H     0.68692   0.65943   0.97239   0.00000  Uiso   1.00
H313   H     0.95154   0.94926   0.38785   0.00000  Uiso   1.00
O314   O     0.46999   0.80242   0.76019   0.00000  Uiso   1.00
O315   O     0.61236   0.69901   0.80916   0.00000  Uiso   1.00
O316   O     0.95954   0.07925   0.35423   0.00000  Uiso   1.00
N317   N     0.49916   0.86098   0.60622   0.00000  Uiso   1.00
N318   N     0.60060   0.78727   0.92851   0.00000  Uiso   1.00
N319   N     0.84800   0.05823   0.31689   0.00000  Uiso   1.00
N320   N     0.56192   0.77713   0.65424   0.00000  Uiso   1.00
N321   N     0.66336   0.70342   0.97653   0.00000  Uiso   1.00
N322   N     0.91077   0.97438   0.36491   0.00000  Uiso   1.00
C323   C     0.35627   0.09044   0.27971   0.00000  Uiso   1.00
C324   C     0.38077   0.12432   0.38144   0.00000  Uiso   1.00
C325   C     0.43634   0.10609   0.44021   0.00000  Uiso   1.00
C326   C     0.45041   0.14337   0.53086   0.00000  Uiso   1.00
C327   C     0.49457   0.18784   0.68413   0.00000  Uiso   1.00
C328   C     0.35282   0.14464   0.19466   0.00000  Uiso   1.00
C329   C     0.38489   0.14349   0.09639   0.00000  Uiso   1.00
C330   C     0.37543   0.19788   0.02980   0.00000  Uiso   1.00
C331   C     0.37615   0.27387   0.89306   0.00000  Uiso   1.00
C332   C     0.28464   0.06996   0.30171   0.00000  Uiso   1.00
C333   C     0.25937   0.00603   0.29343   0.00000  Uiso   1.00
C334   C     0.19250   0.99754   0.31695   0.00000  Uiso   1.00
C335   C     0.08737   0.95759   0.34643   0.00000  Uiso   1.00
C336   C     0.28246   0.18905   0.33617   0.00000  Uiso   1.00
C337   C     0.34068   0.17788   0.41210   0.00000  Uiso   1.00
C338   C     0.35467   0.21519   0.50269   0.00000  Uiso   1.00
C339   C     0.41025   0.19703   0.56159   0.00000  Uiso   1.00
C340   C     0.31273   0.19820   0.22532   0.00000  Uiso   1.00
C341   C     0.30322   0.25259   0.15886   0.00000  Uiso   1.00
C342   C     0.33526   0.25153   0.06053   0.00000  Uiso   1.00
C343   C     0.24455   0.12352   0.33239   0.00000  Uiso   1.00
C344   C     0.17770   0.11513   0.35591   0.00000  Uiso   1.00
C345   C     0.15234   0.05120   0.34768   0.00000  Uiso   1.00
H346   H     0.38749   0.04875   0.25582   0.00000  Uiso   1.00
H347   H     0.46736   0.06464   0.41645   0.00000  Uiso   1.00
H348   H     0.41590   0.10204   0.07267   0.00000  Uiso   1.00
H349   H     0.29041   0.96459   0.26969   0.00000  Uiso   1.00
H350   H     0.53824   0.10590   0.60803   0.00000  Uiso   1.00
H351   H     0.42973   0.18474   0.88316   0.00000  Uiso   1.00
H352   H     0.16510   0.89491   0.29860   0.00000  Uiso   1.00
H353   H     0.25124   0.23076   0.36005   0.00000  Uiso   1.00
H354   H     0.32363   0.25664   0.52640   0.00000  Uiso   1.00
H355   H     0.27218   0.29403   0.18262   0.00000  Uiso   1.00
H356   H     0.14669   0.15659   0.37964   0.00000  Uiso   1.00
H357   H     0.42159   0.26174   0.69728   0.00000  Uiso   1.00
H358   H     0.31308   0.34057   0.97239   0.00000  Uiso   1.00
H359   H     0.04846   0.05074   0.38785   0.00000  Uiso   1.00
O360   O     0.53001   0.19758   0.76019   0.00000  Uiso   1.00
O361   O     0.38764   0.30099   0.80916   0.00000  Uiso   1.00
O362   O     0.04046   0.92075   0.35423   0.00000  Uiso   1.00
N363   N     0.50084   0.13902   0.60622   0.00000  Uiso   1.00
N364   N     0.39940   0.21273   0.92851   0.00000  Uiso   1.00
N365   N     0.15200   0.94177   0.31689   0.00000  Uiso   1.00
N366   N     0.43808   0.22287   0.65424   0.00000  Uiso   1.00
N367   N     0.33664   0.29658   0.97653   0.00000  Uiso   1.00
N368   N     0.08923   0.02562   0.36491   0.00000  Uiso   1.00
