data_job_04084
_audit_creation_date              2018-12-19
_audit_creation_method            'Materials Studio'
_symmetry_space_group_name_H-M    'P1'
_symmetry_Int_Tables_number       1
_symmetry_cell_setting            triclinic
loop_
_symmetry_equiv_pos_as_xyz
  x,y,z
_cell_length_a                    18.1996
_cell_length_b                    9.6172
_cell_length_c                    21.5419
_cell_angle_alpha                 90.0000
_cell_angle_beta                  56.4043
_cell_angle_gamma                 90.0000
loop_
_atom_site_label
_atom_site_type_symbol
_atom_site_fract_x
_atom_site_fract_y
_atom_site_fract_z
_atom_site_U_iso_or_equiv
_atom_site_adp_type
_atom_site_occupancy
C1     C     0.25242   0.84439   0.44586   0.00000  Uiso   1.00
C2     C     0.16137   0.80329   0.46457   0.00000  Uiso   1.00
C3     C     0.08276   0.87034   0.51524   0.00000  Uiso   1.00
C4     C     0.00649   0.81668   0.52445   0.00000  Uiso   1.00
C5     C     0.86475   0.77055   0.55963   0.00000  Uiso   1.00
C6     C     0.28946   0.71577   0.46071   0.00000  Uiso   1.00
C7     C     0.31856   0.70926   0.50812   0.00000  Uiso   1.00
C8     C     0.35013   0.58192   0.51408   0.00000  Uiso   1.00
C9     C     0.40732   0.39995   0.54322   0.00000  Uiso   1.00
C10    C     0.30940   0.86706   0.36178   0.00000  Uiso   1.00
C11    C     0.35529   0.98774   0.32600   0.00000  Uiso   1.00
C12    C     0.40366   0.98777   0.24865   0.00000  Uiso   1.00
C13    C     0.49180   0.04070   0.12418   0.00000  Uiso   1.00
C14    C     0.25676   0.62984   0.37213   0.00000  Uiso   1.00
C15    C     0.16373   0.68675   0.42452   0.00000  Uiso   1.00
C16    C     0.08756   0.63298   0.43366   0.00000  Uiso   1.00
C17    C     0.00885   0.69995   0.48433   0.00000  Uiso   1.00
C18    C     0.29182   0.59924   0.42066   0.00000  Uiso   1.00
C19    C     0.32336   0.47189   0.42654   0.00000  Uiso   1.00
C20    C     0.35250   0.46518   0.47396   0.00000  Uiso   1.00
C21    C     0.31176   0.75053   0.32172   0.00000  Uiso   1.00
C22    C     0.36008   0.75037   0.24442   0.00000  Uiso   1.00
C23    C     0.40602   0.87103   0.20853   0.00000  Uiso   1.00
H24    H     0.25059   0.93510   0.47704   0.00000  Uiso   1.00
H25    H     0.08096   0.96051   0.54623   0.00000  Uiso   1.00
H26    H     0.31674   0.79945   0.53911   0.00000  Uiso   1.00
H27    H     0.35345   0.07789   0.35701   0.00000  Uiso   1.00
H28    H     0.89394   0.93727   0.60529   0.00000  Uiso   1.00
H29    H     0.39111   0.59767   0.59025   0.00000  Uiso   1.00
H30    H     0.46852   0.18482   0.20627   0.00000  Uiso   1.00
H31    H     0.25860   0.53912   0.34094   0.00000  Uiso   1.00
H32    H     0.08940   0.54280   0.40266   0.00000  Uiso   1.00
H33    H     0.32518   0.38174   0.39554   0.00000  Uiso   1.00
H34    H     0.36189   0.66018   0.21344   0.00000  Uiso   1.00
H35    H     0.90078   0.59823   0.48877   0.00000  Uiso   1.00
H36    H     0.39796   0.25864   0.47373   0.00000  Uiso   1.00
H37    H     0.47537   0.84579   0.08974   0.00000  Uiso   1.00
O38    O     0.78591   0.77729   0.59010   0.00000  Uiso   1.00
O39    O     0.43820   0.33177   0.57036   0.00000  Uiso   1.00
O40    O     0.53976   0.10209   0.06658   0.00000  Uiso   1.00
N41    N     0.91877   0.85699   0.56939   0.00000  Uiso   1.00
N42    N     0.38358   0.53948   0.55534   0.00000  Uiso   1.00
N43    N     0.45598   0.08840   0.19634   0.00000  Uiso   1.00
N44    N     0.92245   0.67455   0.50668   0.00000  Uiso   1.00
N45    N     0.38727   0.35705   0.49263   0.00000  Uiso   1.00
N46    N     0.45966   0.90597   0.13364   0.00000  Uiso   1.00
C47    C     0.74758   0.84439   0.05414   0.00000  Uiso   1.00
C48    C     0.83863   0.80329   0.03543   0.00000  Uiso   1.00
C49    C     0.91724   0.87034   0.98476   0.00000  Uiso   1.00
C50    C     0.99351   0.81668   0.97555   0.00000  Uiso   1.00
C51    C     0.13525   0.77055   0.94037   0.00000  Uiso   1.00
C52    C     0.71054   0.71577   0.03929   0.00000  Uiso   1.00
C53    C     0.68144   0.70926   0.99188   0.00000  Uiso   1.00
C54    C     0.64987   0.58192   0.98592   0.00000  Uiso   1.00
C55    C     0.59268   0.39995   0.95678   0.00000  Uiso   1.00
C56    C     0.69060   0.86706   0.13822   0.00000  Uiso   1.00
C57    C     0.64471   0.98774   0.17400   0.00000  Uiso   1.00
C58    C     0.59634   0.98777   0.25135   0.00000  Uiso   1.00
C59    C     0.50820   0.04070   0.37582   0.00000  Uiso   1.00
C60    C     0.74324   0.62984   0.12787   0.00000  Uiso   1.00
C61    C     0.83627   0.68675   0.07548   0.00000  Uiso   1.00
C62    C     0.91244   0.63298   0.06634   0.00000  Uiso   1.00
C63    C     0.99115   0.69995   0.01567   0.00000  Uiso   1.00
C64    C     0.70818   0.59924   0.07934   0.00000  Uiso   1.00
C65    C     0.67664   0.47189   0.07346   0.00000  Uiso   1.00
C66    C     0.64750   0.46518   0.02604   0.00000  Uiso   1.00
C67    C     0.68824   0.75053   0.17828   0.00000  Uiso   1.00
C68    C     0.63992   0.75037   0.25558   0.00000  Uiso   1.00
C69    C     0.59398   0.87103   0.29147   0.00000  Uiso   1.00
H70    H     0.74941   0.93510   0.02296   0.00000  Uiso   1.00
H71    H     0.91904   0.96051   0.95377   0.00000  Uiso   1.00
H72    H     0.68326   0.79945   0.96089   0.00000  Uiso   1.00
H73    H     0.64655   0.07789   0.14299   0.00000  Uiso   1.00
H74    H     0.10606   0.93727   0.89471   0.00000  Uiso   1.00
H75    H     0.60889   0.59767   0.90975   0.00000  Uiso   1.00
H76    H     0.53148   0.18482   0.29373   0.00000  Uiso   1.00
H77    H     0.74140   0.53912   0.15906   0.00000  Uiso   1.00
H78    H     0.91060   0.54280   0.09734   0.00000  Uiso   1.00
H79    H     0.67482   0.38174   0.10446   0.00000  Uiso   1.00
H80    H     0.63811   0.66018   0.28656   0.00000  Uiso   1.00
H81    H     0.09922   0.59823   0.01123   0.00000  Uiso   1.00
H82    H     0.60204   0.25864   0.02627   0.00000  Uiso   1.00
H83    H     0.52463   0.84579   0.41026   0.00000  Uiso   1.00
O84    O     0.21409   0.77729   0.90990   0.00000  Uiso   1.00
O85    O     0.56180   0.33177   0.92964   0.00000  Uiso   1.00
O86    O     0.46024   0.10209   0.43342   0.00000  Uiso   1.00
N87    N     0.08123   0.85699   0.93061   0.00000  Uiso   1.00
N88    N     0.61642   0.53948   0.94466   0.00000  Uiso   1.00
N89    N     0.54402   0.08840   0.30366   0.00000  Uiso   1.00
N90    N     0.07755   0.67455   0.99332   0.00000  Uiso   1.00
N91    N     0.61273   0.35705   0.00737   0.00000  Uiso   1.00
N92    N     0.54034   0.90597   0.36636   0.00000  Uiso   1.00
C93    C     0.74758   0.15561   0.55414   0.00000  Uiso   1.00
C94    C     0.83863   0.19671   0.53543   0.00000  Uiso   1.00
C95    C     0.91724   0.12966   0.48476   0.00000  Uiso   1.00
C96    C     0.99351   0.18332   0.47555   0.00000  Uiso   1.00
C97    C     0.13525   0.22945   0.44037   0.00000  Uiso   1.00
C98    C     0.71054   0.28423   0.53929   0.00000  Uiso   1.00
C99    C     0.68144   0.29074   0.49188   0.00000  Uiso   1.00
C100   C     0.64987   0.41808   0.48592   0.00000  Uiso   1.00
C101   C     0.59268   0.60005   0.45678   0.00000  Uiso   1.00
C102   C     0.69060   0.13294   0.63822   0.00000  Uiso   1.00
C103   C     0.64471   0.01226   0.67400   0.00000  Uiso   1.00
C104   C     0.59634   0.01223   0.75135   0.00000  Uiso   1.00
C105   C     0.50820   0.95930   0.87582   0.00000  Uiso   1.00
C106   C     0.74324   0.37016   0.62787   0.00000  Uiso   1.00
C107   C     0.83627   0.31325   0.57548   0.00000  Uiso   1.00
C108   C     0.91244   0.36702   0.56634   0.00000  Uiso   1.00
C109   C     0.99115   0.30005   0.51567   0.00000  Uiso   1.00
C110   C     0.70818   0.40076   0.57934   0.00000  Uiso   1.00
C111   C     0.67664   0.52811   0.57346   0.00000  Uiso   1.00
C112   C     0.64750   0.53482   0.52604   0.00000  Uiso   1.00
C113   C     0.68824   0.24947   0.67828   0.00000  Uiso   1.00
C114   C     0.63992   0.24963   0.75558   0.00000  Uiso   1.00
C115   C     0.59398   0.12897   0.79147   0.00000  Uiso   1.00
H116   H     0.74941   0.06490   0.52296   0.00000  Uiso   1.00
H117   H     0.91904   0.03949   0.45377   0.00000  Uiso   1.00
H118   H     0.68326   0.20055   0.46089   0.00000  Uiso   1.00
H119   H     0.64655   0.92211   0.64299   0.00000  Uiso   1.00
H120   H     0.10606   0.06273   0.39471   0.00000  Uiso   1.00
H121   H     0.60889   0.40233   0.40975   0.00000  Uiso   1.00
H122   H     0.53148   0.81518   0.79373   0.00000  Uiso   1.00
H123   H     0.74140   0.46088   0.65906   0.00000  Uiso   1.00
H124   H     0.91060   0.45720   0.59734   0.00000  Uiso   1.00
H125   H     0.67482   0.61826   0.60446   0.00000  Uiso   1.00
H126   H     0.63811   0.33982   0.78656   0.00000  Uiso   1.00
H127   H     0.09922   0.40177   0.51123   0.00000  Uiso   1.00
H128   H     0.60204   0.74136   0.52627   0.00000  Uiso   1.00
H129   H     0.52463   0.15421   0.91026   0.00000  Uiso   1.00
O130   O     0.21409   0.22271   0.40990   0.00000  Uiso   1.00
O131   O     0.56180   0.66823   0.42964   0.00000  Uiso   1.00
O132   O     0.46024   0.89791   0.93342   0.00000  Uiso   1.00
N133   N     0.08123   0.14301   0.43061   0.00000  Uiso   1.00
N134   N     0.61642   0.46052   0.44466   0.00000  Uiso   1.00
N135   N     0.54402   0.91160   0.80366   0.00000  Uiso   1.00
N136   N     0.07755   0.32545   0.49332   0.00000  Uiso   1.00
N137   N     0.61273   0.64295   0.50737   0.00000  Uiso   1.00
N138   N     0.54034   0.09403   0.86636   0.00000  Uiso   1.00
C139   C     0.25242   0.15561   0.94586   0.00000  Uiso   1.00
C140   C     0.16137   0.19671   0.96457   0.00000  Uiso   1.00
C141   C     0.08276   0.12966   0.01524   0.00000  Uiso   1.00
C142   C     0.00649   0.18332   0.02445   0.00000  Uiso   1.00
C143   C     0.86475   0.22945   0.05963   0.00000  Uiso   1.00
C144   C     0.28946   0.28423   0.96071   0.00000  Uiso   1.00
C145   C     0.31856   0.29074   0.00812   0.00000  Uiso   1.00
C146   C     0.35013   0.41808   0.01408   0.00000  Uiso   1.00
C147   C     0.40732   0.60005   0.04322   0.00000  Uiso   1.00
C148   C     0.30940   0.13294   0.86178   0.00000  Uiso   1.00
C149   C     0.35529   0.01226   0.82600   0.00000  Uiso   1.00
C150   C     0.40366   0.01223   0.74865   0.00000  Uiso   1.00
C151   C     0.49180   0.95930   0.62418   0.00000  Uiso   1.00
C152   C     0.25676   0.37016   0.87213   0.00000  Uiso   1.00
C153   C     0.16373   0.31325   0.92452   0.00000  Uiso   1.00
C154   C     0.08756   0.36702   0.93366   0.00000  Uiso   1.00
C155   C     0.00885   0.30005   0.98433   0.00000  Uiso   1.00
C156   C     0.29182   0.40076   0.92066   0.00000  Uiso   1.00
C157   C     0.32336   0.52811   0.92654   0.00000  Uiso   1.00
C158   C     0.35250   0.53482   0.97396   0.00000  Uiso   1.00
C159   C     0.31176   0.24947   0.82172   0.00000  Uiso   1.00
C160   C     0.36008   0.24963   0.74442   0.00000  Uiso   1.00
C161   C     0.40602   0.12897   0.70853   0.00000  Uiso   1.00
H162   H     0.25059   0.06490   0.97704   0.00000  Uiso   1.00
H163   H     0.08096   0.03949   0.04623   0.00000  Uiso   1.00
H164   H     0.31674   0.20055   0.03911   0.00000  Uiso   1.00
H165   H     0.35345   0.92211   0.85701   0.00000  Uiso   1.00
H166   H     0.89394   0.06273   0.10529   0.00000  Uiso   1.00
H167   H     0.39111   0.40233   0.09025   0.00000  Uiso   1.00
H168   H     0.46852   0.81518   0.70627   0.00000  Uiso   1.00
H169   H     0.25860   0.46088   0.84094   0.00000  Uiso   1.00
H170   H     0.08940   0.45720   0.90266   0.00000  Uiso   1.00
H171   H     0.32518   0.61826   0.89554   0.00000  Uiso   1.00
H172   H     0.36189   0.33982   0.71344   0.00000  Uiso   1.00
H173   H     0.90078   0.40177   0.98877   0.00000  Uiso   1.00
H174   H     0.39796   0.74136   0.97373   0.00000  Uiso   1.00
H175   H     0.47537   0.15421   0.58974   0.00000  Uiso   1.00
O176   O     0.78591   0.22271   0.09010   0.00000  Uiso   1.00
O177   O     0.43820   0.66823   0.07036   0.00000  Uiso   1.00
O178   O     0.53976   0.89791   0.56658   0.00000  Uiso   1.00
N179   N     0.91877   0.14301   0.06939   0.00000  Uiso   1.00
N180   N     0.38358   0.46052   0.05534   0.00000  Uiso   1.00
N181   N     0.45598   0.91160   0.69634   0.00000  Uiso   1.00
N182   N     0.92245   0.32545   0.00668   0.00000  Uiso   1.00
N183   N     0.38727   0.64295   0.99263   0.00000  Uiso   1.00
N184   N     0.45966   0.09403   0.63364   0.00000  Uiso   1.00
