data_job_05684
_audit_creation_date              2018-12-19
_audit_creation_method            'Materials Studio'
_symmetry_space_group_name_H-M    'P1'
_symmetry_Int_Tables_number       1
_symmetry_cell_setting            triclinic
loop_
_symmetry_equiv_pos_as_xyz
  x,y,z
_cell_length_a                    19.5541
_cell_length_b                    10.4148
_cell_length_c                    12.7172
_cell_angle_alpha                 90.0000
_cell_angle_beta                  61.7047
_cell_angle_gamma                 90.0000
loop_
_atom_site_label
_atom_site_type_symbol
_atom_site_fract_x
_atom_site_fract_y
_atom_site_fract_z
_atom_site_U_iso_or_equiv
_atom_site_adp_type
_atom_site_occupancy
C1     C     0.31199   0.19873   0.44292   0.00000  Uiso   1.00
C2     C     0.29720   0.27644   0.55333   0.00000  Uiso   1.00
C3     C     0.22969   0.27407   0.66212   0.00000  Uiso   1.00
C4     C     0.22756   0.35220   0.75208   0.00000  Uiso   1.00
C5     C     0.19498   0.46110   0.92629   0.00000  Uiso   1.00
C6     C     0.33266   0.29603   0.34272   0.00000  Uiso   1.00
C7     C     0.29497   0.31010   0.27442   0.00000  Uiso   1.00
C8     C     0.32270   0.40471   0.18708   0.00000  Uiso   1.00
C9     C     0.34521   0.54395   0.03425   0.00000  Uiso   1.00
C10    C     0.38578   0.12173   0.40961   0.00000  Uiso   1.00
C11    C     0.39275   0.98925   0.39751   0.00000  Uiso   1.00
C12    C     0.46521   0.93711   0.36645   0.00000  Uiso   1.00
C13    C     0.57019   0.80572   0.31748   0.00000  Uiso   1.00
C14    C     0.42827   0.34172   0.40923   0.00000  Uiso   1.00
C15    C     0.36036   0.35411   0.53503   0.00000  Uiso   1.00
C16    C     0.35834   0.43226   0.62485   0.00000  Uiso   1.00
C17    C     0.29083   0.43000   0.73375   0.00000  Uiso   1.00
C18    C     0.39582   0.37369   0.32442   0.00000  Uiso   1.00
C19    C     0.42362   0.46830   0.23715   0.00000  Uiso   1.00
C20    C     0.38598   0.48252   0.16874   0.00000  Uiso   1.00
C21    C     0.44894   0.19939   0.39131   0.00000  Uiso   1.00
C22    C     0.52140   0.14745   0.36025   0.00000  Uiso   1.00
C23    C     0.52849   0.01492   0.34812   0.00000  Uiso   1.00
H24    H     0.26282   0.13827   0.45715   0.00000  Uiso   1.00
H25    H     0.18082   0.21396   0.67624   0.00000  Uiso   1.00
H26    H     0.24610   0.24998   0.28859   0.00000  Uiso   1.00
H27    H     0.34387   0.92918   0.41168   0.00000  Uiso   1.00
H28    H     0.11776   0.33215   0.91105   0.00000  Uiso   1.00
H29    H     0.25542   0.40807   0.09365   0.00000  Uiso   1.00
H30    H     0.46158   0.73161   0.35319   0.00000  Uiso   1.00
H31    H     0.47744   0.40218   0.39499   0.00000  Uiso   1.00
H32    H     0.40722   0.49235   0.61067   0.00000  Uiso   1.00
H33    H     0.47250   0.52837   0.22302   0.00000  Uiso   1.00
H34    H     0.57026   0.20758   0.34610   0.00000  Uiso   1.00
H35    H     0.30151   0.55811   0.85783   0.00000  Uiso   1.00
H36    H     0.43917   0.63403   0.04042   0.00000  Uiso   1.00
H37    H     0.64533   0.95757   0.29997   0.00000  Uiso   1.00
O38    O     0.15956   0.49972   0.02743   0.00000  Uiso   1.00
O39    O     0.34017   0.59930   0.95502   0.00000  Uiso   1.00
O40    O     0.61065   0.71180   0.29554   0.00000  Uiso   1.00
N41    N     0.17065   0.37294   0.86893   0.00000  Uiso   1.00
N42    N     0.29934   0.44393   0.10473   0.00000  Uiso   1.00
N43    N     0.49209   0.81150   0.34735   0.00000  Uiso   1.00
N44    N     0.26952   0.49453   0.84030   0.00000  Uiso   1.00
N45    N     0.39822   0.56552   0.07609   0.00000  Uiso   1.00
N46    N     0.59097   0.93308   0.31871   0.00000  Uiso   1.00
C47    C     0.81199   0.69873   0.44292   0.00000  Uiso   1.00
C48    C     0.79720   0.77644   0.55333   0.00000  Uiso   1.00
C49    C     0.72969   0.77407   0.66212   0.00000  Uiso   1.00
C50    C     0.72756   0.85220   0.75208   0.00000  Uiso   1.00
C51    C     0.69498   0.96110   0.92629   0.00000  Uiso   1.00
C52    C     0.83266   0.79603   0.34272   0.00000  Uiso   1.00
C53    C     0.79497   0.81010   0.27442   0.00000  Uiso   1.00
C54    C     0.82270   0.90471   0.18708   0.00000  Uiso   1.00
C55    C     0.84521   0.04395   0.03425   0.00000  Uiso   1.00
C56    C     0.88578   0.62173   0.40961   0.00000  Uiso   1.00
C57    C     0.89275   0.48925   0.39751   0.00000  Uiso   1.00
C58    C     0.96521   0.43711   0.36645   0.00000  Uiso   1.00
C59    C     0.07019   0.30572   0.31748   0.00000  Uiso   1.00
C60    C     0.92827   0.84172   0.40923   0.00000  Uiso   1.00
C61    C     0.86036   0.85411   0.53503   0.00000  Uiso   1.00
C62    C     0.85834   0.93226   0.62485   0.00000  Uiso   1.00
C63    C     0.79083   0.93000   0.73375   0.00000  Uiso   1.00
C64    C     0.89582   0.87369   0.32442   0.00000  Uiso   1.00
C65    C     0.92362   0.96830   0.23715   0.00000  Uiso   1.00
C66    C     0.88598   0.98252   0.16874   0.00000  Uiso   1.00
C67    C     0.94894   0.69939   0.39131   0.00000  Uiso   1.00
C68    C     0.02140   0.64745   0.36025   0.00000  Uiso   1.00
C69    C     0.02849   0.51492   0.34812   0.00000  Uiso   1.00
H70    H     0.76282   0.63827   0.45715   0.00000  Uiso   1.00
H71    H     0.68082   0.71396   0.67624   0.00000  Uiso   1.00
H72    H     0.74610   0.74998   0.28859   0.00000  Uiso   1.00
H73    H     0.84387   0.42918   0.41168   0.00000  Uiso   1.00
H74    H     0.61776   0.83215   0.91105   0.00000  Uiso   1.00
H75    H     0.75542   0.90807   0.09365   0.00000  Uiso   1.00
H76    H     0.96158   0.23161   0.35319   0.00000  Uiso   1.00
H77    H     0.97744   0.90218   0.39499   0.00000  Uiso   1.00
H78    H     0.90722   0.99235   0.61067   0.00000  Uiso   1.00
H79    H     0.97250   0.02837   0.22302   0.00000  Uiso   1.00
H80    H     0.07026   0.70758   0.34610   0.00000  Uiso   1.00
H81    H     0.80151   0.05811   0.85783   0.00000  Uiso   1.00
H82    H     0.93917   0.13403   0.04042   0.00000  Uiso   1.00
H83    H     0.14533   0.45757   0.29997   0.00000  Uiso   1.00
O84    O     0.65956   0.99972   0.02743   0.00000  Uiso   1.00
O85    O     0.84017   0.09930   0.95502   0.00000  Uiso   1.00
O86    O     0.11065   0.21180   0.29554   0.00000  Uiso   1.00
N87    N     0.67065   0.87294   0.86893   0.00000  Uiso   1.00
N88    N     0.79934   0.94393   0.10473   0.00000  Uiso   1.00
N89    N     0.99209   0.31150   0.34735   0.00000  Uiso   1.00
N90    N     0.76952   0.99453   0.84030   0.00000  Uiso   1.00
N91    N     0.89822   0.06552   0.07609   0.00000  Uiso   1.00
N92    N     0.09097   0.43308   0.31871   0.00000  Uiso   1.00
C93    C     0.68801   0.19873   0.55708   0.00000  Uiso   1.00
C94    C     0.70280   0.27644   0.44667   0.00000  Uiso   1.00
C95    C     0.77031   0.27407   0.33788   0.00000  Uiso   1.00
C96    C     0.77244   0.35220   0.24792   0.00000  Uiso   1.00
C97    C     0.80502   0.46110   0.07371   0.00000  Uiso   1.00
C98    C     0.66734   0.29603   0.65728   0.00000  Uiso   1.00
C99    C     0.70503   0.31010   0.72558   0.00000  Uiso   1.00
C100   C     0.67730   0.40471   0.81292   0.00000  Uiso   1.00
C101   C     0.65479   0.54395   0.96575   0.00000  Uiso   1.00
C102   C     0.61422   0.12173   0.59039   0.00000  Uiso   1.00
C103   C     0.60725   0.98925   0.60249   0.00000  Uiso   1.00
C104   C     0.53479   0.93711   0.63355   0.00000  Uiso   1.00
C105   C     0.42981   0.80572   0.68252   0.00000  Uiso   1.00
C106   C     0.57173   0.34172   0.59077   0.00000  Uiso   1.00
C107   C     0.63964   0.35411   0.46497   0.00000  Uiso   1.00
C108   C     0.64166   0.43226   0.37515   0.00000  Uiso   1.00
C109   C     0.70917   0.43000   0.26625   0.00000  Uiso   1.00
C110   C     0.60418   0.37369   0.67558   0.00000  Uiso   1.00
C111   C     0.57638   0.46830   0.76285   0.00000  Uiso   1.00
C112   C     0.61402   0.48252   0.83126   0.00000  Uiso   1.00
C113   C     0.55106   0.19939   0.60869   0.00000  Uiso   1.00
C114   C     0.47860   0.14745   0.63975   0.00000  Uiso   1.00
C115   C     0.47151   0.01492   0.65188   0.00000  Uiso   1.00
H116   H     0.73718   0.13827   0.54285   0.00000  Uiso   1.00
H117   H     0.81918   0.21396   0.32376   0.00000  Uiso   1.00
H118   H     0.75390   0.24998   0.71141   0.00000  Uiso   1.00
H119   H     0.65613   0.92918   0.58832   0.00000  Uiso   1.00
H120   H     0.88224   0.33215   0.08895   0.00000  Uiso   1.00
H121   H     0.74458   0.40807   0.90635   0.00000  Uiso   1.00
H122   H     0.53842   0.73161   0.64681   0.00000  Uiso   1.00
H123   H     0.52256   0.40218   0.60501   0.00000  Uiso   1.00
H124   H     0.59278   0.49235   0.38933   0.00000  Uiso   1.00
H125   H     0.52750   0.52837   0.77698   0.00000  Uiso   1.00
H126   H     0.42974   0.20758   0.65390   0.00000  Uiso   1.00
H127   H     0.69849   0.55811   0.14217   0.00000  Uiso   1.00
H128   H     0.56083   0.63403   0.95958   0.00000  Uiso   1.00
H129   H     0.35467   0.95757   0.70003   0.00000  Uiso   1.00
O130   O     0.84044   0.49972   0.97257   0.00000  Uiso   1.00
O131   O     0.65983   0.59930   0.04498   0.00000  Uiso   1.00
O132   O     0.38935   0.71180   0.70446   0.00000  Uiso   1.00
N133   N     0.82935   0.37294   0.13107   0.00000  Uiso   1.00
N134   N     0.70066   0.44393   0.89527   0.00000  Uiso   1.00
N135   N     0.50791   0.81150   0.65265   0.00000  Uiso   1.00
N136   N     0.73048   0.49453   0.15970   0.00000  Uiso   1.00
N137   N     0.60178   0.56552   0.92391   0.00000  Uiso   1.00
N138   N     0.40903   0.93308   0.68129   0.00000  Uiso   1.00
C139   C     0.18801   0.69873   0.55708   0.00000  Uiso   1.00
C140   C     0.20280   0.77644   0.44667   0.00000  Uiso   1.00
C141   C     0.27031   0.77407   0.33788   0.00000  Uiso   1.00
C142   C     0.27244   0.85220   0.24792   0.00000  Uiso   1.00
C143   C     0.30502   0.96110   0.07371   0.00000  Uiso   1.00
C144   C     0.16734   0.79603   0.65728   0.00000  Uiso   1.00
C145   C     0.20503   0.81010   0.72558   0.00000  Uiso   1.00
C146   C     0.17730   0.90471   0.81292   0.00000  Uiso   1.00
C147   C     0.15479   0.04395   0.96575   0.00000  Uiso   1.00
C148   C     0.11422   0.62173   0.59039   0.00000  Uiso   1.00
C149   C     0.10725   0.48925   0.60249   0.00000  Uiso   1.00
C150   C     0.03479   0.43711   0.63355   0.00000  Uiso   1.00
C151   C     0.92981   0.30572   0.68252   0.00000  Uiso   1.00
C152   C     0.07173   0.84172   0.59077   0.00000  Uiso   1.00
C153   C     0.13964   0.85411   0.46497   0.00000  Uiso   1.00
C154   C     0.14166   0.93226   0.37515   0.00000  Uiso   1.00
C155   C     0.20917   0.93000   0.26625   0.00000  Uiso   1.00
C156   C     0.10418   0.87369   0.67558   0.00000  Uiso   1.00
C157   C     0.07638   0.96830   0.76285   0.00000  Uiso   1.00
C158   C     0.11402   0.98252   0.83126   0.00000  Uiso   1.00
C159   C     0.05106   0.69939   0.60869   0.00000  Uiso   1.00
C160   C     0.97860   0.64745   0.63975   0.00000  Uiso   1.00
C161   C     0.97151   0.51492   0.65188   0.00000  Uiso   1.00
H162   H     0.23718   0.63827   0.54285   0.00000  Uiso   1.00
H163   H     0.31918   0.71396   0.32376   0.00000  Uiso   1.00
H164   H     0.25390   0.74998   0.71141   0.00000  Uiso   1.00
H165   H     0.15613   0.42918   0.58832   0.00000  Uiso   1.00
H166   H     0.38224   0.83215   0.08895   0.00000  Uiso   1.00
H167   H     0.24458   0.90807   0.90635   0.00000  Uiso   1.00
H168   H     0.03842   0.23161   0.64681   0.00000  Uiso   1.00
H169   H     0.02256   0.90218   0.60501   0.00000  Uiso   1.00
H170   H     0.09278   0.99235   0.38933   0.00000  Uiso   1.00
H171   H     0.02750   0.02837   0.77698   0.00000  Uiso   1.00
H172   H     0.92974   0.70758   0.65390   0.00000  Uiso   1.00
H173   H     0.19849   0.05811   0.14217   0.00000  Uiso   1.00
H174   H     0.06083   0.13403   0.95958   0.00000  Uiso   1.00
H175   H     0.85467   0.45757   0.70003   0.00000  Uiso   1.00
O176   O     0.34044   0.99972   0.97257   0.00000  Uiso   1.00
O177   O     0.15983   0.09930   0.04498   0.00000  Uiso   1.00
O178   O     0.88935   0.21180   0.70446   0.00000  Uiso   1.00
N179   N     0.32935   0.87294   0.13107   0.00000  Uiso   1.00
N180   N     0.20066   0.94393   0.89527   0.00000  Uiso   1.00
N181   N     0.00791   0.31150   0.65265   0.00000  Uiso   1.00
N182   N     0.23048   0.99453   0.15970   0.00000  Uiso   1.00
N183   N     0.10178   0.06552   0.92391   0.00000  Uiso   1.00
N184   N     0.90903   0.43308   0.68129   0.00000  Uiso   1.00
