data_job_06668
_audit_creation_date              2018-12-19
_audit_creation_method            'Materials Studio'
_symmetry_space_group_name_H-M    'P1'
_symmetry_Int_Tables_number       1
_symmetry_cell_setting            triclinic
loop_
_symmetry_equiv_pos_as_xyz
  x,y,z
_cell_length_a                    18.3849
_cell_length_b                    21.0930
_cell_length_c                    23.3059
_cell_angle_alpha                 80.5067
_cell_angle_beta                  102.4636
_cell_angle_gamma                 76.1780
loop_
_atom_site_label
_atom_site_type_symbol
_atom_site_fract_x
_atom_site_fract_y
_atom_site_fract_z
_atom_site_U_iso_or_equiv
_atom_site_adp_type
_atom_site_occupancy
C1     C     0.35289   0.62153   0.58968   0.00000  Uiso   1.00
C2     C     0.36670   0.65736   0.53235   0.00000  Uiso   1.00
C3     C     0.31505   0.67641   0.47533   0.00000  Uiso   1.00
C4     C     0.33854   0.70863   0.42872   0.00000  Uiso   1.00
C5     C     0.34896   0.76230   0.33817   0.00000  Uiso   1.00
C6     C     0.42041   0.55765   0.61463   0.00000  Uiso   1.00
C7     C     0.41392   0.49287   0.62680   0.00000  Uiso   1.00
C8     C     0.48262   0.44116   0.64946   0.00000  Uiso   1.00
C9     C     0.57642   0.34004   0.68668   0.00000  Uiso   1.00
C10    C     0.36309   0.66558   0.63481   0.00000  Uiso   1.00
C11    C     0.30842   0.69154   0.66396   0.00000  Uiso   1.00
C12    C     0.32887   0.73069   0.70362   0.00000  Uiso   1.00
C13    C     0.33368   0.79714   0.77217   0.00000  Uiso   1.00
C14    C     0.48644   0.64487   0.60830   0.00000  Uiso   1.00
C15    C     0.43924   0.67003   0.54247   0.00000  Uiso   1.00
C16    C     0.46281   0.70224   0.49593   0.00000  Uiso   1.00
C17    C     0.41121   0.72134   0.43885   0.00000  Uiso   1.00
C18    C     0.49294   0.57033   0.62475   0.00000  Uiso   1.00
C19    C     0.56167   0.51870   0.64740   0.00000  Uiso   1.00
C20    C     0.55529   0.45386   0.65959   0.00000  Uiso   1.00
C21    C     0.43563   0.67826   0.64492   0.00000  Uiso   1.00
C22    C     0.45617   0.71737   0.68455   0.00000  Uiso   1.00
C23    C     0.40154   0.74339   0.71375   0.00000  Uiso   1.00
H24    H     0.29642   0.61165   0.58180   0.00000  Uiso   1.00
H25    H     0.25892   0.66658   0.46752   0.00000  Uiso   1.00
H26    H     0.35777   0.48308   0.61897   0.00000  Uiso   1.00
H27    H     0.25229   0.68171   0.65612   0.00000  Uiso   1.00
H28    H     0.24935   0.73305   0.34527   0.00000  Uiso   1.00
H29    H     0.45778   0.34612   0.66463   0.00000  Uiso   1.00
H30    H     0.23535   0.76498   0.74297   0.00000  Uiso   1.00
H31    H     0.54292   0.65474   0.61618   0.00000  Uiso   1.00
H32    H     0.51895   0.71204   0.50378   0.00000  Uiso   1.00
H33    H     0.61780   0.52853   0.65522   0.00000  Uiso   1.00
H34    H     0.51231   0.72717   0.69237   0.00000  Uiso   1.00
H35    H     0.46040   0.76995   0.37470   0.00000  Uiso   1.00
H36    H     0.66883   0.38301   0.69406   0.00000  Uiso   1.00
H37    H     0.44640   0.80188   0.77239   0.00000  Uiso   1.00
O38    O     0.33468   0.78839   0.28542   0.00000  Uiso   1.00
O39    O     0.60812   0.28075   0.70442   0.00000  Uiso   1.00
O40    O     0.31629   0.83030   0.80719   0.00000  Uiso   1.00
N41    N     0.30231   0.73389   0.36763   0.00000  Uiso   1.00
N42    N     0.49718   0.37212   0.66620   0.00000  Uiso   1.00
N43    N     0.28923   0.76371   0.73945   0.00000  Uiso   1.00
N44    N     0.41587   0.75374   0.38346   0.00000  Uiso   1.00
N45    N     0.61074   0.39198   0.68203   0.00000  Uiso   1.00
N46    N     0.40279   0.78357   0.75528   0.00000  Uiso   1.00
C47    C     0.86075   0.58610   0.17084   0.00000  Uiso   1.00
C48    C     0.85238   0.57392   0.10735   0.00000  Uiso   1.00
C49    C     0.89306   0.51733   0.09248   0.00000  Uiso   1.00
C50    C     0.87708   0.51576   0.03181   0.00000  Uiso   1.00
C51    C     0.87244   0.48877   0.93994   0.00000  Uiso   1.00
C52    C     0.88128   0.65219   0.16888   0.00000  Uiso   1.00
C53    C     0.94625   0.66141   0.20574   0.00000  Uiso   1.00
C54    C     0.95459   0.72574   0.19687   0.00000  Uiso   1.00
C55    C     0.99479   0.82028   0.20055   0.00000  Uiso   1.00
C56    C     0.77956   0.59926   0.18058   0.00000  Uiso   1.00
C57    C     0.75902   0.56399   0.22730   0.00000  Uiso   1.00
C58    C     0.68172   0.58376   0.22829   0.00000  Uiso   1.00
C59    C     0.56399   0.59611   0.25014   0.00000  Uiso   1.00
C60    C     0.76003   0.68394   0.08954   0.00000  Uiso   1.00
C61    C     0.79767   0.62706   0.06319   0.00000  Uiso   1.00
C62    C     0.78163   0.62557   0.00253   0.00000  Uiso   1.00
C63    C     0.82228   0.56900   0.98757   0.00000  Uiso   1.00
C64    C     0.82657   0.70533   0.12472   0.00000  Uiso   1.00
C65    C     0.83482   0.76966   0.11579   0.00000  Uiso   1.00
C66    C     0.89979   0.77898   0.15263   0.00000  Uiso   1.00
C67    C     0.72485   0.65240   0.13642   0.00000  Uiso   1.00
C68    C     0.64758   0.67223   0.13734   0.00000  Uiso   1.00
C69    C     0.62692   0.63700   0.18405   0.00000  Uiso   1.00
H70    H     0.90334   0.54474   0.20523   0.00000  Uiso   1.00
H71    H     0.93540   0.47622   0.12667   0.00000  Uiso   1.00
H72    H     0.98857   0.62028   0.23992   0.00000  Uiso   1.00
H73    H     0.80137   0.52287   0.26146   0.00000  Uiso   1.00
H74    H     0.94684   0.42370   0.02010   0.00000  Uiso   1.00
H75    H     0.05894   0.72747   0.25890   0.00000  Uiso   1.00
H76    H     0.66419   0.52206   0.30434   0.00000  Uiso   1.00
H77    H     0.71743   0.72531   0.05516   0.00000  Uiso   1.00
H78    H     0.73929   0.66670   0.96837   0.00000  Uiso   1.00
H79    H     0.79247   0.81077   0.08162   0.00000  Uiso   1.00
H80    H     0.60526   0.71335   0.10316   0.00000  Uiso   1.00
H81    H     0.78767   0.57831   0.89161   0.00000  Uiso   1.00
H82    H     0.89978   0.88208   0.13042   0.00000  Uiso   1.00
H83    H     0.50502   0.67666   0.17585   0.00000  Uiso   1.00
O84    O     0.88500   0.45920   0.90146   0.00000  Uiso   1.00
O85    O     0.03208   0.85774   0.21477   0.00000  Uiso   1.00
O86    O     0.51417   0.58824   0.27438   0.00000  Uiso   1.00
N87    N     0.90637   0.46813   0.00177   0.00000  Uiso   1.00
N88    N     0.01119   0.75213   0.22503   0.00000  Uiso   1.00
N89    N     0.64213   0.56010   0.26752   0.00000  Uiso   1.00
N90    N     0.82072   0.55132   0.93263   0.00000  Uiso   1.00
N91    N     0.92554   0.83532   0.15590   0.00000  Uiso   1.00
N92    N     0.55648   0.64329   0.19839   0.00000  Uiso   1.00
C93    C     0.38319   0.17957   0.61861   0.00000  Uiso   1.00
C94    C     0.46359   0.14286   0.66078   0.00000  Uiso   1.00
C95    C     0.51137   0.17153   0.69625   0.00000  Uiso   1.00
C96    C     0.58278   0.12947   0.73173   0.00000  Uiso   1.00
C97    C     0.70418   0.08286   0.79719   0.00000  Uiso   1.00
C98    C     0.38662   0.16739   0.55641   0.00000  Uiso   1.00
C99    C     0.36966   0.21670   0.50414   0.00000  Uiso   1.00
C100   C     0.37627   0.19528   0.45177   0.00000  Uiso   1.00
C101   C     0.37811   0.18677   0.35520   0.00000  Uiso   1.00
C102   C     0.32806   0.14232   0.63860   0.00000  Uiso   1.00
C103   C     0.26185   0.17054   0.65540   0.00000  Uiso   1.00
C104   C     0.21914   0.12802   0.67222   0.00000  Uiso   1.00
C105   C     0.13006   0.08057   0.70324   0.00000  Uiso   1.00
C106   C     0.42507   0.05388   0.61856   0.00000  Uiso   1.00
C107   C     0.48634   0.07459   0.66074   0.00000  Uiso   1.00
C108   C     0.55769   0.03247   0.69619   0.00000  Uiso   1.00
C109   C     0.60556   0.06108   0.73171   0.00000  Uiso   1.00
C110   C     0.40936   0.09913   0.55638   0.00000  Uiso   1.00
C111   C     0.41599   0.07764   0.50408   0.00000  Uiso   1.00
C112   C     0.39905   0.12689   0.45175   0.00000  Uiso   1.00
C113   C     0.35080   0.07405   0.63857   0.00000  Uiso   1.00
C114   C     0.30819   0.03148   0.65535   0.00000  Uiso   1.00
C115   C     0.24193   0.05962   0.67219   0.00000  Uiso   1.00
H116   H     0.36548   0.23272   0.61863   0.00000  Uiso   1.00
H117   H     0.49375   0.22437   0.69625   0.00000  Uiso   1.00
H118   H     0.35205   0.26952   0.50417   0.00000  Uiso   1.00
H119   H     0.24427   0.22337   0.65542   0.00000  Uiso   1.00
H120   H     0.64599   0.18501   0.78228   0.00000  Uiso   1.00
H121   H     0.34720   0.28022   0.37728   0.00000  Uiso   1.00
H122   H     0.11991   0.18290   0.69620   0.00000  Uiso   1.00
H123   H     0.44277   0.00073   0.61853   0.00000  Uiso   1.00
H124   H     0.57528   0.97964   0.69616   0.00000  Uiso   1.00
H125   H     0.43359   0.02480   0.50408   0.00000  Uiso   1.00
H126   H     0.32580   0.97865   0.65532   0.00000  Uiso   1.00
H127   H     0.71217   0.98638   0.78221   0.00000  Uiso   1.00
H128   H     0.41337   0.08160   0.37720   0.00000  Uiso   1.00
H129   H     0.18609   0.98427   0.69613   0.00000  Uiso   1.00
O130   O     0.76486   0.07602   0.83330   0.00000  Uiso   1.00
O131   O     0.37285   0.20093   0.30194   0.00000  Uiso   1.00
O132   O     0.07465   0.07325   0.72037   0.00000  Uiso   1.00
N133   N     0.64337   0.14115   0.77162   0.00000  Uiso   1.00
N134   N     0.36404   0.23017   0.39297   0.00000  Uiso   1.00
N135   N     0.15153   0.13919   0.69112   0.00000  Uiso   1.00
N136   N     0.67898   0.03427   0.77158   0.00000  Uiso   1.00
N137   N     0.39964   0.12329   0.39292   0.00000  Uiso   1.00
N138   N     0.18714   0.03231   0.69108   0.00000  Uiso   1.00
C139   C     0.82824   0.09965   0.56665   0.00000  Uiso   1.00
C140   C     0.87757   0.13917   0.54037   0.00000  Uiso   1.00
C141   C     0.94535   0.14891   0.57249   0.00000  Uiso   1.00
C142   C     0.98196   0.18658   0.54020   0.00000  Uiso   1.00
C143   C     0.06317   0.24382   0.50884   0.00000  Uiso   1.00
C144   C     0.82249   0.04602   0.53068   0.00000  Uiso   1.00
C145   C     0.84396   0.97743   0.55466   0.00000  Uiso   1.00
C146   C     0.83419   0.93668   0.51421   0.00000  Uiso   1.00
C147   C     0.82984   0.84931   0.46781   0.00000  Uiso   1.00
C148   C     0.74661   0.14772   0.55046   0.00000  Uiso   1.00
C149   C     0.70425   0.16465   0.59106   0.00000  Uiso   1.00
C150   C     0.63058   0.20952   0.56726   0.00000  Uiso   1.00
C151   C     0.50841   0.28006   0.55157   0.00000  Uiso   1.00
C152   C     0.77272   0.14923   0.45218   0.00000  Uiso   1.00
C153   C     0.84741   0.16610   0.47819   0.00000  Uiso   1.00
C154   C     0.88393   0.20376   0.44584   0.00000  Uiso   1.00
C155   C     0.95175   0.21356   0.47791   0.00000  Uiso   1.00
C156   C     0.79234   0.07294   0.46850   0.00000  Uiso   1.00
C157   C     0.78254   0.03229   0.42801   0.00000  Uiso   1.00
C158   C     0.80398   0.96366   0.45192   0.00000  Uiso   1.00
C159   C     0.71645   0.17466   0.48828   0.00000  Uiso   1.00
C160   C     0.64283   0.21950   0.46441   0.00000  Uiso   1.00
C161   C     0.60037   0.23650   0.50497   0.00000  Uiso   1.00
H162   H     0.85171   0.07868   0.61506   0.00000  Uiso   1.00
H163   H     0.96867   0.12805   0.62061   0.00000  Uiso   1.00
H164   H     0.86729   0.95661   0.60278   0.00000  Uiso   1.00
H165   H     0.72761   0.14380   0.63918   0.00000  Uiso   1.00
H166   H     0.08506   0.19465   0.59934   0.00000  Uiso   1.00
H167   H     0.87126   0.83315   0.56174   0.00000  Uiso   1.00
H168   H     0.57671   0.22787   0.63850   0.00000  Uiso   1.00
H169   H     0.74924   0.17019   0.40377   0.00000  Uiso   1.00
H170   H     0.86058   0.22460   0.39772   0.00000  Uiso   1.00
H171   H     0.75919   0.05315   0.37989   0.00000  Uiso   1.00
H172   H     0.61951   0.24033   0.41629   0.00000  Uiso   1.00
H173   H     0.99733   0.27301   0.41844   0.00000  Uiso   1.00
H174   H     0.78352   0.91150   0.38084   0.00000  Uiso   1.00
H175   H     0.48898   0.30623   0.45759   0.00000  Uiso   1.00
O176   O     0.11630   0.26795   0.50872   0.00000  Uiso   1.00
O177   O     0.83579   0.79367   0.45940   0.00000  Uiso   1.00
O178   O     0.44935   0.31154   0.56010   0.00000  Uiso   1.00
N179   N     0.04912   0.20564   0.55760   0.00000  Uiso   1.00
N180   N     0.84925   0.86765   0.52245   0.00000  Uiso   1.00
N181   N     0.57386   0.23667   0.59420   0.00000  Uiso   1.00
N182   N     0.00192   0.24780   0.46025   0.00000  Uiso   1.00
N183   N     0.80204   0.90982   0.42510   0.00000  Uiso   1.00
N184   N     0.52665   0.27884   0.49686   0.00000  Uiso   1.00
C185   C     0.18734   0.11504   0.04378   0.00000  Uiso   1.00
C186   C     0.27091   0.07234   0.07349   0.00000  Uiso   1.00
C187   C     0.29487   0.00336   0.09565   0.00000  Uiso   1.00
C188   C     0.37391   0.97361   0.12118   0.00000  Uiso   1.00
C189   C     0.49561   0.90153   0.16679   0.00000  Uiso   1.00
C190   C     0.18709   0.15242   0.98184   0.00000  Uiso   1.00
C191   C     0.14055   0.15077   0.92696   0.00000  Uiso   1.00
C192   C     0.14903   0.18845   0.87534   0.00000  Uiso   1.00
C193   C     0.14055   0.24073   0.77867   0.00000  Uiso   1.00
C194   C     0.17103   0.16823   0.08007   0.00000  Uiso   1.00
C195   C     0.11097   0.17988   0.10775   0.00000  Uiso   1.00
C196   C     0.10591   0.23088   0.13882   0.00000  Uiso   1.00
C197   C     0.07248   0.30770   0.19466   0.00000  Uiso   1.00
C198   C     0.28513   0.18489   0.04971   0.00000  Uiso   1.00
C199   C     0.32403   0.11028   0.07671   0.00000  Uiso   1.00
C200   C     0.40306   0.08063   0.10221   0.00000  Uiso   1.00
C201   C     0.42713   0.01161   0.12441   0.00000  Uiso   1.00
C202   C     0.24021   0.19036   0.98506   0.00000  Uiso   1.00
C203   C     0.24875   0.22805   0.93351   0.00000  Uiso   1.00
C204   C     0.20224   0.22645   0.87856   0.00000  Uiso   1.00
C205   C     0.22414   0.20617   0.08329   0.00000  Uiso   1.00
C206   C     0.21917   0.25716   0.11431   0.00000  Uiso   1.00
C207   C     0.15912   0.26888   0.14204   0.00000  Uiso   1.00
H208   H     0.14598   0.08551   0.04127   0.00000  Uiso   1.00
H209   H     0.25374   0.97401   0.09315   0.00000  Uiso   1.00
H210   H     0.09945   0.12142   0.92448   0.00000  Uiso   1.00
H211   H     0.06987   0.15052   0.10525   0.00000  Uiso   1.00
H212   H     0.39664   0.86712   0.15206   0.00000  Uiso   1.00
H213   H     0.07129   0.17795   0.79642   0.00000  Uiso   1.00
H214   H     0.00892   0.23932   0.17760   0.00000  Uiso   1.00
H215   H     0.32649   0.21443   0.05221   0.00000  Uiso   1.00
H216   H     0.44415   0.11000   0.10469   0.00000  Uiso   1.00
H217   H     0.28986   0.25740   0.93602   0.00000  Uiso   1.00
H218   H     0.26028   0.28651   0.11679   0.00000  Uiso   1.00
H219   H     0.55119   0.97750   0.16143   0.00000  Uiso   1.00
H220   H     0.22583   0.28832   0.80578   0.00000  Uiso   1.00
H221   H     0.16346   0.34969   0.18697   0.00000  Uiso   1.00
O222   O     0.54806   0.85129   0.19105   0.00000  Uiso   1.00
O223   O     0.12120   0.25908   0.72446   0.00000  Uiso   1.00
O224   O     0.03938   0.33959   0.22457   0.00000  Uiso   1.00
N225   N     0.41686   0.90743   0.14708   0.00000  Uiso   1.00
N226   N     0.11269   0.19803   0.81457   0.00000  Uiso   1.00
N227   N     0.05436   0.25541   0.17093   0.00000  Uiso   1.00
N228   N     0.50002   0.96682   0.15212   0.00000  Uiso   1.00
N229   N     0.19585   0.25742   0.81961   0.00000  Uiso   1.00
N230   N     0.13752   0.31480   0.17597   0.00000  Uiso   1.00
C231   C     0.40170   0.58323   0.09867   0.00000  Uiso   1.00
C232   C     0.35314   0.58948   0.03497   0.00000  Uiso   1.00
C233   C     0.35481   0.63130   0.98294   0.00000  Uiso   1.00
C234   C     0.30596   0.62971   0.92903   0.00000  Uiso   1.00
C235   C     0.23799   0.64577   0.83038   0.00000  Uiso   1.00
C236   C     0.44647   0.50922   0.12253   0.00000  Uiso   1.00
C237   C     0.52661   0.48356   0.14412   0.00000  Uiso   1.00
C238   C     0.55633   0.41440   0.16392   0.00000  Uiso   1.00
C239   C     0.63325   0.30587   0.20125   0.00000  Uiso   1.00
C240   C     0.34403   0.59807   0.13631   0.00000  Uiso   1.00
C241   C     0.33805   0.64710   0.16950   0.00000  Uiso   1.00
C242   C     0.28153   0.65273   0.20091   0.00000  Uiso   1.00
C243   C     0.19940   0.68214   0.25963   0.00000  Uiso   1.00
C244   C     0.31198   0.50603   0.09546   0.00000  Uiso   1.00
C245   C     0.30441   0.54755   0.03323   0.00000  Uiso   1.00
C246   C     0.25554   0.54590   0.97938   0.00000  Uiso   1.00
C247   C     0.25714   0.58771   0.92728   0.00000  Uiso   1.00
C248   C     0.39774   0.46730   0.12079   0.00000  Uiso   1.00
C249   C     0.42735   0.39816   0.14057   0.00000  Uiso   1.00
C250   C     0.50751   0.37240   0.16217   0.00000  Uiso   1.00
C251   C     0.29529   0.55614   0.13457   0.00000  Uiso   1.00
C252   C     0.23878   0.56169   0.16594   0.00000  Uiso   1.00
C253   C     0.23271   0.61072   0.19917   0.00000  Uiso   1.00
H254   H     0.43965   0.61587   0.10003   0.00000  Uiso   1.00
H255   H     0.39254   0.66374   0.98431   0.00000  Uiso   1.00
H256   H     0.56431   0.51602   0.14547   0.00000  Uiso   1.00
H257   H     0.37577   0.67953   0.17084   0.00000  Uiso   1.00
H258   H     0.31883   0.69830   0.85523   0.00000  Uiso   1.00
H259   H     0.68102   0.38684   0.19507   0.00000  Uiso   1.00
H260   H     0.28346   0.73163   0.24857   0.00000  Uiso   1.00
H261   H     0.27404   0.47339   0.09410   0.00000  Uiso   1.00
H262   H     0.21784   0.51344   0.97805   0.00000  Uiso   1.00
H263   H     0.38962   0.36573   0.13921   0.00000  Uiso   1.00
H264   H     0.20108   0.52924   0.16458   0.00000  Uiso   1.00
H265   H     0.17705   0.57632   0.85015   0.00000  Uiso   1.00
H266   H     0.53924   0.26485   0.18999   0.00000  Uiso   1.00
H267   H     0.14167   0.60965   0.24349   0.00000  Uiso   1.00
O268   O     0.21397   0.66621   0.77645   0.00000  Uiso   1.00
O269   O     0.68915   0.25759   0.22232   0.00000  Uiso   1.00
O270   O     0.16756   0.70995   0.29250   0.00000  Uiso   1.00
N271   N     0.29316   0.66411   0.86996   0.00000  Uiso   1.00
N272   N     0.63179   0.37291   0.18768   0.00000  Uiso   1.00
N273   N     0.26012   0.69525   0.23771   0.00000  Uiso   1.00
N274   N     0.21687   0.59847   0.86723   0.00000  Uiso   1.00
N275   N     0.55550   0.30727   0.18495   0.00000  Uiso   1.00
N276   N     0.18382   0.62961   0.23498   0.00000  Uiso   1.00
C277   C     0.86533   0.43839   0.44459   0.00000  Uiso   1.00
C278   C     0.86792   0.38966   0.50164   0.00000  Uiso   1.00
C279   C     0.92772   0.36873   0.55452   0.00000  Uiso   1.00
C280   C     0.91909   0.32396   0.60164   0.00000  Uiso   1.00
C281   C     0.93315   0.25182   0.69110   0.00000  Uiso   1.00
C282   C     0.79048   0.49504   0.43126   0.00000  Uiso   1.00
C283   C     0.78518   0.56271   0.42495   0.00000  Uiso   1.00
C284   C     0.71136   0.60665   0.41282   0.00000  Uiso   1.00
C285   C     0.60518   0.69811   0.39296   0.00000  Uiso   1.00
C286   C     0.85422   0.40150   0.39377   0.00000  Uiso   1.00
C287   C     0.90248   0.39053   0.35592   0.00000  Uiso   1.00
C288   C     0.88231   0.35573   0.31221   0.00000  Uiso   1.00
C289   C     0.87508   0.30196   0.23415   0.00000  Uiso   1.00
C290   C     0.74367   0.39612   0.43425   0.00000  Uiso   1.00
C291   C     0.80184   0.36670   0.49603   0.00000  Uiso   1.00
C292   C     0.79312   0.32195   0.54308   0.00000  Uiso   1.00
C293   C     0.85289   0.30095   0.59601   0.00000  Uiso   1.00
C294   C     0.72440   0.47208   0.42565   0.00000  Uiso   1.00
C295   C     0.65057   0.51593   0.41351   0.00000  Uiso   1.00
C296   C     0.64515   0.58364   0.40719   0.00000  Uiso   1.00
C297   C     0.78813   0.37854   0.38816   0.00000  Uiso   1.00
C298   C     0.76788   0.34376   0.34449   0.00000  Uiso   1.00
C299   C     0.81610   0.33273   0.30659   0.00000  Uiso   1.00
H300   H     0.91678   0.45627   0.44896   0.00000  Uiso   1.00
H301   H     0.97885   0.38651   0.55885   0.00000  Uiso   1.00
H302   H     0.83633   0.58046   0.42929   0.00000  Uiso   1.00
H303   H     0.95361   0.40831   0.36028   0.00000  Uiso   1.00
H304   H     0.01851   0.29906   0.67821   0.00000  Uiso   1.00
H305   H     0.71799   0.70802   0.40502   0.00000  Uiso   1.00
H306   H     0.96531   0.34500   0.25949   0.00000  Uiso   1.00
H307   H     0.69222   0.37824   0.42988   0.00000  Uiso   1.00
H308   H     0.74197   0.30419   0.53872   0.00000  Uiso   1.00
H309   H     0.59945   0.49814   0.40917   0.00000  Uiso   1.00
H310   H     0.71673   0.32599   0.34016   0.00000  Uiso   1.00
H311   H     0.82625   0.23225   0.66188   0.00000  Uiso   1.00
H312   H     0.52573   0.64121   0.38868   0.00000  Uiso   1.00
H313   H     0.77305   0.27819   0.24316   0.00000  Uiso   1.00
O314   O     0.95915   0.21837   0.74200   0.00000  Uiso   1.00
O315   O     0.56488   0.75490   0.38357   0.00000  Uiso   1.00
O316   O     0.88936   0.27864   0.19265   0.00000  Uiso   1.00
N317   N     0.96644   0.29349   0.65943   0.00000  Uiso   1.00
N318   N     0.68547   0.67584   0.40402   0.00000  Uiso   1.00
N319   N     0.91669   0.33647   0.26795   0.00000  Uiso   1.00
N320   N     0.86299   0.25754   0.65064   0.00000  Uiso   1.00
N321   N     0.58202   0.63989   0.39523   0.00000  Uiso   1.00
N322   N     0.81324   0.30052   0.25916   0.00000  Uiso   1.00
C323   C     0.09287   0.43256   0.85094   0.00000  Uiso   1.00
C324   C     0.05713   0.49748   0.86793   0.00000  Uiso   1.00
C325   C     0.01740   0.55857   0.82783   0.00000  Uiso   1.00
C326   C     0.98910   0.61200   0.85233   0.00000  Uiso   1.00
C327   C     0.93187   0.71394   0.86923   0.00000  Uiso   1.00
C328   C     0.05695   0.38071   0.87793   0.00000  Uiso   1.00
C329   C     0.01709   0.34362   0.84623   0.00000  Uiso   1.00
C330   C     0.98865   0.29875   0.87915   0.00000  Uiso   1.00
C331   C     0.93120   0.21936   0.91158   0.00000  Uiso   1.00
C332   C     0.17851   0.41006   0.88565   0.00000  Uiso   1.00
C333   C     0.24087   0.39763   0.86044   0.00000  Uiso   1.00
C334   C     0.31479   0.37746   0.89986   0.00000  Uiso   1.00
C335   C     0.44608   0.34365   0.94427   0.00000  Uiso   1.00
C336   C     0.11327   0.41882   0.96578   0.00000  Uiso   1.00
C337   C     0.06820   0.49001   0.93031   0.00000  Uiso   1.00
C338   C     0.03996   0.54337   0.95489   0.00000  Uiso   1.00
C339   C     0.00020   0.60453   0.91482   0.00000  Uiso   1.00
C340   C     0.06803   0.37325   0.94031   0.00000  Uiso   1.00
C341   C     0.03965   0.32842   0.97329   0.00000  Uiso   1.00
C342   C     0.99975   0.29127   0.94165   0.00000  Uiso   1.00
C343   C     0.18959   0.40260   0.94803   0.00000  Uiso   1.00
C344   C     0.26343   0.38244   0.98750   0.00000  Uiso   1.00
C345   C     0.32588   0.36999   0.96235   0.00000  Uiso   1.00
H346   H     0.08425   0.43836   0.80237   0.00000  Uiso   1.00
H347   H     0.00883   0.56432   0.77955   0.00000  Uiso   1.00
H348   H     0.00853   0.34940   0.79796   0.00000  Uiso   1.00
H349   H     0.23227   0.40341   0.81216   0.00000  Uiso   1.00
H350   H     0.93008   0.70067   0.78176   0.00000  Uiso   1.00
H351   H     0.92947   0.24748   0.82057   0.00000  Uiso   1.00
H352   H     0.40127   0.36138   0.85052   0.00000  Uiso   1.00
H353   H     0.12189   0.41301   0.01435   0.00000  Uiso   1.00
H354   H     0.04854   0.53758   0.00316   0.00000  Uiso   1.00
H355   H     0.04824   0.32266   0.02156   0.00000  Uiso   1.00
H356   H     0.27198   0.37667   0.03577   0.00000  Uiso   1.00
H357   H     0.96231   0.67897   0.96325   0.00000  Uiso   1.00
H358   H     0.96169   0.22578   0.00206   0.00000  Uiso   1.00
H359   H     0.43350   0.33968   0.03201   0.00000  Uiso   1.00
O360   O     0.89724   0.77222   0.86132   0.00000  Uiso   1.00
O361   O     0.89645   0.17764   0.91223   0.00000  Uiso   1.00
O362   O     0.51544   0.32708   0.95154   0.00000  Uiso   1.00
N363   N     0.94774   0.67847   0.82601   0.00000  Uiso   1.00
N364   N     0.94716   0.25477   0.86229   0.00000  Uiso   1.00
N365   N     0.38826   0.36124   0.89030   0.00000  Uiso   1.00
N366   N     0.96509   0.66680   0.92367   0.00000  Uiso   1.00
N367   N     0.96450   0.24310   0.95995   0.00000  Uiso   1.00
N368   N     0.40560   0.34956   0.98796   0.00000  Uiso   1.00
C369   C     0.58583   0.90812   0.34138   0.00000  Uiso   1.00
C370   C     0.50010   0.94179   0.30957   0.00000  Uiso   1.00
C371   C     0.44458   0.90899   0.29296   0.00000  Uiso   1.00
C372   C     0.36929   0.94880   0.26430   0.00000  Uiso   1.00
C373   C     0.23905   0.99043   0.21670   0.00000  Uiso   1.00
C374   C     0.60237   0.93413   0.39872   0.00000  Uiso   1.00
C375   C     0.63284   0.89488   0.45705   0.00000  Uiso   1.00
C376   C     0.64365   0.92824   0.50343   0.00000  Uiso   1.00
C377   C     0.67224   0.95797   0.59423   0.00000  Uiso   1.00
C378   C     0.63106   0.93685   0.30121   0.00000  Uiso   1.00
C379   C     0.68569   0.89989   0.27757   0.00000  Uiso   1.00
C380   C     0.72068   0.93554   0.24186   0.00000  Uiso   1.00
C381   C     0.79382   0.96950   0.18126   0.00000  Uiso   1.00
C382   C     0.55087   0.03715   0.32001   0.00000  Uiso   1.00
C383   C     0.48111   0.01188   0.29797   0.00000  Uiso   1.00
C384   C     0.40589   0.05175   0.26931   0.00000  Uiso   1.00
C385   C     0.35026   0.01901   0.25266   0.00000  Uiso   1.00
C386   C     0.58338   0.00422   0.38711   0.00000  Uiso   1.00
C387   C     0.59415   0.03764   0.43341   0.00000  Uiso   1.00
C388   C     0.62463   0.99846   0.49180   0.00000  Uiso   1.00
C389   C     0.61207   0.00694   0.28960   0.00000  Uiso   1.00
C390   C     0.64699   0.04266   0.25392   0.00000  Uiso   1.00
C391   C     0.70165   0.00576   0.23023   0.00000  Uiso   1.00
H392   H     0.60062   0.85355   0.35042   0.00000  Uiso   1.00
H393   H     0.45930   0.85475   0.30196   0.00000  Uiso   1.00
H394   H     0.64754   0.84065   0.46602   0.00000  Uiso   1.00
H395   H     0.70037   0.84566   0.28656   0.00000  Uiso   1.00
H396   H     0.29423   0.88698   0.24313   0.00000  Uiso   1.00
H397   H     0.69117   0.85725   0.58907   0.00000  Uiso   1.00
H398   H     0.80258   0.86781   0.21064   0.00000  Uiso   1.00
H399   H     0.53608   0.09172   0.31097   0.00000  Uiso   1.00
H400   H     0.39121   0.10599   0.26034   0.00000  Uiso   1.00
H401   H     0.57945   0.09188   0.42440   0.00000  Uiso   1.00
H402   H     0.63228   0.09689   0.24494   0.00000  Uiso   1.00
H403   H     0.23897   0.09090   0.20935   0.00000  Uiso   1.00
H404   H     0.63592   0.06116   0.55529   0.00000  Uiso   1.00
H405   H     0.74732   0.07172   0.17686   0.00000  Uiso   1.00
O406   O     0.17246   0.99403   0.19367   0.00000  Uiso   1.00
O407   O     0.69325   0.95501   0.64752   0.00000  Uiso   1.00
O408   O     0.83940   0.96887   0.15103   0.00000  Uiso   1.00
N409   N     0.30111   0.93302   0.24212   0.00000  Uiso   1.00
N410   N     0.67222   0.90521   0.56555   0.00000  Uiso   1.00
N411   N     0.77639   0.91509   0.21177   0.00000  Uiso   1.00
N412   N     0.27137   0.04274   0.22394   0.00000  Uiso   1.00
N413   N     0.64248   0.01494   0.54737   0.00000  Uiso   1.00
N414   N     0.74665   0.02481   0.19359   0.00000  Uiso   1.00
C415   C     0.23879   0.99528   0.37771   0.00000  Uiso   1.00
C416   C     0.16720   0.97162   0.38049   0.00000  Uiso   1.00
C417   C     0.12793   0.94462   0.33741   0.00000  Uiso   1.00
C418   C     0.06374   0.92604   0.34827   0.00000  Uiso   1.00
C419   C     0.95621   0.88809   0.34465   0.00000  Uiso   1.00
C420   C     0.21773   0.06821   0.38278   0.00000  Uiso   1.00
C421   C     0.22095   0.12242   0.34162   0.00000  Uiso   1.00
C422   C     0.19929   0.18515   0.35440   0.00000  Uiso   1.00
C423   C     0.17025   0.29716   0.35436   0.00000  Uiso   1.00
C424   C     0.30116   0.95631   0.43556   0.00000  Uiso   1.00
C425   C     0.37454   0.91645   0.43879   0.00000  Uiso   1.00
C426   C     0.42314   0.88498   0.49602   0.00000  Uiso   1.00
C427   C     0.52365   0.82324   0.57793   0.00000  Uiso   1.00
C428   C     0.19462   0.01030   0.47360   0.00000  Uiso   1.00
C429   C     0.14321   0.97978   0.43258   0.00000  Uiso   1.00
C430   C     0.07906   0.96123   0.44350   0.00000  Uiso   1.00
C431   C     0.03970   0.93421   0.40044   0.00000  Uiso   1.00
C432   C     0.19373   0.07637   0.43486   0.00000  Uiso   1.00
C433   C     0.17207   0.13904   0.44771   0.00000  Uiso   1.00
C434   C     0.17525   0.19333   0.40658   0.00000  Uiso   1.00
C435   C     0.27717   0.96446   0.48765   0.00000  Uiso   1.00
C436   C     0.32567   0.93306   0.54488   0.00000  Uiso   1.00
C437   C     0.39911   0.89315   0.54819   0.00000  Uiso   1.00
H438   H     0.25747   0.98893   0.33716   0.00000  Uiso   1.00
H439   H     0.14651   0.93832   0.29711   0.00000  Uiso   1.00
H440   H     0.23952   0.11609   0.30132   0.00000  Uiso   1.00
H441   H     0.39309   0.91015   0.39848   0.00000  Uiso   1.00
H442   H     0.01290   0.88582   0.27566   0.00000  Uiso   1.00
H443   H     0.20904   0.26066   0.28456   0.00000  Uiso   1.00
H444   H     0.53287   0.82639   0.48943   0.00000  Uiso   1.00
H445   H     0.17594   0.01665   0.51414   0.00000  Uiso   1.00
H446   H     0.06051   0.96755   0.48381   0.00000  Uiso   1.00
H447   H     0.15351   0.14533   0.48802   0.00000  Uiso   1.00
H448   H     0.30708   0.93938   0.58517   0.00000  Uiso   1.00
H449   H     0.94309   0.90955   0.42719   0.00000  Uiso   1.00
H450   H     0.13923   0.28440   0.43608   0.00000  Uiso   1.00
H451   H     0.46306   0.85012   0.64095   0.00000  Uiso   1.00
O452   O     0.90352   0.86491   0.32827   0.00000  Uiso   1.00
O453   O     0.16086   0.35669   0.33994   0.00000  Uiso   1.00
O454   O     0.58571   0.78693   0.60872   0.00000  Uiso   1.00
N455   N     0.01232   0.89813   0.31550   0.00000  Uiso   1.00
N456   N     0.19569   0.24859   0.32381   0.00000  Uiso   1.00
N457   N     0.49845   0.84259   0.51534   0.00000  Uiso   1.00
N458   N     0.97476   0.91090   0.39703   0.00000  Uiso   1.00
N459   N     0.15812   0.26136   0.40534   0.00000  Uiso   1.00
N460   N     0.46089   0.85536   0.59688   0.00000  Uiso   1.00
C461   C     0.59357   0.94505   0.90894   0.00000  Uiso   1.00
C462   C     0.54010   0.01468   0.87596   0.00000  Uiso   1.00
C463   C     0.55342   0.07505   0.88410   0.00000  Uiso   1.00
C464   C     0.49748   0.13332   0.84963   0.00000  Uiso   1.00
C465   C     0.42461   0.24175   0.80470   0.00000  Uiso   1.00
C466   C     0.54421   0.90885   0.93897   0.00000  Uiso   1.00
C467   C     0.56099   0.88023   0.00009   0.00000  Uiso   1.00
C468   C     0.50852   0.84941   0.01865   0.00000  Uiso   1.00
C469   C     0.44206   0.79349   0.07155   0.00000  Uiso   1.00
C470   C     0.61207   0.90899   0.86000   0.00000  Uiso   1.00
C471   C     0.68591   0.88046   0.85472   0.00000  Uiso   1.00
C472   C     0.69057   0.84974   0.80681   0.00000  Uiso   1.00
C473   C     0.72948   0.79404   0.73709   0.00000  Uiso   1.00
C474   C     0.47055   0.94119   0.83324   0.00000  Uiso   1.00
C475   C     0.47328   0.01258   0.83485   0.00000  Uiso   1.00
C476   C     0.41731   0.07078   0.80035   0.00000  Uiso   1.00
C477   C     0.43054   0.13122   0.80843   0.00000  Uiso   1.00
C478   C     0.47740   0.90675   0.89786   0.00000  Uiso   1.00
C479   C     0.42489   0.87596   0.91634   0.00000  Uiso   1.00
C480   C     0.44158   0.84730   0.97746   0.00000  Uiso   1.00
C481   C     0.54526   0.90689   0.81888   0.00000  Uiso   1.00
C482   C     0.54980   0.87620   0.77097   0.00000  Uiso   1.00
C483   C     0.62363   0.84764   0.76562   0.00000  Uiso   1.00
H484   H     0.64559   0.94668   0.94095   0.00000  Uiso   1.00
H485   H     0.60513   0.07665   0.91593   0.00000  Uiso   1.00
H486   H     0.61271   0.88186   0.03190   0.00000  Uiso   1.00
H487   H     0.73761   0.88210   0.88655   0.00000  Uiso   1.00
H488   H     0.53080   0.21982   0.87007   0.00000  Uiso   1.00
H489   H     0.54679   0.80906   0.11459   0.00000  Uiso   1.00
H490   H     0.81016   0.80957   0.80811   0.00000  Uiso   1.00
H491   H     0.41852   0.93956   0.80122   0.00000  Uiso   1.00
H492   H     0.36561   0.06914   0.76853   0.00000  Uiso   1.00
H493   H     0.37319   0.87434   0.88450   0.00000  Uiso   1.00
H494   H     0.49808   0.87458   0.73916   0.00000  Uiso   1.00
H495   H     0.33639   0.21372   0.75044   0.00000  Uiso   1.00
H496   H     0.35238   0.80296   0.99497   0.00000  Uiso   1.00
H497   H     0.61575   0.80347   0.68848   0.00000  Uiso   1.00
O498   O     0.40287   0.30214   0.79129   0.00000  Uiso   1.00
O499   O     0.42386   0.76323   0.11209   0.00000  Uiso   1.00
O500   O     0.76939   0.76390   0.70998   0.00000  Uiso   1.00
N501   N     0.49231   0.20060   0.84640   0.00000  Uiso   1.00
N502   N     0.50726   0.81658   0.07501   0.00000  Uiso   1.00
N503   N     0.75349   0.81704   0.78848   0.00000  Uiso   1.00
N504   N     0.38770   0.19732   0.78202   0.00000  Uiso   1.00
N505   N     0.40265   0.81330   0.01064   0.00000  Uiso   1.00
N506   N     0.64888   0.81375   0.72411   0.00000  Uiso   1.00
C507   C     0.65023   0.44607   0.85548   0.00000  Uiso   1.00
C508   C     0.66287   0.46116   0.91807   0.00000  Uiso   1.00
C509   C     0.70183   0.41483   0.97214   0.00000  Uiso   1.00
C510   C     0.70715   0.43860   0.02456   0.00000  Uiso   1.00
C511   C     0.73169   0.45174   0.12200   0.00000  Uiso   1.00
C512   C     0.56263   0.46977   0.82730   0.00000  Uiso   1.00
C513   C     0.51731   0.43067   0.80504   0.00000  Uiso   1.00
C514   C     0.43825   0.46169   0.78104   0.00000  Uiso   1.00
C515   C     0.30718   0.48820   0.73752   0.00000  Uiso   1.00
C516   C     0.68416   0.49266   0.81899   0.00000  Uiso   1.00
C517   C     0.74103   0.47282   0.78973   0.00000  Uiso   1.00
C518   C     0.76428   0.52312   0.75872   0.00000  Uiso   1.00
C519   C     0.82191   0.58518   0.70229   0.00000  Uiso   1.00
C520   C     0.59038   0.57068   0.85243   0.00000  Uiso   1.00
C521   C     0.63036   0.52885   0.91641   0.00000  Uiso   1.00
C522   C     0.63563   0.55270   0.96877   0.00000  Uiso   1.00
C523   C     0.67459   0.50641   0.02291   0.00000  Uiso   1.00
C524   C     0.53012   0.53745   0.82564   0.00000  Uiso   1.00
C525   C     0.45111   0.56854   0.80167   0.00000  Uiso   1.00
C526   C     0.40569   0.52950   0.77938   0.00000  Uiso   1.00
C527   C     0.65166   0.56035   0.81733   0.00000  Uiso   1.00
C528   C     0.67482   0.61070   0.78636   0.00000  Uiso   1.00
C529   C     0.73172   0.59093   0.75706   0.00000  Uiso   1.00
H530   H     0.67552   0.39337   0.85677   0.00000  Uiso   1.00
H531   H     0.72697   0.36245   0.97341   0.00000  Uiso   1.00
H532   H     0.54248   0.37829   0.80633   0.00000  Uiso   1.00
H533   H     0.76617   0.42044   0.79102   0.00000  Uiso   1.00
H534   H     0.76965   0.35801   0.10199   0.00000  Uiso   1.00
H535   H     0.38065   0.39142   0.74967   0.00000  Uiso   1.00
H536   H     0.85233   0.48029   0.71739   0.00000  Uiso   1.00
H537   H     0.56508   0.62338   0.85114   0.00000  Uiso   1.00
H538   H     0.61047   0.60509   0.96747   0.00000  Uiso   1.00
H539   H     0.42598   0.62093   0.80039   0.00000  Uiso   1.00
H540   H     0.64966   0.66307   0.78508   0.00000  Uiso   1.00
H541   H     0.67509   0.55494   0.09717   0.00000  Uiso   1.00
H542   H     0.28609   0.58836   0.74485   0.00000  Uiso   1.00
H543   H     0.75777   0.67723   0.71257   0.00000  Uiso   1.00
O544   O     0.75420   0.44028   0.17621   0.00000  Uiso   1.00
O545   O     0.24385   0.48412   0.71397   0.00000  Uiso   1.00
O546   O     0.86268   0.60072   0.67162   0.00000  Uiso   1.00
N547   N     0.74118   0.40687   0.08489   0.00000  Uiso   1.00
N548   N     0.37749   0.43811   0.75550   0.00000  Uiso   1.00
N549   N     0.81845   0.52119   0.72531   0.00000  Uiso   1.00
N550   N     0.69030   0.51284   0.08230   0.00000  Uiso   1.00
N551   N     0.32661   0.54408   0.75291   0.00000  Uiso   1.00
N552   N     0.76757   0.62716   0.72272   0.00000  Uiso   1.00
