data_job_01895
_audit_creation_date              2018-12-19
_audit_creation_method            'Materials Studio'
_symmetry_space_group_name_H-M    'P1'
_symmetry_Int_Tables_number       1
_symmetry_cell_setting            triclinic
loop_
_symmetry_equiv_pos_as_xyz
  x,y,z
_cell_length_a                    19.6212
_cell_length_b                    18.9672
_cell_length_c                    7.3091
_cell_angle_alpha                 90.0000
_cell_angle_beta                  90.0000
_cell_angle_gamma                 90.0000
loop_
_atom_site_label
_atom_site_type_symbol
_atom_site_fract_x
_atom_site_fract_y
_atom_site_fract_z
_atom_site_U_iso_or_equiv
_atom_site_adp_type
_atom_site_occupancy
C1     C     0.53550   0.92428   0.42940   0.00000  Uiso   1.00
C2     C     0.49849   0.86094   0.34790   0.00000  Uiso   1.00
C3     C     0.46745   0.80728   0.44645   0.00000  Uiso   1.00
C4     C     0.43629   0.75403   0.34651   0.00000  Uiso   1.00
C5     C     0.37886   0.65559   0.24909   0.00000  Uiso   1.00
C6     C     0.60714   0.92311   0.34858   0.00000  Uiso   1.00
C7     C     0.66745   0.92173   0.44772   0.00000  Uiso   1.00
C8     C     0.72776   0.92082   0.34835   0.00000  Uiso   1.00
C9     C     0.83901   0.91896   0.25201   0.00000  Uiso   1.00
C10    C     0.50078   0.98937   0.35000   0.00000  Uiso   1.00
C11    C     0.47167   0.04371   0.45032   0.00000  Uiso   1.00
C12    C     0.44243   0.09859   0.35214   0.00000  Uiso   1.00
C13    C     0.38854   0.19960   0.25800   0.00000  Uiso   1.00
C14    C     0.53535   0.92514   0.07666   0.00000  Uiso   1.00
C15    C     0.49841   0.86141   0.15630   0.00000  Uiso   1.00
C16    C     0.46729   0.80823   0.05618   0.00000  Uiso   1.00
C17    C     0.43621   0.75450   0.15457   0.00000  Uiso   1.00
C18    C     0.60707   0.92358   0.15700   0.00000  Uiso   1.00
C19    C     0.66729   0.92268   0.05745   0.00000  Uiso   1.00
C20    C     0.72768   0.92129   0.15641   0.00000  Uiso   1.00
C21    C     0.50069   0.98984   0.15840   0.00000  Uiso   1.00
C22    C     0.47150   0.04466   0.06005   0.00000  Uiso   1.00
C23    C     0.44235   0.09906   0.16020   0.00000  Uiso   1.00
H24    H     0.53557   0.92392   0.57857   0.00000  Uiso   1.00
H25    H     0.46753   0.80693   0.59472   0.00000  Uiso   1.00
H26    H     0.66750   0.92137   0.59599   0.00000  Uiso   1.00
H27    H     0.47174   0.04333   0.59859   0.00000  Uiso   1.00
H28    H     0.39208   0.67743   0.52813   0.00000  Uiso   1.00
H29    H     0.81373   0.91876   0.53081   0.00000  Uiso   1.00
H30    H     0.40094   0.17592   0.53629   0.00000  Uiso   1.00
H31    H     0.53529   0.92551   0.92749   0.00000  Uiso   1.00
H32    H     0.46724   0.80861   0.90791   0.00000  Uiso   1.00
H33    H     0.66721   0.92305   0.90919   0.00000  Uiso   1.00
H34    H     0.47145   0.04500   0.91179   0.00000  Uiso   1.00
H35    H     0.39185   0.67878   0.97070   0.00000  Uiso   1.00
H36    H     0.81350   0.92012   0.97338   0.00000  Uiso   1.00
H37    H     0.40070   0.17728   0.97886   0.00000  Uiso   1.00
O38    O     0.34722   0.60116   0.24828   0.00000  Uiso   1.00
O39    O     0.90041   0.91780   0.25180   0.00000  Uiso   1.00
O40    O     0.35883   0.25519   0.25899   0.00000  Uiso   1.00
N41    N     0.40136   0.69380   0.39963   0.00000  Uiso   1.00
N42    N     0.79557   0.91941   0.40213   0.00000  Uiso   1.00
N43    N     0.40966   0.15985   0.40726   0.00000  Uiso   1.00
N44    N     0.40123   0.69453   0.09967   0.00000  Uiso   1.00
N45    N     0.79544   0.92015   0.10218   0.00000  Uiso   1.00
N46    N     0.40953   0.16058   0.10731   0.00000  Uiso   1.00
C47    C     0.96450   0.07572   0.92940   0.00000  Uiso   1.00
C48    C     0.00151   0.13906   0.84790   0.00000  Uiso   1.00
C49    C     0.03255   0.19272   0.94645   0.00000  Uiso   1.00
C50    C     0.06371   0.24597   0.84651   0.00000  Uiso   1.00
C51    C     0.12114   0.34441   0.74909   0.00000  Uiso   1.00
C52    C     0.89286   0.07689   0.84858   0.00000  Uiso   1.00
C53    C     0.83255   0.07827   0.94772   0.00000  Uiso   1.00
C54    C     0.77224   0.07918   0.84835   0.00000  Uiso   1.00
C55    C     0.66099   0.08104   0.75201   0.00000  Uiso   1.00
C56    C     0.99922   0.01063   0.85000   0.00000  Uiso   1.00
C57    C     0.02833   0.95629   0.95032   0.00000  Uiso   1.00
C58    C     0.05757   0.90141   0.85214   0.00000  Uiso   1.00
C59    C     0.11146   0.80040   0.75800   0.00000  Uiso   1.00
C60    C     0.96465   0.07486   0.57666   0.00000  Uiso   1.00
C61    C     0.00159   0.13859   0.65630   0.00000  Uiso   1.00
C62    C     0.03271   0.19177   0.55618   0.00000  Uiso   1.00
C63    C     0.06379   0.24550   0.65457   0.00000  Uiso   1.00
C64    C     0.89293   0.07642   0.65700   0.00000  Uiso   1.00
C65    C     0.83271   0.07732   0.55745   0.00000  Uiso   1.00
C66    C     0.77232   0.07871   0.65641   0.00000  Uiso   1.00
C67    C     0.99931   0.01016   0.65840   0.00000  Uiso   1.00
C68    C     0.02850   0.95534   0.56005   0.00000  Uiso   1.00
C69    C     0.05765   0.90094   0.66020   0.00000  Uiso   1.00
H70    H     0.96443   0.07608   0.07857   0.00000  Uiso   1.00
H71    H     0.03247   0.19307   0.09472   0.00000  Uiso   1.00
H72    H     0.83250   0.07863   0.09599   0.00000  Uiso   1.00
H73    H     0.02826   0.95667   0.09859   0.00000  Uiso   1.00
H74    H     0.10792   0.32257   0.02813   0.00000  Uiso   1.00
H75    H     0.68627   0.08124   0.03081   0.00000  Uiso   1.00
H76    H     0.09906   0.82408   0.03629   0.00000  Uiso   1.00
H77    H     0.96471   0.07449   0.42749   0.00000  Uiso   1.00
H78    H     0.03276   0.19139   0.40791   0.00000  Uiso   1.00
H79    H     0.83279   0.07695   0.40919   0.00000  Uiso   1.00
H80    H     0.02855   0.95500   0.41179   0.00000  Uiso   1.00
H81    H     0.10815   0.32122   0.47070   0.00000  Uiso   1.00
H82    H     0.68650   0.07988   0.47338   0.00000  Uiso   1.00
H83    H     0.09930   0.82272   0.47886   0.00000  Uiso   1.00
O84    O     0.15278   0.39884   0.74828   0.00000  Uiso   1.00
O85    O     0.59959   0.08220   0.75180   0.00000  Uiso   1.00
O86    O     0.14117   0.74481   0.75899   0.00000  Uiso   1.00
N87    N     0.09864   0.30620   0.89963   0.00000  Uiso   1.00
N88    N     0.70443   0.08059   0.90213   0.00000  Uiso   1.00
N89    N     0.09034   0.84015   0.90726   0.00000  Uiso   1.00
N90    N     0.09877   0.30547   0.59967   0.00000  Uiso   1.00
N91    N     0.70456   0.07985   0.60218   0.00000  Uiso   1.00
N92    N     0.09047   0.83942   0.60731   0.00000  Uiso   1.00
C93    C     0.46450   0.42428   0.07060   0.00000  Uiso   1.00
C94    C     0.50151   0.36094   0.15210   0.00000  Uiso   1.00
C95    C     0.53255   0.30728   0.05355   0.00000  Uiso   1.00
C96    C     0.56371   0.25403   0.15349   0.00000  Uiso   1.00
C97    C     0.62114   0.15559   0.25091   0.00000  Uiso   1.00
C98    C     0.39286   0.42311   0.15142   0.00000  Uiso   1.00
C99    C     0.33255   0.42173   0.05228   0.00000  Uiso   1.00
C100   C     0.27224   0.42082   0.15165   0.00000  Uiso   1.00
C101   C     0.16099   0.41896   0.24799   0.00000  Uiso   1.00
C102   C     0.49922   0.48937   0.15000   0.00000  Uiso   1.00
C103   C     0.52833   0.54371   0.04968   0.00000  Uiso   1.00
C104   C     0.55757   0.59859   0.14786   0.00000  Uiso   1.00
C105   C     0.61146   0.69960   0.24200   0.00000  Uiso   1.00
C106   C     0.46465   0.42514   0.42334   0.00000  Uiso   1.00
C107   C     0.50159   0.36141   0.34370   0.00000  Uiso   1.00
C108   C     0.53271   0.30823   0.44382   0.00000  Uiso   1.00
C109   C     0.56379   0.25450   0.34543   0.00000  Uiso   1.00
C110   C     0.39293   0.42358   0.34300   0.00000  Uiso   1.00
C111   C     0.33271   0.42268   0.44255   0.00000  Uiso   1.00
C112   C     0.27232   0.42129   0.34359   0.00000  Uiso   1.00
C113   C     0.49931   0.48984   0.34160   0.00000  Uiso   1.00
C114   C     0.52850   0.54466   0.43995   0.00000  Uiso   1.00
C115   C     0.55765   0.59906   0.33980   0.00000  Uiso   1.00
H116   H     0.46443   0.42392   0.92143   0.00000  Uiso   1.00
H117   H     0.53247   0.30693   0.90528   0.00000  Uiso   1.00
H118   H     0.33250   0.42137   0.90401   0.00000  Uiso   1.00
H119   H     0.52826   0.54333   0.90141   0.00000  Uiso   1.00
H120   H     0.60792   0.17743   0.97187   0.00000  Uiso   1.00
H121   H     0.18627   0.41876   0.96919   0.00000  Uiso   1.00
H122   H     0.59906   0.67592   0.96371   0.00000  Uiso   1.00
H123   H     0.46471   0.42551   0.57251   0.00000  Uiso   1.00
H124   H     0.53276   0.30861   0.59209   0.00000  Uiso   1.00
H125   H     0.33279   0.42305   0.59081   0.00000  Uiso   1.00
H126   H     0.52855   0.54500   0.58821   0.00000  Uiso   1.00
H127   H     0.60815   0.17878   0.52930   0.00000  Uiso   1.00
H128   H     0.18650   0.42012   0.52662   0.00000  Uiso   1.00
H129   H     0.59930   0.67728   0.52114   0.00000  Uiso   1.00
O130   O     0.65278   0.10116   0.25172   0.00000  Uiso   1.00
O131   O     0.09959   0.41780   0.24820   0.00000  Uiso   1.00
O132   O     0.64117   0.75519   0.24101   0.00000  Uiso   1.00
N133   N     0.59864   0.19380   0.10037   0.00000  Uiso   1.00
N134   N     0.20443   0.41941   0.09787   0.00000  Uiso   1.00
N135   N     0.59034   0.65985   0.09274   0.00000  Uiso   1.00
N136   N     0.59877   0.19453   0.40033   0.00000  Uiso   1.00
N137   N     0.20456   0.42015   0.39782   0.00000  Uiso   1.00
N138   N     0.59047   0.66058   0.39269   0.00000  Uiso   1.00
C139   C     0.03550   0.57572   0.57060   0.00000  Uiso   1.00
C140   C     0.99849   0.63906   0.65210   0.00000  Uiso   1.00
C141   C     0.96745   0.69272   0.55355   0.00000  Uiso   1.00
C142   C     0.93629   0.74597   0.65349   0.00000  Uiso   1.00
C143   C     0.87886   0.84441   0.75091   0.00000  Uiso   1.00
C144   C     0.10714   0.57689   0.65142   0.00000  Uiso   1.00
C145   C     0.16745   0.57827   0.55228   0.00000  Uiso   1.00
C146   C     0.22776   0.57918   0.65165   0.00000  Uiso   1.00
C147   C     0.33901   0.58104   0.74799   0.00000  Uiso   1.00
C148   C     0.00078   0.51063   0.65000   0.00000  Uiso   1.00
C149   C     0.97167   0.45629   0.54968   0.00000  Uiso   1.00
C150   C     0.94243   0.40141   0.64786   0.00000  Uiso   1.00
C151   C     0.88854   0.30040   0.74200   0.00000  Uiso   1.00
C152   C     0.03535   0.57486   0.92334   0.00000  Uiso   1.00
C153   C     0.99841   0.63859   0.84370   0.00000  Uiso   1.00
C154   C     0.96729   0.69177   0.94382   0.00000  Uiso   1.00
C155   C     0.93621   0.74550   0.84543   0.00000  Uiso   1.00
C156   C     0.10707   0.57642   0.84300   0.00000  Uiso   1.00
C157   C     0.16729   0.57732   0.94255   0.00000  Uiso   1.00
C158   C     0.22768   0.57871   0.84359   0.00000  Uiso   1.00
C159   C     0.00069   0.51016   0.84160   0.00000  Uiso   1.00
C160   C     0.97150   0.45534   0.93995   0.00000  Uiso   1.00
C161   C     0.94235   0.40094   0.83980   0.00000  Uiso   1.00
H162   H     0.03557   0.57608   0.42143   0.00000  Uiso   1.00
H163   H     0.96753   0.69307   0.40528   0.00000  Uiso   1.00
H164   H     0.16750   0.57863   0.40401   0.00000  Uiso   1.00
H165   H     0.97174   0.45667   0.40141   0.00000  Uiso   1.00
H166   H     0.89208   0.82257   0.47187   0.00000  Uiso   1.00
H167   H     0.31373   0.58124   0.46919   0.00000  Uiso   1.00
H168   H     0.90094   0.32408   0.46371   0.00000  Uiso   1.00
H169   H     0.03529   0.57449   0.07251   0.00000  Uiso   1.00
H170   H     0.96724   0.69139   0.09209   0.00000  Uiso   1.00
H171   H     0.16721   0.57695   0.09081   0.00000  Uiso   1.00
H172   H     0.97145   0.45500   0.08821   0.00000  Uiso   1.00
H173   H     0.89185   0.82122   0.02930   0.00000  Uiso   1.00
H174   H     0.31350   0.57988   0.02662   0.00000  Uiso   1.00
H175   H     0.90070   0.32272   0.02114   0.00000  Uiso   1.00
O176   O     0.84722   0.89884   0.75172   0.00000  Uiso   1.00
O177   O     0.40041   0.58220   0.74820   0.00000  Uiso   1.00
O178   O     0.85883   0.24481   0.74101   0.00000  Uiso   1.00
N179   N     0.90136   0.80620   0.60037   0.00000  Uiso   1.00
N180   N     0.29557   0.58059   0.59787   0.00000  Uiso   1.00
N181   N     0.90966   0.34015   0.59274   0.00000  Uiso   1.00
N182   N     0.90123   0.80547   0.90033   0.00000  Uiso   1.00
N183   N     0.29544   0.57985   0.89782   0.00000  Uiso   1.00
N184   N     0.90953   0.33942   0.89269   0.00000  Uiso   1.00
