data_job_01647
_audit_creation_date              2018-12-19
_audit_creation_method            'Materials Studio'
_symmetry_space_group_name_H-M    'P1'
_symmetry_Int_Tables_number       1
_symmetry_cell_setting            triclinic
loop_
_symmetry_equiv_pos_as_xyz
  x,y,z
_cell_length_a                    15.2130
_cell_length_b                    12.6112
_cell_length_c                    12.1779
_cell_angle_alpha                 90.0000
_cell_angle_beta                  90.0000
_cell_angle_gamma                 90.0000
loop_
_atom_site_label
_atom_site_type_symbol
_atom_site_fract_x
_atom_site_fract_y
_atom_site_fract_z
_atom_site_U_iso_or_equiv
_atom_site_adp_type
_atom_site_occupancy
C1     C     0.24752   0.99177   0.85351   0.00000  Uiso   1.00
C2     C     0.32708   0.01287   0.92649   0.00000  Uiso   1.00
C3     C     0.38882   0.09248   0.91096   0.00000  Uiso   1.00
C4     C     0.45678   0.09863   0.98679   0.00000  Uiso   1.00
C5     C     0.57944   0.14215   0.08666   0.00000  Uiso   1.00
C6     C     0.25541   0.87667   0.81643   0.00000  Uiso   1.00
C7     C     0.25688   0.84176   0.70836   0.00000  Uiso   1.00
C8     C     0.26449   0.73326   0.69156   0.00000  Uiso   1.00
C9     C     0.27582   0.56532   0.62056   0.00000  Uiso   1.00
C10    C     0.16754   0.99625   0.92884   0.00000  Uiso   1.00
C11    C     0.09511   0.06186   0.91527   0.00000  Uiso   1.00
C12    C     0.02872   0.05401   0.99309   0.00000  Uiso   1.00
C13    C     0.90361   0.07174   0.09663   0.00000  Uiso   1.00
C14    C     0.25841   0.86114   0.01581   0.00000  Uiso   1.00
C15    C     0.33299   0.94192   0.01464   0.00000  Uiso   1.00
C16    C     0.40087   0.94795   0.09052   0.00000  Uiso   1.00
C17    C     0.46270   0.02756   0.07511   0.00000  Uiso   1.00
C18    C     0.26132   0.80572   0.90458   0.00000  Uiso   1.00
C19    C     0.26893   0.69724   0.88793   0.00000  Uiso   1.00
C20    C     0.27042   0.66218   0.77987   0.00000  Uiso   1.00
C21    C     0.17345   0.92530   0.01699   0.00000  Uiso   1.00
C22    C     0.10716   0.91734   0.09484   0.00000  Uiso   1.00
C23    C     0.03464   0.98293   0.08140   0.00000  Uiso   1.00
H24    H     0.24292   0.04701   0.78488   0.00000  Uiso   1.00
H25    H     0.38423   0.14737   0.84272   0.00000  Uiso   1.00
H26    H     0.25230   0.89669   0.64016   0.00000  Uiso   1.00
H27    H     0.09055   0.11676   0.84705   0.00000  Uiso   1.00
H28    H     0.54352   0.22732   0.94570   0.00000  Uiso   1.00
H29    H     0.26531   0.69875   0.51860   0.00000  Uiso   1.00
H30    H     0.92424   0.16281   0.95485   0.00000  Uiso   1.00
H31    H     0.26301   0.80590   0.08444   0.00000  Uiso   1.00
H32    H     0.40543   0.89303   0.15873   0.00000  Uiso   1.00
H33    H     0.27350   0.64236   0.95617   0.00000  Uiso   1.00
H34    H     0.11175   0.86242   0.16305   0.00000  Uiso   1.00
H35    H     0.56073   0.02089   0.20218   0.00000  Uiso   1.00
H36    H     0.28252   0.49232   0.77508   0.00000  Uiso   1.00
H37    H     0.94145   0.95638   0.21133   0.00000  Uiso   1.00
O38    O     0.64547   0.18575   0.11738   0.00000  Uiso   1.00
O39    O     0.28045   0.49229   0.55704   0.00000  Uiso   1.00
O40    O     0.83297   0.10112   0.12939   0.00000  Uiso   1.00
N41    N     0.52802   0.16679   0.99588   0.00000  Uiso   1.00
N42    N     0.26792   0.67261   0.59657   0.00000  Uiso   1.00
N43    N     0.94904   0.10645   0.00441   0.00000  Uiso   1.00
N44    N     0.53728   0.05572   0.13389   0.00000  Uiso   1.00
N45    N     0.27718   0.56154   0.73458   0.00000  Uiso   1.00
N46    N     0.95829   0.99537   0.14242   0.00000  Uiso   1.00
C47    C     0.25248   0.00823   0.35351   0.00000  Uiso   1.00
C48    C     0.17292   0.98713   0.42649   0.00000  Uiso   1.00
C49    C     0.11118   0.90752   0.41096   0.00000  Uiso   1.00
C50    C     0.04322   0.90137   0.48679   0.00000  Uiso   1.00
C51    C     0.92056   0.85785   0.58666   0.00000  Uiso   1.00
C52    C     0.24459   0.12333   0.31643   0.00000  Uiso   1.00
C53    C     0.24312   0.15824   0.20836   0.00000  Uiso   1.00
C54    C     0.23551   0.26674   0.19156   0.00000  Uiso   1.00
C55    C     0.22418   0.43468   0.12056   0.00000  Uiso   1.00
C56    C     0.33246   0.00375   0.42884   0.00000  Uiso   1.00
C57    C     0.40489   0.93814   0.41527   0.00000  Uiso   1.00
C58    C     0.47128   0.94599   0.49309   0.00000  Uiso   1.00
C59    C     0.59639   0.92826   0.59663   0.00000  Uiso   1.00
C60    C     0.24159   0.13886   0.51581   0.00000  Uiso   1.00
C61    C     0.16701   0.05808   0.51464   0.00000  Uiso   1.00
C62    C     0.09913   0.05205   0.59052   0.00000  Uiso   1.00
C63    C     0.03730   0.97244   0.57511   0.00000  Uiso   1.00
C64    C     0.23868   0.19428   0.40458   0.00000  Uiso   1.00
C65    C     0.23107   0.30276   0.38793   0.00000  Uiso   1.00
C66    C     0.22958   0.33782   0.27987   0.00000  Uiso   1.00
C67    C     0.32655   0.07470   0.51699   0.00000  Uiso   1.00
C68    C     0.39284   0.08266   0.59484   0.00000  Uiso   1.00
C69    C     0.46536   0.01707   0.58140   0.00000  Uiso   1.00
H70    H     0.25708   0.95299   0.28488   0.00000  Uiso   1.00
H71    H     0.11577   0.85263   0.34272   0.00000  Uiso   1.00
H72    H     0.24770   0.10331   0.14016   0.00000  Uiso   1.00
H73    H     0.40945   0.88324   0.34705   0.00000  Uiso   1.00
H74    H     0.95648   0.77268   0.44570   0.00000  Uiso   1.00
H75    H     0.23469   0.30125   0.01860   0.00000  Uiso   1.00
H76    H     0.57576   0.83719   0.45485   0.00000  Uiso   1.00
H77    H     0.23699   0.19410   0.58444   0.00000  Uiso   1.00
H78    H     0.09457   0.10697   0.65873   0.00000  Uiso   1.00
H79    H     0.22650   0.35764   0.45617   0.00000  Uiso   1.00
H80    H     0.38825   0.13758   0.66305   0.00000  Uiso   1.00
H81    H     0.93927   0.97911   0.70218   0.00000  Uiso   1.00
H82    H     0.21748   0.50768   0.27508   0.00000  Uiso   1.00
H83    H     0.55855   0.04362   0.71133   0.00000  Uiso   1.00
O84    O     0.85453   0.81425   0.61738   0.00000  Uiso   1.00
O85    O     0.21955   0.50771   0.05704   0.00000  Uiso   1.00
O86    O     0.66703   0.89888   0.62939   0.00000  Uiso   1.00
N87    N     0.97198   0.83321   0.49588   0.00000  Uiso   1.00
N88    N     0.23208   0.32739   0.09657   0.00000  Uiso   1.00
N89    N     0.55096   0.89355   0.50441   0.00000  Uiso   1.00
N90    N     0.96272   0.94428   0.63389   0.00000  Uiso   1.00
N91    N     0.22282   0.43846   0.23458   0.00000  Uiso   1.00
N92    N     0.54171   0.00463   0.64242   0.00000  Uiso   1.00
C93    C     0.75248   0.49177   0.64649   0.00000  Uiso   1.00
C94    C     0.67292   0.51287   0.57351   0.00000  Uiso   1.00
C95    C     0.61118   0.59248   0.58904   0.00000  Uiso   1.00
C96    C     0.54322   0.59863   0.51321   0.00000  Uiso   1.00
C97    C     0.42056   0.64215   0.41334   0.00000  Uiso   1.00
C98    C     0.74459   0.37667   0.68357   0.00000  Uiso   1.00
C99    C     0.74312   0.34176   0.79164   0.00000  Uiso   1.00
C100   C     0.73551   0.23326   0.80844   0.00000  Uiso   1.00
C101   C     0.72418   0.06532   0.87944   0.00000  Uiso   1.00
C102   C     0.83246   0.49625   0.57116   0.00000  Uiso   1.00
C103   C     0.90489   0.56186   0.58473   0.00000  Uiso   1.00
C104   C     0.97128   0.55401   0.50691   0.00000  Uiso   1.00
C105   C     0.09639   0.57174   0.40337   0.00000  Uiso   1.00
C106   C     0.74159   0.36114   0.48419   0.00000  Uiso   1.00
C107   C     0.66701   0.44192   0.48536   0.00000  Uiso   1.00
C108   C     0.59913   0.44795   0.40948   0.00000  Uiso   1.00
C109   C     0.53730   0.52756   0.42489   0.00000  Uiso   1.00
C110   C     0.73868   0.30572   0.59542   0.00000  Uiso   1.00
C111   C     0.73107   0.19724   0.61207   0.00000  Uiso   1.00
C112   C     0.72958   0.16218   0.72013   0.00000  Uiso   1.00
C113   C     0.82655   0.42530   0.48301   0.00000  Uiso   1.00
C114   C     0.89284   0.41734   0.40516   0.00000  Uiso   1.00
C115   C     0.96536   0.48293   0.41860   0.00000  Uiso   1.00
H116   H     0.75708   0.54701   0.71512   0.00000  Uiso   1.00
H117   H     0.61577   0.64737   0.65728   0.00000  Uiso   1.00
H118   H     0.74770   0.39669   0.85984   0.00000  Uiso   1.00
H119   H     0.90945   0.61676   0.65295   0.00000  Uiso   1.00
H120   H     0.45648   0.72732   0.55430   0.00000  Uiso   1.00
H121   H     0.73469   0.19875   0.98140   0.00000  Uiso   1.00
H122   H     0.07576   0.66281   0.54515   0.00000  Uiso   1.00
H123   H     0.73699   0.30590   0.41556   0.00000  Uiso   1.00
H124   H     0.59457   0.39303   0.34127   0.00000  Uiso   1.00
H125   H     0.72650   0.14236   0.54383   0.00000  Uiso   1.00
H126   H     0.88825   0.36242   0.33695   0.00000  Uiso   1.00
H127   H     0.43927   0.52089   0.29782   0.00000  Uiso   1.00
H128   H     0.71748   0.99232   0.72492   0.00000  Uiso   1.00
H129   H     0.05855   0.45638   0.28867   0.00000  Uiso   1.00
O130   O     0.35453   0.68575   0.38262   0.00000  Uiso   1.00
O131   O     0.71955   0.99229   0.94296   0.00000  Uiso   1.00
O132   O     0.16703   0.60112   0.37061   0.00000  Uiso   1.00
N133   N     0.47198   0.66679   0.50412   0.00000  Uiso   1.00
N134   N     0.73208   0.17261   0.90343   0.00000  Uiso   1.00
N135   N     0.05096   0.60645   0.49559   0.00000  Uiso   1.00
N136   N     0.46272   0.55572   0.36611   0.00000  Uiso   1.00
N137   N     0.72282   0.06154   0.76542   0.00000  Uiso   1.00
N138   N     0.04171   0.49537   0.35758   0.00000  Uiso   1.00
C139   C     0.74752   0.50823   0.14649   0.00000  Uiso   1.00
C140   C     0.82708   0.48713   0.07351   0.00000  Uiso   1.00
C141   C     0.88882   0.40752   0.08904   0.00000  Uiso   1.00
C142   C     0.95678   0.40137   0.01321   0.00000  Uiso   1.00
C143   C     0.07944   0.35785   0.91334   0.00000  Uiso   1.00
C144   C     0.75541   0.62333   0.18357   0.00000  Uiso   1.00
C145   C     0.75688   0.65824   0.29164   0.00000  Uiso   1.00
C146   C     0.76449   0.76674   0.30844   0.00000  Uiso   1.00
C147   C     0.77582   0.93468   0.37944   0.00000  Uiso   1.00
C148   C     0.66754   0.50375   0.07116   0.00000  Uiso   1.00
C149   C     0.59511   0.43814   0.08473   0.00000  Uiso   1.00
C150   C     0.52872   0.44599   0.00691   0.00000  Uiso   1.00
C151   C     0.40361   0.42826   0.90337   0.00000  Uiso   1.00
C152   C     0.75841   0.63886   0.98419   0.00000  Uiso   1.00
C153   C     0.83299   0.55808   0.98536   0.00000  Uiso   1.00
C154   C     0.90087   0.55205   0.90948   0.00000  Uiso   1.00
C155   C     0.96270   0.47244   0.92489   0.00000  Uiso   1.00
C156   C     0.76132   0.69428   0.09542   0.00000  Uiso   1.00
C157   C     0.76893   0.80276   0.11207   0.00000  Uiso   1.00
C158   C     0.77042   0.83782   0.22013   0.00000  Uiso   1.00
C159   C     0.67345   0.57470   0.98301   0.00000  Uiso   1.00
C160   C     0.60716   0.58266   0.90516   0.00000  Uiso   1.00
C161   C     0.53464   0.51707   0.91860   0.00000  Uiso   1.00
H162   H     0.74292   0.45299   0.21512   0.00000  Uiso   1.00
H163   H     0.88423   0.35263   0.15728   0.00000  Uiso   1.00
H164   H     0.75230   0.60331   0.35984   0.00000  Uiso   1.00
H165   H     0.59055   0.38324   0.15295   0.00000  Uiso   1.00
H166   H     0.04352   0.27268   0.05430   0.00000  Uiso   1.00
H167   H     0.76531   0.80125   0.48140   0.00000  Uiso   1.00
H168   H     0.42424   0.33719   0.04515   0.00000  Uiso   1.00
H169   H     0.76301   0.69410   0.91556   0.00000  Uiso   1.00
H170   H     0.90543   0.60697   0.84127   0.00000  Uiso   1.00
H171   H     0.77350   0.85764   0.04383   0.00000  Uiso   1.00
H172   H     0.61175   0.63758   0.83695   0.00000  Uiso   1.00
H173   H     0.06073   0.47911   0.79782   0.00000  Uiso   1.00
H174   H     0.78252   0.00768   0.22492   0.00000  Uiso   1.00
H175   H     0.44145   0.54362   0.78867   0.00000  Uiso   1.00
O176   O     0.14547   0.31425   0.88262   0.00000  Uiso   1.00
O177   O     0.78045   0.00771   0.44296   0.00000  Uiso   1.00
O178   O     0.33297   0.39888   0.87061   0.00000  Uiso   1.00
N179   N     0.02802   0.33321   0.00412   0.00000  Uiso   1.00
N180   N     0.76792   0.82739   0.40343   0.00000  Uiso   1.00
N181   N     0.44904   0.39355   0.99559   0.00000  Uiso   1.00
N182   N     0.03728   0.44428   0.86611   0.00000  Uiso   1.00
N183   N     0.77718   0.93846   0.26542   0.00000  Uiso   1.00
N184   N     0.45829   0.50463   0.85758   0.00000  Uiso   1.00
