data_job_04172
_audit_creation_date              2018-12-19
_audit_creation_method            'Materials Studio'
_symmetry_space_group_name_H-M    'P1'
_symmetry_Int_Tables_number       1
_symmetry_cell_setting            triclinic
loop_
_symmetry_equiv_pos_as_xyz
  x,y,z
_cell_length_a                    9.0868
_cell_length_b                    12.4633
_cell_length_c                    35.6810
_cell_angle_alpha                 90.0000
_cell_angle_beta                  98.3836
_cell_angle_gamma                 90.0000
loop_
_atom_site_label
_atom_site_type_symbol
_atom_site_fract_x
_atom_site_fract_y
_atom_site_fract_z
_atom_site_U_iso_or_equiv
_atom_site_adp_type
_atom_site_occupancy
C1     C     0.13585   0.22385   0.55035   0.00000  Uiso   1.00
C2     C     0.20235   0.32942   0.53918   0.00000  Uiso   1.00
C3     C     0.14816   0.39161   0.50794   0.00000  Uiso   1.00
C4     C     0.22480   0.48546   0.50264   0.00000  Uiso   1.00
C5     C     0.30890   0.64473   0.48148   0.00000  Uiso   1.00
C6     C     0.26076   0.14133   0.55270   0.00000  Uiso   1.00
C7     C     0.25567   0.04536   0.53282   0.00000  Uiso   1.00
C8     C     0.38148   0.98087   0.53890   0.00000  Uiso   1.00
C9     C     0.55622   0.84808   0.53875   0.00000  Uiso   1.00
C10    C     0.10376   0.23923   0.59078   0.00000  Uiso   1.00
C11    C     0.96666   0.22555   0.60292   0.00000  Uiso   1.00
C12    C     0.96030   0.24346   0.64106   0.00000  Uiso   1.00
C13    C     0.89127   0.26268   0.70002   0.00000  Uiso   1.00
C14    C     0.36833   0.27995   0.59649   0.00000  Uiso   1.00
C15    C     0.32863   0.35989   0.56424   0.00000  Uiso   1.00
C16    C     0.40537   0.45368   0.55899   0.00000  Uiso   1.00
C17    C     0.35130   0.51599   0.52774   0.00000  Uiso   1.00
C18    C     0.38704   0.17179   0.57776   0.00000  Uiso   1.00
C19    C     0.51288   0.10743   0.58387   0.00000  Uiso   1.00
C20    C     0.50798   0.01139   0.56401   0.00000  Uiso   1.00
C21    C     0.23003   0.26970   0.61584   0.00000  Uiso   1.00
C22    C     0.22388   0.28763   0.65396   0.00000  Uiso   1.00
C23    C     0.08681   0.27399   0.66616   0.00000  Uiso   1.00
H24    H     0.03754   0.20012   0.53084   0.00000  Uiso   1.00
H25    H     0.05044   0.36800   0.48855   0.00000  Uiso   1.00
H26    H     0.15792   0.02180   0.51344   0.00000  Uiso   1.00
H27    H     0.86897   0.20197   0.58352   0.00000  Uiso   1.00
H28    H     0.12045   0.56754   0.45271   0.00000  Uiso   1.00
H29    H     0.34708   0.83754   0.50519   0.00000  Uiso   1.00
H30    H     0.73776   0.21746   0.65297   0.00000  Uiso   1.00
H31    H     0.46665   0.30367   0.61600   0.00000  Uiso   1.00
H32    H     0.50309   0.47724   0.57838   0.00000  Uiso   1.00
H33    H     0.61058   0.13103   0.60327   0.00000  Uiso   1.00
H34    H     0.32163   0.31120   0.67335   0.00000  Uiso   1.00
H35    H     0.48785   0.65620   0.52562   0.00000  Uiso   1.00
H36    H     0.71447   0.92619   0.57810   0.00000  Uiso   1.00
H37    H     0.10516   0.30612   0.72588   0.00000  Uiso   1.00
O38    O     0.32041   0.72416   0.46288   0.00000  Uiso   1.00
O39    O     0.61772   0.76642   0.53173   0.00000  Uiso   1.00
O40    O     0.81831   0.26488   0.72562   0.00000  Uiso   1.00
N41    N     0.20190   0.56460   0.47504   0.00000  Uiso   1.00
N42    N     0.41379   0.88210   0.52410   0.00000  Uiso   1.00
N43    N     0.84414   0.23727   0.66226   0.00000  Uiso   1.00
N44    N     0.39959   0.61230   0.51427   0.00000  Uiso   1.00
N45    N     0.61148   0.92980   0.56333   0.00000  Uiso   1.00
N46    N     0.04183   0.28498   0.70150   0.00000  Uiso   1.00
C47    C     0.86415   0.22385   0.94965   0.00000  Uiso   1.00
C48    C     0.79765   0.32942   0.96082   0.00000  Uiso   1.00
C49    C     0.85184   0.39161   0.99206   0.00000  Uiso   1.00
C50    C     0.77520   0.48546   0.99736   0.00000  Uiso   1.00
C51    C     0.69110   0.64473   0.01852   0.00000  Uiso   1.00
C52    C     0.73924   0.14133   0.94730   0.00000  Uiso   1.00
C53    C     0.74433   0.04536   0.96718   0.00000  Uiso   1.00
C54    C     0.61852   0.98087   0.96110   0.00000  Uiso   1.00
C55    C     0.44378   0.84808   0.96125   0.00000  Uiso   1.00
C56    C     0.89624   0.23923   0.90922   0.00000  Uiso   1.00
C57    C     0.03334   0.22555   0.89708   0.00000  Uiso   1.00
C58    C     0.03970   0.24346   0.85894   0.00000  Uiso   1.00
C59    C     0.10873   0.26268   0.79998   0.00000  Uiso   1.00
C60    C     0.63167   0.27995   0.90351   0.00000  Uiso   1.00
C61    C     0.67137   0.35989   0.93576   0.00000  Uiso   1.00
C62    C     0.59463   0.45368   0.94101   0.00000  Uiso   1.00
C63    C     0.64870   0.51599   0.97226   0.00000  Uiso   1.00
C64    C     0.61296   0.17179   0.92224   0.00000  Uiso   1.00
C65    C     0.48712   0.10743   0.91613   0.00000  Uiso   1.00
C66    C     0.49202   0.01139   0.93599   0.00000  Uiso   1.00
C67    C     0.76997   0.26970   0.88416   0.00000  Uiso   1.00
C68    C     0.77612   0.28763   0.84604   0.00000  Uiso   1.00
C69    C     0.91319   0.27399   0.83384   0.00000  Uiso   1.00
H70    H     0.96246   0.20012   0.96916   0.00000  Uiso   1.00
H71    H     0.94956   0.36800   0.01145   0.00000  Uiso   1.00
H72    H     0.84208   0.02180   0.98656   0.00000  Uiso   1.00
H73    H     0.13103   0.20197   0.91648   0.00000  Uiso   1.00
H74    H     0.87955   0.56754   0.04729   0.00000  Uiso   1.00
H75    H     0.65292   0.83754   0.99481   0.00000  Uiso   1.00
H76    H     0.26224   0.21746   0.84703   0.00000  Uiso   1.00
H77    H     0.53335   0.30367   0.88400   0.00000  Uiso   1.00
H78    H     0.49691   0.47724   0.92162   0.00000  Uiso   1.00
H79    H     0.38942   0.13103   0.89673   0.00000  Uiso   1.00
H80    H     0.67837   0.31120   0.82665   0.00000  Uiso   1.00
H81    H     0.51215   0.65620   0.97438   0.00000  Uiso   1.00
H82    H     0.28553   0.92619   0.92190   0.00000  Uiso   1.00
H83    H     0.89484   0.30612   0.77412   0.00000  Uiso   1.00
O84    O     0.67959   0.72416   0.03712   0.00000  Uiso   1.00
O85    O     0.38228   0.76642   0.96827   0.00000  Uiso   1.00
O86    O     0.18169   0.26488   0.77438   0.00000  Uiso   1.00
N87    N     0.79810   0.56460   0.02496   0.00000  Uiso   1.00
N88    N     0.58621   0.88210   0.97590   0.00000  Uiso   1.00
N89    N     0.15586   0.23727   0.83774   0.00000  Uiso   1.00
N90    N     0.60041   0.61230   0.98573   0.00000  Uiso   1.00
N91    N     0.38852   0.92980   0.93667   0.00000  Uiso   1.00
N92    N     0.95817   0.28498   0.79850   0.00000  Uiso   1.00
C93    C     0.86415   0.77615   0.44965   0.00000  Uiso   1.00
C94    C     0.79765   0.67058   0.46082   0.00000  Uiso   1.00
C95    C     0.85184   0.60839   0.49206   0.00000  Uiso   1.00
C96    C     0.77520   0.51454   0.49736   0.00000  Uiso   1.00
C97    C     0.69110   0.35527   0.51852   0.00000  Uiso   1.00
C98    C     0.73924   0.85867   0.44730   0.00000  Uiso   1.00
C99    C     0.74433   0.95464   0.46718   0.00000  Uiso   1.00
C100   C     0.61852   0.01913   0.46110   0.00000  Uiso   1.00
C101   C     0.44378   0.15192   0.46125   0.00000  Uiso   1.00
C102   C     0.89624   0.76077   0.40922   0.00000  Uiso   1.00
C103   C     0.03334   0.77445   0.39708   0.00000  Uiso   1.00
C104   C     0.03970   0.75654   0.35894   0.00000  Uiso   1.00
C105   C     0.10873   0.73732   0.29998   0.00000  Uiso   1.00
C106   C     0.63167   0.72005   0.40351   0.00000  Uiso   1.00
C107   C     0.67137   0.64011   0.43576   0.00000  Uiso   1.00
C108   C     0.59463   0.54632   0.44101   0.00000  Uiso   1.00
C109   C     0.64870   0.48401   0.47226   0.00000  Uiso   1.00
C110   C     0.61296   0.82821   0.42224   0.00000  Uiso   1.00
C111   C     0.48712   0.89257   0.41613   0.00000  Uiso   1.00
C112   C     0.49202   0.98861   0.43599   0.00000  Uiso   1.00
C113   C     0.76997   0.73030   0.38416   0.00000  Uiso   1.00
C114   C     0.77612   0.71237   0.34604   0.00000  Uiso   1.00
C115   C     0.91319   0.72601   0.33384   0.00000  Uiso   1.00
H116   H     0.96246   0.79988   0.46916   0.00000  Uiso   1.00
H117   H     0.94956   0.63200   0.51145   0.00000  Uiso   1.00
H118   H     0.84208   0.97820   0.48656   0.00000  Uiso   1.00
H119   H     0.13103   0.79803   0.41648   0.00000  Uiso   1.00
H120   H     0.87955   0.43246   0.54729   0.00000  Uiso   1.00
H121   H     0.65292   0.16246   0.49481   0.00000  Uiso   1.00
H122   H     0.26224   0.78254   0.34703   0.00000  Uiso   1.00
H123   H     0.53335   0.69633   0.38400   0.00000  Uiso   1.00
H124   H     0.49691   0.52276   0.42162   0.00000  Uiso   1.00
H125   H     0.38942   0.86897   0.39673   0.00000  Uiso   1.00
H126   H     0.67837   0.68880   0.32665   0.00000  Uiso   1.00
H127   H     0.51215   0.34380   0.47438   0.00000  Uiso   1.00
H128   H     0.28553   0.07381   0.42190   0.00000  Uiso   1.00
H129   H     0.89484   0.69388   0.27412   0.00000  Uiso   1.00
O130   O     0.67959   0.27584   0.53712   0.00000  Uiso   1.00
O131   O     0.38228   0.23358   0.46827   0.00000  Uiso   1.00
O132   O     0.18169   0.73512   0.27438   0.00000  Uiso   1.00
N133   N     0.79810   0.43540   0.52496   0.00000  Uiso   1.00
N134   N     0.58621   0.11790   0.47590   0.00000  Uiso   1.00
N135   N     0.15586   0.76273   0.33774   0.00000  Uiso   1.00
N136   N     0.60041   0.38770   0.48573   0.00000  Uiso   1.00
N137   N     0.38852   0.07020   0.43667   0.00000  Uiso   1.00
N138   N     0.95817   0.71502   0.29850   0.00000  Uiso   1.00
C139   C     0.13585   0.77615   0.05035   0.00000  Uiso   1.00
C140   C     0.20235   0.67058   0.03918   0.00000  Uiso   1.00
C141   C     0.14816   0.60839   0.00794   0.00000  Uiso   1.00
C142   C     0.22480   0.51454   0.00264   0.00000  Uiso   1.00
C143   C     0.30890   0.35527   0.98148   0.00000  Uiso   1.00
C144   C     0.26076   0.85867   0.05270   0.00000  Uiso   1.00
C145   C     0.25567   0.95464   0.03282   0.00000  Uiso   1.00
C146   C     0.38148   0.01913   0.03890   0.00000  Uiso   1.00
C147   C     0.55622   0.15192   0.03875   0.00000  Uiso   1.00
C148   C     0.10376   0.76077   0.09078   0.00000  Uiso   1.00
C149   C     0.96666   0.77445   0.10292   0.00000  Uiso   1.00
C150   C     0.96030   0.75654   0.14106   0.00000  Uiso   1.00
C151   C     0.89127   0.73732   0.20002   0.00000  Uiso   1.00
C152   C     0.36833   0.72005   0.09649   0.00000  Uiso   1.00
C153   C     0.32863   0.64011   0.06424   0.00000  Uiso   1.00
C154   C     0.40537   0.54632   0.05899   0.00000  Uiso   1.00
C155   C     0.35130   0.48401   0.02774   0.00000  Uiso   1.00
C156   C     0.38704   0.82821   0.07776   0.00000  Uiso   1.00
C157   C     0.51288   0.89257   0.08387   0.00000  Uiso   1.00
C158   C     0.50798   0.98861   0.06401   0.00000  Uiso   1.00
C159   C     0.23003   0.73030   0.11584   0.00000  Uiso   1.00
C160   C     0.22388   0.71237   0.15396   0.00000  Uiso   1.00
C161   C     0.08681   0.72601   0.16616   0.00000  Uiso   1.00
H162   H     0.03754   0.79988   0.03084   0.00000  Uiso   1.00
H163   H     0.05044   0.63200   0.98855   0.00000  Uiso   1.00
H164   H     0.15792   0.97820   0.01344   0.00000  Uiso   1.00
H165   H     0.86897   0.79803   0.08352   0.00000  Uiso   1.00
H166   H     0.12045   0.43246   0.95271   0.00000  Uiso   1.00
H167   H     0.34708   0.16246   0.00519   0.00000  Uiso   1.00
H168   H     0.73776   0.78254   0.15297   0.00000  Uiso   1.00
H169   H     0.46665   0.69633   0.11600   0.00000  Uiso   1.00
H170   H     0.50309   0.52276   0.07838   0.00000  Uiso   1.00
H171   H     0.61058   0.86897   0.10327   0.00000  Uiso   1.00
H172   H     0.32163   0.68880   0.17335   0.00000  Uiso   1.00
H173   H     0.48785   0.34380   0.02562   0.00000  Uiso   1.00
H174   H     0.71447   0.07381   0.07810   0.00000  Uiso   1.00
H175   H     0.10516   0.69388   0.22588   0.00000  Uiso   1.00
O176   O     0.32041   0.27584   0.96288   0.00000  Uiso   1.00
O177   O     0.61772   0.23358   0.03173   0.00000  Uiso   1.00
O178   O     0.81831   0.73512   0.22562   0.00000  Uiso   1.00
N179   N     0.20190   0.43540   0.97504   0.00000  Uiso   1.00
N180   N     0.41379   0.11790   0.02410   0.00000  Uiso   1.00
N181   N     0.84414   0.76273   0.16226   0.00000  Uiso   1.00
N182   N     0.39959   0.38770   0.01427   0.00000  Uiso   1.00
N183   N     0.61148   0.07020   0.06333   0.00000  Uiso   1.00
N184   N     0.04183   0.71502   0.20150   0.00000  Uiso   1.00
