data_job_05409
_audit_creation_date              2018-12-19
_audit_creation_method            'Materials Studio'
_symmetry_space_group_name_H-M    'P1'
_symmetry_Int_Tables_number       1
_symmetry_cell_setting            triclinic
loop_
_symmetry_equiv_pos_as_xyz
  x,y,z
_cell_length_a                    10.9481
_cell_length_b                    13.0565
_cell_length_c                    33.2826
_cell_angle_alpha                 90.0000
_cell_angle_beta                  90.0000
_cell_angle_gamma                 90.0000
loop_
_atom_site_label
_atom_site_type_symbol
_atom_site_fract_x
_atom_site_fract_y
_atom_site_fract_z
_atom_site_U_iso_or_equiv
_atom_site_adp_type
_atom_site_occupancy
C1     C     0.95135   0.31643   0.67379   0.00000  Uiso   1.00
C2     C     0.97144   0.20770   0.65842   0.00000  Uiso   1.00
C3     C     0.05134   0.13641   0.67473   0.00000  Uiso   1.00
C4     C     0.05646   0.04111   0.65630   0.00000  Uiso   1.00
C5     C     0.09868   0.87581   0.63752   0.00000  Uiso   1.00
C6     C     0.97651   0.38701   0.63823   0.00000  Uiso   1.00
C7     C     0.06065   0.46650   0.63758   0.00000  Uiso   1.00
C8     C     0.07002   0.52214   0.60216   0.00000  Uiso   1.00
C9     C     0.12005   0.63528   0.55206   0.00000  Uiso   1.00
C10    C     0.81499   0.32545   0.68241   0.00000  Uiso   1.00
C11    C     0.76331   0.35321   0.71890   0.00000  Uiso   1.00
C12    C     0.63669   0.35706   0.72068   0.00000  Uiso   1.00
C13    C     0.43593   0.37462   0.73917   0.00000  Uiso   1.00
C14    C     0.81837   0.27393   0.61207   0.00000  Uiso   1.00
C15    C     0.89921   0.18462   0.62489   0.00000  Uiso   1.00
C16    C     0.90421   0.08939   0.60644   0.00000  Uiso   1.00
C17    C     0.98409   0.01798   0.62272   0.00000  Uiso   1.00
C18    C     0.90428   0.36393   0.60471   0.00000  Uiso   1.00
C19    C     0.91352   0.41948   0.56929   0.00000  Uiso   1.00
C20    C     0.99766   0.49902   0.56858   0.00000  Uiso   1.00
C21    C     0.74275   0.30237   0.64889   0.00000  Uiso   1.00
C22    C     0.61618   0.30619   0.65061   0.00000  Uiso   1.00
C23    C     0.56433   0.33394   0.68709   0.00000  Uiso   1.00
H24    H     0.00759   0.33440   0.69989   0.00000  Uiso   1.00
H25    H     0.10723   0.15431   0.70067   0.00000  Uiso   1.00
H26    H     0.11653   0.48435   0.66353   0.00000  Uiso   1.00
H27    H     0.81924   0.37107   0.74484   0.00000  Uiso   1.00
H28    H     0.18587   0.94448   0.68674   0.00000  Uiso   1.00
H29    H     0.20545   0.64040   0.60843   0.00000  Uiso   1.00
H30    H     0.57856   0.40154   0.77989   0.00000  Uiso   1.00
H31    H     0.76213   0.25596   0.58596   0.00000  Uiso   1.00
H32    H     0.84830   0.07156   0.58049   0.00000  Uiso   1.00
H33    H     0.85760   0.40160   0.54335   0.00000  Uiso   1.00
H34    H     0.56031   0.28832   0.62466   0.00000  Uiso   1.00
H35    H     0.97572   0.87731   0.58920   0.00000  Uiso   1.00
H36    H     0.99530   0.57324   0.51089   0.00000  Uiso   1.00
H37    H     0.36841   0.33438   0.68235   0.00000  Uiso   1.00
O38    O     0.14194   0.79102   0.63642   0.00000  Uiso   1.00
O39    O     0.16761   0.70405   0.53368   0.00000  Uiso   1.00
O40    O     0.34514   0.39067   0.75863   0.00000  Uiso   1.00
N41    N     0.12457   0.95397   0.66454   0.00000  Uiso   1.00
N42    N     0.14289   0.60460   0.59132   0.00000  Uiso   1.00
N43    N     0.55680   0.38132   0.75162   0.00000  Uiso   1.00
N44    N     0.01149   0.91783   0.61205   0.00000  Uiso   1.00
N45    N     0.02981   0.56846   0.53884   0.00000  Uiso   1.00
N46    N     0.44372   0.34518   0.69913   0.00000  Uiso   1.00
C47    C     0.54865   0.68357   0.67379   0.00000  Uiso   1.00
C48    C     0.52856   0.79230   0.65842   0.00000  Uiso   1.00
C49    C     0.44866   0.86359   0.67473   0.00000  Uiso   1.00
C50    C     0.44354   0.95889   0.65630   0.00000  Uiso   1.00
C51    C     0.40132   0.12419   0.63752   0.00000  Uiso   1.00
C52    C     0.52349   0.61299   0.63823   0.00000  Uiso   1.00
C53    C     0.43935   0.53350   0.63758   0.00000  Uiso   1.00
C54    C     0.42998   0.47786   0.60216   0.00000  Uiso   1.00
C55    C     0.37995   0.36472   0.55206   0.00000  Uiso   1.00
C56    C     0.68501   0.67455   0.68241   0.00000  Uiso   1.00
C57    C     0.73669   0.64679   0.71890   0.00000  Uiso   1.00
C58    C     0.86331   0.64294   0.72068   0.00000  Uiso   1.00
C59    C     0.06407   0.62538   0.73917   0.00000  Uiso   1.00
C60    C     0.68163   0.72607   0.61207   0.00000  Uiso   1.00
C61    C     0.60079   0.81538   0.62489   0.00000  Uiso   1.00
C62    C     0.59579   0.91061   0.60644   0.00000  Uiso   1.00
C63    C     0.51591   0.98202   0.62272   0.00000  Uiso   1.00
C64    C     0.59572   0.63607   0.60471   0.00000  Uiso   1.00
C65    C     0.58648   0.58052   0.56929   0.00000  Uiso   1.00
C66    C     0.50234   0.50098   0.56858   0.00000  Uiso   1.00
C67    C     0.75725   0.69763   0.64889   0.00000  Uiso   1.00
C68    C     0.88382   0.69381   0.65061   0.00000  Uiso   1.00
C69    C     0.93567   0.66606   0.68709   0.00000  Uiso   1.00
H70    H     0.49241   0.66560   0.69989   0.00000  Uiso   1.00
H71    H     0.39277   0.84569   0.70067   0.00000  Uiso   1.00
H72    H     0.38347   0.51565   0.66353   0.00000  Uiso   1.00
H73    H     0.68076   0.62893   0.74484   0.00000  Uiso   1.00
H74    H     0.31413   0.05552   0.68674   0.00000  Uiso   1.00
H75    H     0.29455   0.35960   0.60843   0.00000  Uiso   1.00
H76    H     0.92144   0.59846   0.77989   0.00000  Uiso   1.00
H77    H     0.73787   0.74404   0.58596   0.00000  Uiso   1.00
H78    H     0.65170   0.92844   0.58049   0.00000  Uiso   1.00
H79    H     0.64240   0.59840   0.54335   0.00000  Uiso   1.00
H80    H     0.93969   0.71168   0.62466   0.00000  Uiso   1.00
H81    H     0.52428   0.12269   0.58920   0.00000  Uiso   1.00
H82    H     0.50470   0.42676   0.51089   0.00000  Uiso   1.00
H83    H     0.13159   0.66562   0.68235   0.00000  Uiso   1.00
O84    O     0.35806   0.20898   0.63642   0.00000  Uiso   1.00
O85    O     0.33239   0.29595   0.53368   0.00000  Uiso   1.00
O86    O     0.15486   0.60933   0.75863   0.00000  Uiso   1.00
N87    N     0.37543   0.04603   0.66454   0.00000  Uiso   1.00
N88    N     0.35711   0.39540   0.59132   0.00000  Uiso   1.00
N89    N     0.94320   0.61868   0.75162   0.00000  Uiso   1.00
N90    N     0.48851   0.08217   0.61205   0.00000  Uiso   1.00
N91    N     0.47019   0.43154   0.53884   0.00000  Uiso   1.00
N92    N     0.05628   0.65482   0.69913   0.00000  Uiso   1.00
C93    C     0.54865   0.81643   0.82621   0.00000  Uiso   1.00
C94    C     0.52856   0.70770   0.84158   0.00000  Uiso   1.00
C95    C     0.44866   0.63641   0.82527   0.00000  Uiso   1.00
C96    C     0.44354   0.54111   0.84370   0.00000  Uiso   1.00
C97    C     0.40132   0.37581   0.86248   0.00000  Uiso   1.00
C98    C     0.52349   0.88701   0.86177   0.00000  Uiso   1.00
C99    C     0.43935   0.96650   0.86242   0.00000  Uiso   1.00
C100   C     0.42998   0.02214   0.89784   0.00000  Uiso   1.00
C101   C     0.37995   0.13528   0.94794   0.00000  Uiso   1.00
C102   C     0.68501   0.82545   0.81759   0.00000  Uiso   1.00
C103   C     0.73669   0.85321   0.78110   0.00000  Uiso   1.00
C104   C     0.86331   0.85706   0.77932   0.00000  Uiso   1.00
C105   C     0.06407   0.87462   0.76083   0.00000  Uiso   1.00
C106   C     0.68163   0.77393   0.88793   0.00000  Uiso   1.00
C107   C     0.60079   0.68462   0.87511   0.00000  Uiso   1.00
C108   C     0.59579   0.58939   0.89356   0.00000  Uiso   1.00
C109   C     0.51591   0.51798   0.87728   0.00000  Uiso   1.00
C110   C     0.59572   0.86393   0.89529   0.00000  Uiso   1.00
C111   C     0.58648   0.91948   0.93071   0.00000  Uiso   1.00
C112   C     0.50234   0.99902   0.93142   0.00000  Uiso   1.00
C113   C     0.75725   0.80237   0.85111   0.00000  Uiso   1.00
C114   C     0.88382   0.80619   0.84939   0.00000  Uiso   1.00
C115   C     0.93567   0.83394   0.81291   0.00000  Uiso   1.00
H116   H     0.49241   0.83440   0.80011   0.00000  Uiso   1.00
H117   H     0.39277   0.65431   0.79933   0.00000  Uiso   1.00
H118   H     0.38347   0.98435   0.83647   0.00000  Uiso   1.00
H119   H     0.68076   0.87107   0.75516   0.00000  Uiso   1.00
H120   H     0.31413   0.44448   0.81326   0.00000  Uiso   1.00
H121   H     0.29455   0.14040   0.89157   0.00000  Uiso   1.00
H122   H     0.92144   0.90154   0.72011   0.00000  Uiso   1.00
H123   H     0.73787   0.75596   0.91404   0.00000  Uiso   1.00
H124   H     0.65170   0.57156   0.91951   0.00000  Uiso   1.00
H125   H     0.64240   0.90160   0.95665   0.00000  Uiso   1.00
H126   H     0.93969   0.78832   0.87534   0.00000  Uiso   1.00
H127   H     0.52428   0.37731   0.91080   0.00000  Uiso   1.00
H128   H     0.50470   0.07324   0.98911   0.00000  Uiso   1.00
H129   H     0.13159   0.83438   0.81765   0.00000  Uiso   1.00
O130   O     0.35806   0.29102   0.86358   0.00000  Uiso   1.00
O131   O     0.33239   0.20405   0.96632   0.00000  Uiso   1.00
O132   O     0.15486   0.89067   0.74137   0.00000  Uiso   1.00
N133   N     0.37543   0.45397   0.83546   0.00000  Uiso   1.00
N134   N     0.35711   0.10460   0.90868   0.00000  Uiso   1.00
N135   N     0.94320   0.88132   0.74838   0.00000  Uiso   1.00
N136   N     0.48851   0.41783   0.88795   0.00000  Uiso   1.00
N137   N     0.47019   0.06846   0.96116   0.00000  Uiso   1.00
N138   N     0.05628   0.84518   0.80087   0.00000  Uiso   1.00
C139   C     0.95135   0.18357   0.82621   0.00000  Uiso   1.00
C140   C     0.97144   0.29230   0.84158   0.00000  Uiso   1.00
C141   C     0.05134   0.36359   0.82527   0.00000  Uiso   1.00
C142   C     0.05646   0.45889   0.84370   0.00000  Uiso   1.00
C143   C     0.09868   0.62419   0.86248   0.00000  Uiso   1.00
C144   C     0.97651   0.11299   0.86177   0.00000  Uiso   1.00
C145   C     0.06065   0.03350   0.86242   0.00000  Uiso   1.00
C146   C     0.07002   0.97786   0.89784   0.00000  Uiso   1.00
C147   C     0.12005   0.86472   0.94794   0.00000  Uiso   1.00
C148   C     0.81499   0.17455   0.81759   0.00000  Uiso   1.00
C149   C     0.76331   0.14679   0.78110   0.00000  Uiso   1.00
C150   C     0.63669   0.14294   0.77932   0.00000  Uiso   1.00
C151   C     0.43593   0.12538   0.76083   0.00000  Uiso   1.00
C152   C     0.81837   0.22607   0.88793   0.00000  Uiso   1.00
C153   C     0.89921   0.31538   0.87511   0.00000  Uiso   1.00
C154   C     0.90421   0.41061   0.89356   0.00000  Uiso   1.00
C155   C     0.98409   0.48202   0.87728   0.00000  Uiso   1.00
C156   C     0.90428   0.13607   0.89529   0.00000  Uiso   1.00
C157   C     0.91352   0.08052   0.93071   0.00000  Uiso   1.00
C158   C     0.99766   0.00098   0.93142   0.00000  Uiso   1.00
C159   C     0.74275   0.19763   0.85111   0.00000  Uiso   1.00
C160   C     0.61618   0.19381   0.84939   0.00000  Uiso   1.00
C161   C     0.56433   0.16606   0.81291   0.00000  Uiso   1.00
H162   H     0.00759   0.16560   0.80011   0.00000  Uiso   1.00
H163   H     0.10723   0.34569   0.79933   0.00000  Uiso   1.00
H164   H     0.11653   0.01565   0.83647   0.00000  Uiso   1.00
H165   H     0.81924   0.12893   0.75516   0.00000  Uiso   1.00
H166   H     0.18587   0.55552   0.81326   0.00000  Uiso   1.00
H167   H     0.20545   0.85960   0.89157   0.00000  Uiso   1.00
H168   H     0.57856   0.09846   0.72011   0.00000  Uiso   1.00
H169   H     0.76213   0.24404   0.91404   0.00000  Uiso   1.00
H170   H     0.84830   0.42844   0.91951   0.00000  Uiso   1.00
H171   H     0.85760   0.09840   0.95665   0.00000  Uiso   1.00
H172   H     0.56031   0.21168   0.87534   0.00000  Uiso   1.00
H173   H     0.97572   0.62269   0.91080   0.00000  Uiso   1.00
H174   H     0.99530   0.92676   0.98911   0.00000  Uiso   1.00
H175   H     0.36841   0.16562   0.81765   0.00000  Uiso   1.00
O176   O     0.14194   0.70898   0.86358   0.00000  Uiso   1.00
O177   O     0.16761   0.79595   0.96632   0.00000  Uiso   1.00
O178   O     0.34514   0.10933   0.74137   0.00000  Uiso   1.00
N179   N     0.12457   0.54603   0.83546   0.00000  Uiso   1.00
N180   N     0.14289   0.89540   0.90868   0.00000  Uiso   1.00
N181   N     0.55680   0.11868   0.74838   0.00000  Uiso   1.00
N182   N     0.01149   0.58217   0.88795   0.00000  Uiso   1.00
N183   N     0.02981   0.93154   0.96116   0.00000  Uiso   1.00
N184   N     0.44372   0.15482   0.80087   0.00000  Uiso   1.00
C185   C     0.04865   0.68357   0.32621   0.00000  Uiso   1.00
C186   C     0.02856   0.79230   0.34158   0.00000  Uiso   1.00
C187   C     0.94866   0.86359   0.32527   0.00000  Uiso   1.00
C188   C     0.94354   0.95889   0.34370   0.00000  Uiso   1.00
C189   C     0.90132   0.12419   0.36248   0.00000  Uiso   1.00
C190   C     0.02349   0.61299   0.36177   0.00000  Uiso   1.00
C191   C     0.93935   0.53350   0.36242   0.00000  Uiso   1.00
C192   C     0.92998   0.47786   0.39784   0.00000  Uiso   1.00
C193   C     0.87995   0.36472   0.44794   0.00000  Uiso   1.00
C194   C     0.18501   0.67455   0.31759   0.00000  Uiso   1.00
C195   C     0.23669   0.64679   0.28110   0.00000  Uiso   1.00
C196   C     0.36331   0.64294   0.27932   0.00000  Uiso   1.00
C197   C     0.56407   0.62538   0.26083   0.00000  Uiso   1.00
C198   C     0.18163   0.72607   0.38793   0.00000  Uiso   1.00
C199   C     0.10079   0.81538   0.37511   0.00000  Uiso   1.00
C200   C     0.09579   0.91061   0.39356   0.00000  Uiso   1.00
C201   C     0.01591   0.98202   0.37728   0.00000  Uiso   1.00
C202   C     0.09572   0.63607   0.39529   0.00000  Uiso   1.00
C203   C     0.08648   0.58052   0.43071   0.00000  Uiso   1.00
C204   C     0.00234   0.50098   0.43142   0.00000  Uiso   1.00
C205   C     0.25725   0.69763   0.35111   0.00000  Uiso   1.00
C206   C     0.38382   0.69381   0.34939   0.00000  Uiso   1.00
C207   C     0.43567   0.66606   0.31291   0.00000  Uiso   1.00
H208   H     0.99241   0.66560   0.30011   0.00000  Uiso   1.00
H209   H     0.89277   0.84569   0.29933   0.00000  Uiso   1.00
H210   H     0.88347   0.51565   0.33647   0.00000  Uiso   1.00
H211   H     0.18076   0.62893   0.25516   0.00000  Uiso   1.00
H212   H     0.81413   0.05552   0.31326   0.00000  Uiso   1.00
H213   H     0.79455   0.35960   0.39157   0.00000  Uiso   1.00
H214   H     0.42144   0.59846   0.22011   0.00000  Uiso   1.00
H215   H     0.23787   0.74404   0.41404   0.00000  Uiso   1.00
H216   H     0.15170   0.92844   0.41951   0.00000  Uiso   1.00
H217   H     0.14240   0.59840   0.45665   0.00000  Uiso   1.00
H218   H     0.43969   0.71168   0.37534   0.00000  Uiso   1.00
H219   H     0.02428   0.12269   0.41080   0.00000  Uiso   1.00
H220   H     0.00470   0.42676   0.48911   0.00000  Uiso   1.00
H221   H     0.63159   0.66562   0.31765   0.00000  Uiso   1.00
O222   O     0.85806   0.20898   0.36358   0.00000  Uiso   1.00
O223   O     0.83239   0.29595   0.46632   0.00000  Uiso   1.00
O224   O     0.65486   0.60933   0.24137   0.00000  Uiso   1.00
N225   N     0.87543   0.04603   0.33546   0.00000  Uiso   1.00
N226   N     0.85711   0.39540   0.40868   0.00000  Uiso   1.00
N227   N     0.44320   0.61868   0.24838   0.00000  Uiso   1.00
N228   N     0.98851   0.08217   0.38795   0.00000  Uiso   1.00
N229   N     0.97019   0.43154   0.46116   0.00000  Uiso   1.00
N230   N     0.55628   0.65482   0.30087   0.00000  Uiso   1.00
C231   C     0.45135   0.31643   0.32621   0.00000  Uiso   1.00
C232   C     0.47144   0.20770   0.34158   0.00000  Uiso   1.00
C233   C     0.55134   0.13641   0.32527   0.00000  Uiso   1.00
C234   C     0.55646   0.04111   0.34370   0.00000  Uiso   1.00
C235   C     0.59868   0.87581   0.36248   0.00000  Uiso   1.00
C236   C     0.47651   0.38701   0.36177   0.00000  Uiso   1.00
C237   C     0.56065   0.46650   0.36242   0.00000  Uiso   1.00
C238   C     0.57002   0.52214   0.39784   0.00000  Uiso   1.00
C239   C     0.62005   0.63528   0.44794   0.00000  Uiso   1.00
C240   C     0.31499   0.32545   0.31759   0.00000  Uiso   1.00
C241   C     0.26331   0.35321   0.28110   0.00000  Uiso   1.00
C242   C     0.13669   0.35706   0.27932   0.00000  Uiso   1.00
C243   C     0.93593   0.37462   0.26083   0.00000  Uiso   1.00
C244   C     0.31837   0.27393   0.38793   0.00000  Uiso   1.00
C245   C     0.39921   0.18462   0.37511   0.00000  Uiso   1.00
C246   C     0.40421   0.08939   0.39356   0.00000  Uiso   1.00
C247   C     0.48409   0.01798   0.37728   0.00000  Uiso   1.00
C248   C     0.40428   0.36393   0.39529   0.00000  Uiso   1.00
C249   C     0.41352   0.41948   0.43071   0.00000  Uiso   1.00
C250   C     0.49766   0.49902   0.43142   0.00000  Uiso   1.00
C251   C     0.24275   0.30237   0.35111   0.00000  Uiso   1.00
C252   C     0.11618   0.30619   0.34939   0.00000  Uiso   1.00
C253   C     0.06433   0.33394   0.31291   0.00000  Uiso   1.00
H254   H     0.50759   0.33440   0.30011   0.00000  Uiso   1.00
H255   H     0.60723   0.15431   0.29933   0.00000  Uiso   1.00
H256   H     0.61653   0.48435   0.33647   0.00000  Uiso   1.00
H257   H     0.31924   0.37107   0.25516   0.00000  Uiso   1.00
H258   H     0.68587   0.94448   0.31326   0.00000  Uiso   1.00
H259   H     0.70545   0.64040   0.39157   0.00000  Uiso   1.00
H260   H     0.07856   0.40154   0.22011   0.00000  Uiso   1.00
H261   H     0.26213   0.25596   0.41404   0.00000  Uiso   1.00
H262   H     0.34830   0.07156   0.41951   0.00000  Uiso   1.00
H263   H     0.35760   0.40160   0.45665   0.00000  Uiso   1.00
H264   H     0.06031   0.28832   0.37534   0.00000  Uiso   1.00
H265   H     0.47572   0.87731   0.41080   0.00000  Uiso   1.00
H266   H     0.49530   0.57324   0.48911   0.00000  Uiso   1.00
H267   H     0.86841   0.33438   0.31765   0.00000  Uiso   1.00
O268   O     0.64194   0.79102   0.36358   0.00000  Uiso   1.00
O269   O     0.66761   0.70405   0.46632   0.00000  Uiso   1.00
O270   O     0.84514   0.39067   0.24137   0.00000  Uiso   1.00
N271   N     0.62457   0.95397   0.33546   0.00000  Uiso   1.00
N272   N     0.64289   0.60460   0.40868   0.00000  Uiso   1.00
N273   N     0.05680   0.38132   0.24838   0.00000  Uiso   1.00
N274   N     0.51149   0.91783   0.38795   0.00000  Uiso   1.00
N275   N     0.52981   0.56846   0.46116   0.00000  Uiso   1.00
N276   N     0.94372   0.34518   0.30087   0.00000  Uiso   1.00
C277   C     0.45135   0.18357   0.17379   0.00000  Uiso   1.00
C278   C     0.47144   0.29230   0.15842   0.00000  Uiso   1.00
C279   C     0.55134   0.36359   0.17473   0.00000  Uiso   1.00
C280   C     0.55646   0.45889   0.15630   0.00000  Uiso   1.00
C281   C     0.59868   0.62419   0.13752   0.00000  Uiso   1.00
C282   C     0.47651   0.11299   0.13823   0.00000  Uiso   1.00
C283   C     0.56065   0.03350   0.13758   0.00000  Uiso   1.00
C284   C     0.57002   0.97786   0.10216   0.00000  Uiso   1.00
C285   C     0.62005   0.86472   0.05206   0.00000  Uiso   1.00
C286   C     0.31499   0.17455   0.18241   0.00000  Uiso   1.00
C287   C     0.26331   0.14679   0.21890   0.00000  Uiso   1.00
C288   C     0.13669   0.14294   0.22068   0.00000  Uiso   1.00
C289   C     0.93593   0.12538   0.23917   0.00000  Uiso   1.00
C290   C     0.31837   0.22607   0.11207   0.00000  Uiso   1.00
C291   C     0.39921   0.31538   0.12489   0.00000  Uiso   1.00
C292   C     0.40421   0.41061   0.10644   0.00000  Uiso   1.00
C293   C     0.48409   0.48202   0.12272   0.00000  Uiso   1.00
C294   C     0.40428   0.13607   0.10471   0.00000  Uiso   1.00
C295   C     0.41352   0.08052   0.06929   0.00000  Uiso   1.00
C296   C     0.49766   0.00098   0.06858   0.00000  Uiso   1.00
C297   C     0.24275   0.19763   0.14889   0.00000  Uiso   1.00
C298   C     0.11618   0.19381   0.15061   0.00000  Uiso   1.00
C299   C     0.06433   0.16606   0.18709   0.00000  Uiso   1.00
H300   H     0.50759   0.16560   0.19989   0.00000  Uiso   1.00
H301   H     0.60723   0.34569   0.20067   0.00000  Uiso   1.00
H302   H     0.61653   0.01565   0.16353   0.00000  Uiso   1.00
H303   H     0.31924   0.12893   0.24484   0.00000  Uiso   1.00
H304   H     0.68587   0.55552   0.18674   0.00000  Uiso   1.00
H305   H     0.70545   0.85960   0.10843   0.00000  Uiso   1.00
H306   H     0.07856   0.09846   0.27989   0.00000  Uiso   1.00
H307   H     0.26213   0.24404   0.08596   0.00000  Uiso   1.00
H308   H     0.34830   0.42844   0.08049   0.00000  Uiso   1.00
H309   H     0.35760   0.09840   0.04335   0.00000  Uiso   1.00
H310   H     0.06031   0.21168   0.12466   0.00000  Uiso   1.00
H311   H     0.47572   0.62269   0.08920   0.00000  Uiso   1.00
H312   H     0.49530   0.92676   0.01089   0.00000  Uiso   1.00
H313   H     0.86841   0.16562   0.18235   0.00000  Uiso   1.00
O314   O     0.64194   0.70898   0.13642   0.00000  Uiso   1.00
O315   O     0.66761   0.79595   0.03368   0.00000  Uiso   1.00
O316   O     0.84514   0.10933   0.25863   0.00000  Uiso   1.00
N317   N     0.62457   0.54603   0.16454   0.00000  Uiso   1.00
N318   N     0.64289   0.89540   0.09132   0.00000  Uiso   1.00
N319   N     0.05680   0.11868   0.25162   0.00000  Uiso   1.00
N320   N     0.51149   0.58217   0.11205   0.00000  Uiso   1.00
N321   N     0.52981   0.93154   0.03884   0.00000  Uiso   1.00
N322   N     0.94372   0.15482   0.19913   0.00000  Uiso   1.00
C323   C     0.04865   0.81643   0.17379   0.00000  Uiso   1.00
C324   C     0.02856   0.70770   0.15842   0.00000  Uiso   1.00
C325   C     0.94866   0.63641   0.17473   0.00000  Uiso   1.00
C326   C     0.94354   0.54111   0.15630   0.00000  Uiso   1.00
C327   C     0.90132   0.37581   0.13752   0.00000  Uiso   1.00
C328   C     0.02349   0.88701   0.13823   0.00000  Uiso   1.00
C329   C     0.93935   0.96650   0.13758   0.00000  Uiso   1.00
C330   C     0.92998   0.02214   0.10216   0.00000  Uiso   1.00
C331   C     0.87995   0.13528   0.05206   0.00000  Uiso   1.00
C332   C     0.18501   0.82545   0.18241   0.00000  Uiso   1.00
C333   C     0.23669   0.85321   0.21890   0.00000  Uiso   1.00
C334   C     0.36331   0.85706   0.22068   0.00000  Uiso   1.00
C335   C     0.56407   0.87462   0.23917   0.00000  Uiso   1.00
C336   C     0.18163   0.77393   0.11207   0.00000  Uiso   1.00
C337   C     0.10079   0.68462   0.12489   0.00000  Uiso   1.00
C338   C     0.09579   0.58939   0.10644   0.00000  Uiso   1.00
C339   C     0.01591   0.51798   0.12272   0.00000  Uiso   1.00
C340   C     0.09572   0.86393   0.10471   0.00000  Uiso   1.00
C341   C     0.08648   0.91948   0.06929   0.00000  Uiso   1.00
C342   C     0.00234   0.99902   0.06858   0.00000  Uiso   1.00
C343   C     0.25725   0.80237   0.14889   0.00000  Uiso   1.00
C344   C     0.38382   0.80619   0.15061   0.00000  Uiso   1.00
C345   C     0.43567   0.83394   0.18709   0.00000  Uiso   1.00
H346   H     0.99241   0.83440   0.19989   0.00000  Uiso   1.00
H347   H     0.89277   0.65431   0.20067   0.00000  Uiso   1.00
H348   H     0.88347   0.98435   0.16353   0.00000  Uiso   1.00
H349   H     0.18076   0.87107   0.24484   0.00000  Uiso   1.00
H350   H     0.81413   0.44448   0.18674   0.00000  Uiso   1.00
H351   H     0.79455   0.14040   0.10843   0.00000  Uiso   1.00
H352   H     0.42144   0.90154   0.27989   0.00000  Uiso   1.00
H353   H     0.23787   0.75596   0.08596   0.00000  Uiso   1.00
H354   H     0.15170   0.57156   0.08049   0.00000  Uiso   1.00
H355   H     0.14240   0.90160   0.04335   0.00000  Uiso   1.00
H356   H     0.43969   0.78832   0.12466   0.00000  Uiso   1.00
H357   H     0.02428   0.37731   0.08920   0.00000  Uiso   1.00
H358   H     0.00470   0.07324   0.01089   0.00000  Uiso   1.00
H359   H     0.63159   0.83438   0.18235   0.00000  Uiso   1.00
O360   O     0.85806   0.29102   0.13642   0.00000  Uiso   1.00
O361   O     0.83239   0.20405   0.03368   0.00000  Uiso   1.00
O362   O     0.65486   0.89067   0.25863   0.00000  Uiso   1.00
N363   N     0.87543   0.45397   0.16454   0.00000  Uiso   1.00
N364   N     0.85711   0.10460   0.09132   0.00000  Uiso   1.00
N365   N     0.44320   0.88132   0.25162   0.00000  Uiso   1.00
N366   N     0.98851   0.41783   0.11205   0.00000  Uiso   1.00
N367   N     0.97019   0.06846   0.03884   0.00000  Uiso   1.00
N368   N     0.55628   0.84518   0.19913   0.00000  Uiso   1.00
