data_job_06674
_audit_creation_date              2018-12-19
_audit_creation_method            'Materials Studio'
_symmetry_space_group_name_H-M    'P1'
_symmetry_Int_Tables_number       1
_symmetry_cell_setting            triclinic
loop_
_symmetry_equiv_pos_as_xyz
  x,y,z
_cell_length_a                    12.4793
_cell_length_b                    26.9790
_cell_length_c                    27.5545
_cell_angle_alpha                 65.6412
_cell_angle_beta                  101.9487
_cell_angle_gamma                 82.4169
loop_
_atom_site_label
_atom_site_type_symbol
_atom_site_fract_x
_atom_site_fract_y
_atom_site_fract_z
_atom_site_U_iso_or_equiv
_atom_site_adp_type
_atom_site_occupancy
C1     C     0.41053   0.97193   0.72384   0.00000  Uiso   1.00
C2     C     0.35342   0.01567   0.66364   0.00000  Uiso   1.00
C3     C     0.34129   0.07314   0.64308   0.00000  Uiso   1.00
C4     C     0.28646   0.10608   0.58677   0.00000  Uiso   1.00
C5     C     0.20400   0.17761   0.49855   0.00000  Uiso   1.00
C6     C     0.32303   0.93974   0.74249   0.00000  Uiso   1.00
C7     C     0.28537   0.93336   0.78822   0.00000  Uiso   1.00
C8     C     0.20497   0.90237   0.79829   0.00000  Uiso   1.00
C9     C     0.07539   0.85598   0.83250   0.00000  Uiso   1.00
C10    C     0.50319   0.93045   0.72192   0.00000  Uiso   1.00
C11    C     0.61700   0.91624   0.75037   0.00000  Uiso   1.00
C12    C     0.68829   0.87743   0.74312   0.00000  Uiso   1.00
C13    C     0.83843   0.81661   0.74540   0.00000  Uiso   1.00
C14    C     0.33475   0.92824   0.66041   0.00000  Uiso   1.00
C15    C     0.31226   0.99193   0.62920   0.00000  Uiso   1.00
C16    C     0.25744   0.02480   0.57291   0.00000  Uiso   1.00
C17    C     0.24523   0.08231   0.55226   0.00000  Uiso   1.00
C18    C     0.28187   0.91600   0.70804   0.00000  Uiso   1.00
C19    C     0.20152   0.88502   0.71805   0.00000  Uiso   1.00
C20    C     0.16373   0.87860   0.76378   0.00000  Uiso   1.00
C21    C     0.46203   0.90671   0.68747   0.00000  Uiso   1.00
C22    C     0.53315   0.86790   0.68019   0.00000  Uiso   1.00
C23    C     0.64705   0.85365   0.70861   0.00000  Uiso   1.00
H24    H     0.44258   0.99041   0.75066   0.00000  Uiso   1.00
H25    H     0.37315   0.09149   0.66975   0.00000  Uiso   1.00
H26    H     0.31724   0.95173   0.81487   0.00000  Uiso   1.00
H27    H     0.64883   0.93462   0.77702   0.00000  Uiso   1.00
H28    H     0.27798   0.19310   0.56486   0.00000  Uiso   1.00
H29    H     0.16013   0.89838   0.87087   0.00000  Uiso   1.00
H30    H     0.85935   0.86230   0.79105   0.00000  Uiso   1.00
H31    H     0.30270   0.90976   0.63359   0.00000  Uiso   1.00
H32    H     0.22559   0.00642   0.54626   0.00000  Uiso   1.00
H33    H     0.16969   0.86665   0.69138   0.00000  Uiso   1.00
H34    H     0.50127   0.84955   0.65353   0.00000  Uiso   1.00
H35    H     0.15822   0.12405   0.46463   0.00000  Uiso   1.00
H36    H     0.04037   0.82933   0.77064   0.00000  Uiso   1.00
H37    H     0.73958   0.79325   0.69082   0.00000  Uiso   1.00
O38    O     0.16987   0.22362   0.45941   0.00000  Uiso   1.00
O39    O     0.01528   0.83695   0.86088   0.00000  Uiso   1.00
O40    O     0.93262   0.78962   0.75616   0.00000  Uiso   1.00
N41    N     0.26040   0.16358   0.55326   0.00000  Uiso   1.00
N42    N     0.15020   0.88804   0.83935   0.00000  Uiso   1.00
N43    N     0.80390   0.85430   0.76474   0.00000  Uiso   1.00
N44    N     0.19595   0.12643   0.49932   0.00000  Uiso   1.00
N45    N     0.08576   0.85089   0.78541   0.00000  Uiso   1.00
N46    N     0.73946   0.81715   0.71080   0.00000  Uiso   1.00
C47    C     0.58047   0.41906   0.97512   0.00000  Uiso   1.00
C48    C     0.52733   0.44338   0.00814   0.00000  Uiso   1.00
C49    C     0.57797   0.43419   0.06194   0.00000  Uiso   1.00
C50    C     0.51535   0.46021   0.08487   0.00000  Uiso   1.00
C51    C     0.44944   0.49277   0.14069   0.00000  Uiso   1.00
C52    C     0.49929   0.38756   0.95818   0.00000  Uiso   1.00
C53    C     0.52637   0.33143   0.96997   0.00000  Uiso   1.00
C54    C     0.44015   0.31047   0.95083   0.00000  Uiso   1.00
C55    C     0.33074   0.25638   0.92905   0.00000  Uiso   1.00
C56    C     0.57687   0.46911   0.92138   0.00000  Uiso   1.00
C57    C     0.66916   0.48156   0.90222   0.00000  Uiso   1.00
C58    C     0.64825   0.52925   0.85208   0.00000  Uiso   1.00
C59    C     0.65928   0.60179   0.77317   0.00000  Uiso   1.00
C60    C     0.37921   0.48162   0.92016   0.00000  Uiso   1.00
C61    C     0.41801   0.47735   0.97829   0.00000  Uiso   1.00
C62    C     0.35530   0.50340   0.00114   0.00000  Uiso   1.00
C63    C     0.40584   0.49425   0.05496   0.00000  Uiso   1.00
C64    C     0.38998   0.42153   0.92833   0.00000  Uiso   1.00
C65    C     0.30370   0.40064   0.90916   0.00000  Uiso   1.00
C66    C     0.33064   0.34450   0.92092   0.00000  Uiso   1.00
C67    C     0.46755   0.50309   0.89153   0.00000  Uiso   1.00
C68    C     0.44649   0.55077   0.84141   0.00000  Uiso   1.00
C69    C     0.53874   0.56328   0.82217   0.00000  Uiso   1.00
H70    H     0.66557   0.39261   0.99837   0.00000  Uiso   1.00
H71    H     0.66256   0.40789   0.08503   0.00000  Uiso   1.00
H72    H     0.61098   0.30515   0.99307   0.00000  Uiso   1.00
H73    H     0.75374   0.45526   0.92533   0.00000  Uiso   1.00
H74    H     0.61100   0.43979   0.16797   0.00000  Uiso   1.00
H75    H     0.50224   0.22318   0.97404   0.00000  Uiso   1.00
H76    H     0.80329   0.53970   0.83119   0.00000  Uiso   1.00
H77    H     0.29410   0.50807   0.89692   0.00000  Uiso   1.00
H78    H     0.27071   0.52969   0.97802   0.00000  Uiso   1.00
H79    H     0.21912   0.42695   0.88606   0.00000  Uiso   1.00
H80    H     0.36189   0.57705   0.81832   0.00000  Uiso   1.00
H81    H     0.29295   0.53865   0.08111   0.00000  Uiso   1.00
H82    H     0.18419   0.32203   0.88718   0.00000  Uiso   1.00
H83    H     0.48525   0.63855   0.74434   0.00000  Uiso   1.00
O84    O     0.44328   0.50134   0.17973   0.00000  Uiso   1.00
O85    O     0.30059   0.21715   0.92529   0.00000  Uiso   1.00
O86    O     0.69557   0.63242   0.73789   0.00000  Uiso   1.00
N87    N     0.53937   0.46010   0.13639   0.00000  Uiso   1.00
N88    N     0.43768   0.25758   0.95509   0.00000  Uiso   1.00
N89    N     0.71913   0.55349   0.82153   0.00000  Uiso   1.00
N90    N     0.36823   0.51329   0.08966   0.00000  Uiso   1.00
N91    N     0.26654   0.31077   0.90835   0.00000  Uiso   1.00
N92    N     0.54800   0.60668   0.77480   0.00000  Uiso   1.00
C93    C     0.12847   0.73878   0.36419   0.00000  Uiso   1.00
C94    C     0.08802   0.68484   0.38465   0.00000  Uiso   1.00
C95    C     0.11434   0.64094   0.37183   0.00000  Uiso   1.00
C96    C     0.06896   0.59526   0.39467   0.00000  Uiso   1.00
C97    C     0.01663   0.51177   0.42118   0.00000  Uiso   1.00
C98    C     0.02218   0.78670   0.33509   0.00000  Uiso   1.00
C99    C     0.99315   0.82844   0.28060   0.00000  Uiso   1.00
C100   C     0.89236   0.86851   0.26172   0.00000  Uiso   1.00
C101   C     0.73786   0.94318   0.21130   0.00000  Uiso   1.00
C102   C     0.18790   0.74271   0.41626   0.00000  Uiso   1.00
C103   C     0.29820   0.74749   0.43002   0.00000  Uiso   1.00
C104   C     0.33691   0.75054   0.47948   0.00000  Uiso   1.00
C105   C     0.43971   0.75691   0.55508   0.00000  Uiso   1.00
C106   C     0.00108   0.73572   0.42756   0.00000  Uiso   1.00
C107   C     0.01883   0.68318   0.41907   0.00000  Uiso   1.00
C108   C     0.97340   0.63755   0.44194   0.00000  Uiso   1.00
C109   C     0.99965   0.59359   0.42915   0.00000  Uiso   1.00
C110   C     0.95299   0.78504   0.36950   0.00000  Uiso   1.00
C111   C     0.85222   0.82505   0.35071   0.00000  Uiso   1.00
C112   C     0.82304   0.86684   0.29620   0.00000  Uiso   1.00
C113   C     0.11871   0.74105   0.45068   0.00000  Uiso   1.00
C114   C     0.15726   0.74410   0.50013   0.00000  Uiso   1.00
C115   C     0.26760   0.74887   0.51396   0.00000  Uiso   1.00
H116   H     0.18233   0.74008   0.33740   0.00000  Uiso   1.00
H117   H     0.16788   0.64224   0.34519   0.00000  Uiso   1.00
H118   H     0.04672   0.82972   0.25398   0.00000  Uiso   1.00
H119   H     0.35171   0.74877   0.40337   0.00000  Uiso   1.00
H120   H     0.12131   0.53305   0.36899   0.00000  Uiso   1.00
H121   H     0.86586   0.92836   0.17667   0.00000  Uiso   1.00
H122   H     0.50900   0.75768   0.49170   0.00000  Uiso   1.00
H123   H     0.94721   0.73443   0.45436   0.00000  Uiso   1.00
H124   H     0.91986   0.63628   0.46857   0.00000  Uiso   1.00
H125   H     0.79870   0.82376   0.37735   0.00000  Uiso   1.00
H126   H     0.10369   0.74281   0.52675   0.00000  Uiso   1.00
H127   H     0.92000   0.52821   0.46913   0.00000  Uiso   1.00
H128   H     0.66455   0.92353   0.27681   0.00000  Uiso   1.00
H129   H     0.30769   0.75284   0.59184   0.00000  Uiso   1.00
O130   O     0.00687   0.46618   0.42628   0.00000  Uiso   1.00
O131   O     0.67175   0.98482   0.17397   0.00000  Uiso   1.00
O132   O     0.51553   0.76087   0.58728   0.00000  Uiso   1.00
N133   N     0.07770   0.54538   0.39062   0.00000  Uiso   1.00
N134   N     0.83886   0.91497   0.21081   0.00000  Uiso   1.00
N135   N     0.44014   0.75540   0.50532   0.00000  Uiso   1.00
N136   N     0.96938   0.54277   0.44450   0.00000  Uiso   1.00
N137   N     0.73054   0.91236   0.26469   0.00000  Uiso   1.00
N138   N     0.33182   0.75280   0.55921   0.00000  Uiso   1.00
C139   C     0.96258   0.04968   0.63733   0.00000  Uiso   1.00
C140   C     0.89445   0.01280   0.62165   0.00000  Uiso   1.00
C141   C     0.93591   0.97023   0.60960   0.00000  Uiso   1.00
C142   C     0.86004   0.94134   0.59620   0.00000  Uiso   1.00
C143   C     0.77148   0.88204   0.57208   0.00000  Uiso   1.00
C144   C     0.94906   0.04290   0.69332   0.00000  Uiso   1.00
C145   C     0.03644   0.02564   0.74152   0.00000  Uiso   1.00
C146   C     0.00653   0.02210   0.78845   0.00000  Uiso   1.00
C147   C     0.00276   0.00957   0.87559   0.00000  Uiso   1.00
C148   C     0.90139   0.11005   0.59540   0.00000  Uiso   1.00
C149   C     0.94869   0.14927   0.56127   0.00000  Uiso   1.00
C150   C     0.87865   0.20228   0.52577   0.00000  Uiso   1.00
C151   C     0.80087   0.29402   0.46087   0.00000  Uiso   1.00
C152   C     0.75412   0.07408   0.63496   0.00000  Uiso   1.00
C153   C     0.78122   0.02605   0.62037   0.00000  Uiso   1.00
C154   C     0.70527   0.99722   0.60698   0.00000  Uiso   1.00
C155   C     0.74661   0.95462   0.59491   0.00000  Uiso   1.00
C156   C     0.83583   0.05615   0.69203   0.00000  Uiso   1.00
C157   C     0.80580   0.05263   0.73890   0.00000  Uiso   1.00
C158   C     0.89310   0.03538   0.78716   0.00000  Uiso   1.00
C159   C     0.78816   0.12331   0.59411   0.00000  Uiso   1.00
C160   C     0.71804   0.17626   0.55865   0.00000  Uiso   1.00
C161   C     0.76522   0.21555   0.52448   0.00000  Uiso   1.00
H162   H     0.05074   0.03936   0.63833   0.00000  Uiso   1.00
H163   H     0.02354   0.95998   0.61060   0.00000  Uiso   1.00
H164   H     0.12405   0.01540   0.74250   0.00000  Uiso   1.00
H165   H     0.03631   0.13900   0.56228   0.00000  Uiso   1.00
H166   H     0.94347   0.87781   0.57931   0.00000  Uiso   1.00
H167   H     0.15540   0.99467   0.85743   0.00000  Uiso   1.00
H168   H     0.97038   0.25532   0.47740   0.00000  Uiso   1.00
H169   H     0.66596   0.08439   0.63396   0.00000  Uiso   1.00
H170   H     0.61765   0.00748   0.60599   0.00000  Uiso   1.00
H171   H     0.71817   0.06289   0.73789   0.00000  Uiso   1.00
H172   H     0.63043   0.18650   0.55767   0.00000  Uiso   1.00
H173   H     0.61403   0.91636   0.57557   0.00000  Uiso   1.00
H174   H     0.82597   0.03322   0.85368   0.00000  Uiso   1.00
H175   H     0.64095   0.29387   0.47365   0.00000  Uiso   1.00
O176   O     0.75392   0.84567   0.55913   0.00000  Uiso   1.00
O177   O     0.03197   0.99899   0.92401   0.00000  Uiso   1.00
O178   O     0.78923   0.34096   0.42542   0.00000  Uiso   1.00
N179   N     0.87256   0.89744   0.58226   0.00000  Uiso   1.00
N180   N     0.07070   0.00669   0.84228   0.00000  Uiso   1.00
N181   N     0.89774   0.25038   0.48700   0.00000  Uiso   1.00
N182   N     0.69529   0.91819   0.58024   0.00000  Uiso   1.00
N183   N     0.89344   0.02743   0.84027   0.00000  Uiso   1.00
N184   N     0.72047   0.27113   0.48498   0.00000  Uiso   1.00
C185   C     0.61291   0.74007   0.33057   0.00000  Uiso   1.00
C186   C     0.63392   0.70225   0.39244   0.00000  Uiso   1.00
C187   C     0.66007   0.71800   0.43463   0.00000  Uiso   1.00
C188   C     0.67614   0.67725   0.48856   0.00000  Uiso   1.00
C189   C     0.71018   0.62683   0.58290   0.00000  Uiso   1.00
C190   C     0.49606   0.73860   0.30158   0.00000  Uiso   1.00
C191   C     0.40631   0.78492   0.26737   0.00000  Uiso   1.00
C192   C     0.30633   0.77477   0.24480   0.00000  Uiso   1.00
C193   C     0.12637   0.78078   0.19806   0.00000  Uiso   1.00
C194   C     0.69644   0.71057   0.31190   0.00000  Uiso   1.00
C195   C     0.77516   0.73333   0.28637   0.00000  Uiso   1.00
C196   C     0.84388   0.69958   0.27248   0.00000  Uiso   1.00
C197   C     0.97505   0.66208   0.24177   0.00000  Uiso   1.00
C198   C     0.59495   0.63969   0.35130   0.00000  Uiso   1.00
C199   C     0.62415   0.64773   0.40369   0.00000  Uiso   1.00
C200   C     0.64019   0.60694   0.45757   0.00000  Uiso   1.00
C201   C     0.66637   0.62263   0.49984   0.00000  Uiso   1.00
C202   C     0.48630   0.68408   0.31283   0.00000  Uiso   1.00
C203   C     0.38643   0.67386   0.29031   0.00000  Uiso   1.00
C204   C     0.29655   0.72015   0.25608   0.00000  Uiso   1.00
C205   C     0.68669   0.65605   0.32316   0.00000  Uiso   1.00
C206   C     0.75529   0.62227   0.30931   0.00000  Uiso   1.00
C207   C     0.83410   0.64496   0.28376   0.00000  Uiso   1.00
H208   H     0.62050   0.78252   0.32180   0.00000  Uiso   1.00
H209   H     0.66760   0.76020   0.42590   0.00000  Uiso   1.00
H210   H     0.41389   0.82711   0.25866   0.00000  Uiso   1.00
H211   H     0.78269   0.77552   0.27766   0.00000  Uiso   1.00
H212   H     0.71547   0.71142   0.54628   0.00000  Uiso   1.00
H213   H     0.18051   0.85249   0.19363   0.00000  Uiso   1.00
H214   H     0.95820   0.74371   0.23369   0.00000  Uiso   1.00
H215   H     0.58735   0.59724   0.36007   0.00000  Uiso   1.00
H216   H     0.63264   0.56476   0.46627   0.00000  Uiso   1.00
H217   H     0.37892   0.63166   0.29903   0.00000  Uiso   1.00
H218   H     0.74772   0.58008   0.31803   0.00000  Uiso   1.00
H219   H     0.68709   0.55279   0.57904   0.00000  Uiso   1.00
H220   H     0.15213   0.69387   0.22639   0.00000  Uiso   1.00
H221   H     0.92982   0.58508   0.26645   0.00000  Uiso   1.00
O222   O     0.73163   0.61408   0.63183   0.00000  Uiso   1.00
O223   O     0.02980   0.79917   0.16916   0.00000  Uiso   1.00
O224   O     0.05010   0.65645   0.22172   0.00000  Uiso   1.00
N225   N     0.70260   0.67854   0.53942   0.00000  Uiso   1.00
N226   N     0.20244   0.81044   0.20972   0.00000  Uiso   1.00
N227   N     0.92949   0.70874   0.24716   0.00000  Uiso   1.00
N228   N     0.68733   0.59318   0.55705   0.00000  Uiso   1.00
N229   N     0.18717   0.72508   0.22735   0.00000  Uiso   1.00
N230   N     0.91422   0.62338   0.26479   0.00000  Uiso   1.00
C231   C     0.10658   0.37534   0.00786   0.00000  Uiso   1.00
C232   C     0.05718   0.43860   0.97905   0.00000  Uiso   1.00
C233   C     0.03259   0.47359   0.92249   0.00000  Uiso   1.00
C234   C     0.98780   0.53026   0.90429   0.00000  Uiso   1.00
C235   C     0.91400   0.62531   0.85391   0.00000  Uiso   1.00
C236   C     0.02401   0.34942   0.03846   0.00000  Uiso   1.00
C237   C     0.97155   0.30940   0.03186   0.00000  Uiso   1.00
C238   C     0.89886   0.29099   0.06369   0.00000  Uiso   1.00
C239   C     0.77363   0.24755   0.10557   0.00000  Uiso   1.00
C240   C     0.21400   0.36434   0.05285   0.00000  Uiso   1.00
C241   C     0.32128   0.33686   0.05836   0.00000  Uiso   1.00
C242   C     0.40854   0.33101   0.10230   0.00000  Uiso   1.00
C243   C     0.57829   0.31074   0.16653   0.00000  Uiso   1.00
C244   C     0.07077   0.41378   0.07612   0.00000  Uiso   1.00
C245   C     0.03773   0.45948   0.01613   0.00000  Uiso   1.00
C246   C     0.99297   0.51612   0.99801   0.00000  Uiso   1.00
C247   C     0.96832   0.55118   0.94143   0.00000  Uiso   1.00
C248   C     0.00456   0.37029   0.07554   0.00000  Uiso   1.00
C249   C     0.93194   0.35193   0.10738   0.00000  Uiso   1.00
C250   C     0.87937   0.31191   0.10083   0.00000  Uiso   1.00
C251   C     0.19455   0.38522   0.08992   0.00000  Uiso   1.00
C252   C     0.28166   0.37940   0.13387   0.00000  Uiso   1.00
C253   C     0.38905   0.35192   0.13945   0.00000  Uiso   1.00
H254   H     0.12172   0.35908   0.97900   0.00000  Uiso   1.00
H255   H     0.04764   0.45741   0.89381   0.00000  Uiso   1.00
H256   H     0.98663   0.29325   0.00317   0.00000  Uiso   1.00
H257   H     0.33630   0.32071   0.02966   0.00000  Uiso   1.00
H258   H     0.95690   0.57563   0.81571   0.00000  Uiso   1.00
H259   H     0.82828   0.22948   0.04632   0.00000  Uiso   1.00
H260   H     0.56563   0.28738   0.10217   0.00000  Uiso   1.00
H261   H     0.05563   0.43004   0.10499   0.00000  Uiso   1.00
H262   H     0.97793   0.53226   0.02671   0.00000  Uiso   1.00
H263   H     0.91691   0.36810   0.13607   0.00000  Uiso   1.00
H264   H     0.26658   0.39556   0.16256   0.00000  Uiso   1.00
H265   H     0.90031   0.63639   0.92358   0.00000  Uiso   1.00
H266   H     0.77169   0.29022   0.15419   0.00000  Uiso   1.00
H267   H     0.50904   0.34813   0.21004   0.00000  Uiso   1.00
O268   O     0.87865   0.67197   0.81588   0.00000  Uiso   1.00
O269   O     0.70992   0.21782   0.11843   0.00000  Uiso   1.00
O270   O     0.67730   0.29380   0.19171   0.00000  Uiso   1.00
N271   N     0.95427   0.57590   0.85184   0.00000  Uiso   1.00
N272   N     0.83400   0.25227   0.06744   0.00000  Uiso   1.00
N273   N     0.52335   0.30640   0.11967   0.00000  Uiso   1.00
N274   N     0.92382   0.60859   0.90988   0.00000  Uiso   1.00
N275   N     0.80355   0.28496   0.12548   0.00000  Uiso   1.00
N276   N     0.49290   0.33909   0.17771   0.00000  Uiso   1.00
C277   C     0.03983   0.11296   0.29811   0.00000  Uiso   1.00
C278   C     0.13939   0.08436   0.35086   0.00000  Uiso   1.00
C279   C     0.17190   0.02746   0.38735   0.00000  Uiso   1.00
C280   C     0.26533   0.00954   0.43322   0.00000  Uiso   1.00
C281   C     0.41102   0.95941   0.51373   0.00000  Uiso   1.00
C282   C     0.08851   0.14351   0.25074   0.00000  Uiso   1.00
C283   C     0.07824   0.13635   0.20306   0.00000  Uiso   1.00
C284   C     0.12883   0.16824   0.16466   0.00000  Uiso   1.00
C285   C     0.19546   0.20997   0.08972   0.00000  Uiso   1.00
C286   C     0.96567   0.15853   0.30409   0.00000  Uiso   1.00
C287   C     0.85210   0.16401   0.30124   0.00000  Uiso   1.00
C288   C     0.79925   0.20855   0.30773   0.00000  Uiso   1.00
C289   C     0.67516   0.27360   0.31562   0.00000  Uiso   1.00
C290   C     0.14793   0.18233   0.31468   0.00000  Uiso   1.00
C291   C     0.19810   0.12204   0.35985   0.00000  Uiso   1.00
C292   C     0.29150   0.10421   0.40568   0.00000  Uiso   1.00
C293   C     0.32415   0.04729   0.44224   0.00000  Uiso   1.00
C294   C     0.14723   0.18119   0.25974   0.00000  Uiso   1.00
C295   C     0.19784   0.21310   0.22139   0.00000  Uiso   1.00
C296   C     0.18765   0.20599   0.17367   0.00000  Uiso   1.00
C297   C     0.02439   0.19622   0.31309   0.00000  Uiso   1.00
C298   C     0.97170   0.24076   0.31957   0.00000  Uiso   1.00
C299   C     0.85808   0.24630   0.31674   0.00000  Uiso   1.00
H300   H     0.99412   0.08362   0.29110   0.00000  Uiso   1.00
H301   H     0.12645   0.99831   0.38037   0.00000  Uiso   1.00
H302   H     0.03278   0.10719   0.19611   0.00000  Uiso   1.00
H303   H     0.80669   0.13484   0.29428   0.00000  Uiso   1.00
H304   H     0.29908   0.92034   0.48329   0.00000  Uiso   1.00
H305   H     0.10156   0.14994   0.09476   0.00000  Uiso   1.00
H306   H     0.62478   0.20824   0.30177   0.00000  Uiso   1.00
H307   H     0.19364   0.21167   0.32168   0.00000  Uiso   1.00
H308   H     0.33693   0.13338   0.41263   0.00000  Uiso   1.00
H309   H     0.24326   0.24226   0.22837   0.00000  Uiso   1.00
H310   H     0.01717   0.26991   0.32654   0.00000  Uiso   1.00
H311   H     0.46992   0.02997   0.50948   0.00000  Uiso   1.00
H312   H     0.27239   0.25957   0.12094   0.00000  Uiso   1.00
H313   H     0.79561   0.31787   0.32795   0.00000  Uiso   1.00
O314   O     0.47517   0.92134   0.55565   0.00000  Uiso   1.00
O315   O     0.21601   0.22257   0.04591   0.00000  Uiso   1.00
O316   O     0.59050   0.29907   0.31750   0.00000  Uiso   1.00
N317   N     0.31961   0.95689   0.47698   0.00000  Uiso   1.00
N318   N     0.13495   0.17154   0.11373   0.00000  Uiso   1.00
N319   N     0.68920   0.22606   0.30725   0.00000  Uiso   1.00
N320   N     0.41153   0.01588   0.49107   0.00000  Uiso   1.00
N321   N     0.22687   0.23053   0.12782   0.00000  Uiso   1.00
N322   N     0.78112   0.28505   0.32134   0.00000  Uiso   1.00
C323   C     0.07022   0.73774   0.98492   0.00000  Uiso   1.00
C324   C     0.12035   0.71104   0.95286   0.00000  Uiso   1.00
C325   C     0.06598   0.71700   0.90074   0.00000  Uiso   1.00
C326   C     0.12628   0.68920   0.87847   0.00000  Uiso   1.00
C327   C     0.18731   0.65272   0.82429   0.00000  Uiso   1.00
C328   C     0.15109   0.77156   0.99733   0.00000  Uiso   1.00
C329   C     0.12255   0.82841   0.98260   0.00000  Uiso   1.00
C330   C     0.20874   0.85155   0.99777   0.00000  Uiso   1.00
C331   C     0.31746   0.90902   0.01266   0.00000  Uiso   1.00
C332   C     0.07889   0.68954   0.04097   0.00000  Uiso   1.00
C333   C     0.98964   0.67742   0.06294   0.00000  Uiso   1.00
C334   C     0.01504   0.63151   0.11485   0.00000  Uiso   1.00
C335   C     0.01165   0.56162   0.19750   0.00000  Uiso   1.00
C336   C     0.27402   0.67777   0.03804   0.00000  Uiso   1.00
C337   C     0.23105   0.67847   0.98172   0.00000  Uiso   1.00
C338   C     0.29146   0.65065   0.95952   0.00000  Uiso   1.00
C339   C     0.23718   0.65657   0.90737   0.00000  Uiso   1.00
C340   C     0.26179   0.73899   0.02618   0.00000  Uiso   1.00
C341   C     0.34803   0.76205   0.04138   0.00000  Uiso   1.00
C342   C     0.31963   0.81892   0.02667   0.00000  Uiso   1.00
C343   C     0.18958   0.65696   0.06982   0.00000  Uiso   1.00
C344   C     0.21512   0.61107   0.12171   0.00000  Uiso   1.00
C345   C     0.12593   0.59888   0.14376   0.00000  Uiso   1.00
H346   H     0.98404   0.76311   0.96245   0.00000  Uiso   1.00
H347   H     0.98031   0.74222   0.87842   0.00000  Uiso   1.00
H348   H     0.03688   0.85360   0.96028   0.00000  Uiso   1.00
H349   H     0.90399   0.70264   0.04060   0.00000  Uiso   1.00
H350   H     0.02501   0.70471   0.79798   0.00000  Uiso   1.00
H351   H     0.14427   0.93957   0.97058   0.00000  Uiso   1.00
H352   H     0.86405   0.62123   0.13996   0.00000  Uiso   1.00
H353   H     0.36021   0.65241   0.06051   0.00000  Uiso   1.00
H354   H     0.37712   0.62545   0.98185   0.00000  Uiso   1.00
H355   H     0.43368   0.73683   0.06371   0.00000  Uiso   1.00
H356   H     0.30079   0.58587   0.14403   0.00000  Uiso   1.00
H357   H     0.34707   0.60994   0.88192   0.00000  Uiso   1.00
H358   H     0.46634   0.84479   0.05453   0.00000  Uiso   1.00
H359   H     0.18611   0.52646   0.22391   0.00000  Uiso   1.00
O360   O     0.19039   0.64160   0.78643   0.00000  Uiso   1.00
O361   O     0.34685   0.94972   0.01290   0.00000  Uiso   1.00
O362   O     0.97921   0.53207   0.23512   0.00000  Uiso   1.00
N363   N     0.09848   0.68610   0.82853   0.00000  Uiso   1.00
N364   N     0.20999   0.90567   0.98990   0.00000  Uiso   1.00
N365   N     0.94800   0.60807   0.14826   0.00000  Uiso   1.00
N366   N     0.27178   0.63510   0.87370   0.00000  Uiso   1.00
N367   N     0.38329   0.85468   0.03507   0.00000  Uiso   1.00
N368   N     0.12130   0.55707   0.19344   0.00000  Uiso   1.00
C369   C     0.95363   0.41521   0.67111   0.00000  Uiso   1.00
C370   C     0.98034   0.47246   0.64601   0.00000  Uiso   1.00
C371   C     0.95389   0.51536   0.66016   0.00000  Uiso   1.00
C372   C     0.98556   0.56454   0.63243   0.00000  Uiso   1.00
C373   C     0.01855   0.65252   0.59963   0.00000  Uiso   1.00
C374   C     0.06621   0.37197   0.69401   0.00000  Uiso   1.00
C375   C     0.11193   0.33039   0.74851   0.00000  Uiso   1.00
C376   C     0.21588   0.29498   0.76118   0.00000  Uiso   1.00
C377   C     0.38213   0.22693   0.80288   0.00000  Uiso   1.00
C378   C     0.88515   0.40874   0.62232   0.00000  Uiso   1.00
C379   C     0.77866   0.39806   0.61655   0.00000  Uiso   1.00
C380   C     0.73018   0.39359   0.56887   0.00000  Uiso   1.00
C381   C     0.61532   0.38263   0.49926   0.00000  Uiso   1.00
C382   C     0.05693   0.42624   0.59669   0.00000  Uiso   1.00
C383   C     0.03645   0.47845   0.60559   0.00000  Uiso   1.00
C384   C     0.06817   0.52757   0.57783   0.00000  Uiso   1.00
C385   C     0.04176   0.57055   0.59194   0.00000  Uiso   1.00
C386   C     0.12231   0.37797   0.65359   0.00000  Uiso   1.00
C387   C     0.22621   0.34260   0.66618   0.00000  Uiso   1.00
C388   C     0.27208   0.30098   0.72069   0.00000  Uiso   1.00
C389   C     0.94125   0.41474   0.58189   0.00000  Uiso   1.00
C390   C     0.89294   0.41028   0.53421   0.00000  Uiso   1.00
C391   C     0.78639   0.39959   0.52837   0.00000  Uiso   1.00
H392   H     0.90996   0.41054   0.70258   0.00000  Uiso   1.00
H393   H     0.91048   0.51071   0.69145   0.00000  Uiso   1.00
H394   H     0.06849   0.32576   0.77978   0.00000  Uiso   1.00
H395   H     0.73527   0.39343   0.64784   0.00000  Uiso   1.00
H396   H     0.93583   0.62440   0.66130   0.00000  Uiso   1.00
H397   H     0.26899   0.23442   0.84755   0.00000  Uiso   1.00
H398   H     0.56632   0.37710   0.56932   0.00000  Uiso   1.00
H399   H     0.10061   0.43091   0.56522   0.00000  Uiso   1.00
H400   H     0.11159   0.53220   0.54655   0.00000  Uiso   1.00
H401   H     0.26960   0.34725   0.63488   0.00000  Uiso   1.00
H402   H     0.93638   0.41492   0.50294   0.00000  Uiso   1.00
H403   H     0.09906   0.64185   0.54369   0.00000  Uiso   1.00
H404   H     0.43222   0.25186   0.72994   0.00000  Uiso   1.00
H405   H     0.72955   0.39455   0.45171   0.00000  Uiso   1.00
O406   O     0.02126   0.69938   0.59271   0.00000  Uiso   1.00
O407   O     0.45833   0.18774   0.83706   0.00000  Uiso   1.00
O408   O     0.53646   0.37493   0.47203   0.00000  Uiso   1.00
N409   N     0.97272   0.61461   0.63618   0.00000  Uiso   1.00
N410   N     0.28421   0.25001   0.81031   0.00000  Uiso   1.00
N411   N     0.62729   0.38339   0.55020   0.00000  Uiso   1.00
N412   N     0.06055   0.62400   0.57289   0.00000  Uiso   1.00
N413   N     0.37204   0.25939   0.74703   0.00000  Uiso   1.00
N414   N     0.71512   0.39277   0.48691   0.00000  Uiso   1.00
C415   C     0.50356   0.07838   0.29389   0.00000  Uiso   1.00
C416   C     0.52367   0.09957   0.33766   0.00000  Uiso   1.00
C417   C     0.48237   0.15388   0.32879   0.00000  Uiso   1.00
C418   C     0.51023   0.16488   0.37419   0.00000  Uiso   1.00
C419   C     0.53134   0.20416   0.43418   0.00000  Uiso   1.00
C420   C     0.62027   0.05395   0.29317   0.00000  Uiso   1.00
C421   C     0.66018   0.06991   0.24689   0.00000  Uiso   1.00
C422   C     0.76935   0.04250   0.25484   0.00000  Uiso   1.00
C423   C     0.94040   0.01093   0.24575   0.00000  Uiso   1.00
C424   C     0.45100   0.02881   0.31691   0.00000  Uiso   1.00
C425   C     0.34859   0.02362   0.29059   0.00000  Uiso   1.00
C426   C     0.31526   0.97504   0.31853   0.00000  Uiso   1.00
C427   C     0.22349   0.90443   0.34631   0.00000  Uiso   1.00
C428   C     0.62649   0.00132   0.39030   0.00000  Uiso   1.00
C429   C     0.59044   0.05771   0.39002   0.00000  Uiso   1.00
C430   C     0.61837   0.06863   0.43545   0.00000  Uiso   1.00
C431   C     0.57711   0.12295   0.42665   0.00000  Uiso   1.00
C432   C     0.68704   0.01210   0.34553   0.00000  Uiso   1.00
C433   C     0.79618   0.98466   0.35355   0.00000  Uiso   1.00
C434   C     0.83624   0.00057   0.30730   0.00000  Uiso   1.00
C435   C     0.51776   0.98695   0.36928   0.00000  Uiso   1.00
C436   C     0.48459   0.93837   0.39726   0.00000  Uiso   1.00
C437   C     0.38215   0.93311   0.37099   0.00000  Uiso   1.00
H438   H     0.45159   0.11096   0.25312   0.00000  Uiso   1.00
H439   H     0.43071   0.18626   0.28825   0.00000  Uiso   1.00
H440   H     0.60848   0.10230   0.20637   0.00000  Uiso   1.00
H441   H     0.29694   0.05602   0.25007   0.00000  Uiso   1.00
H442   H     0.43704   0.25130   0.35029   0.00000  Uiso   1.00
H443   H     0.81187   0.07424   0.17763   0.00000  Uiso   1.00
H444   H     0.15493   0.97665   0.26978   0.00000  Uiso   1.00
H445   H     0.67848   0.96873   0.43107   0.00000  Uiso   1.00
H446   H     0.67004   0.03623   0.47597   0.00000  Uiso   1.00
H447   H     0.84782   0.95227   0.39408   0.00000  Uiso   1.00
H448   H     0.53628   0.90599   0.43779   0.00000  Uiso   1.00
H449   H     0.63129   0.12953   0.50265   0.00000  Uiso   1.00
H450   H     0.00613   0.95247   0.32999   0.00000  Uiso   1.00
H451   H     0.34919   0.85488   0.42214   0.00000  Uiso   1.00
O452   O     0.52455   0.23738   0.45280   0.00000  Uiso   1.00
O453   O     0.01631   0.00508   0.22627   0.00000  Uiso   1.00
O454   O     0.15442   0.87705   0.34717   0.00000  Uiso   1.00
N455   N     0.48389   0.21337   0.37999   0.00000  Uiso   1.00
N456   N     0.83435   0.04784   0.21856   0.00000  Uiso   1.00
N457   N     0.22018   0.95659   0.30471   0.00000  Uiso   1.00
N458   N     0.58842   0.14785   0.46198   0.00000  Uiso   1.00
N459   N     0.93887   0.98232   0.30055   0.00000  Uiso   1.00
N460   N     0.32471   0.89107   0.38670   0.00000  Uiso   1.00
C461   C     0.46138   0.43245   0.69011   0.00000  Uiso   1.00
C462   C     0.44013   0.46847   0.62786   0.00000  Uiso   1.00
C463   C     0.41351   0.45092   0.58704   0.00000  Uiso   1.00
C464   C     0.39729   0.49021   0.53247   0.00000  Uiso   1.00
C465   C     0.36282   0.53778   0.43783   0.00000  Uiso   1.00
C466   C     0.57846   0.43453   0.71818   0.00000  Uiso   1.00
C467   C     0.66813   0.38845   0.75329   0.00000  Uiso   1.00
C468   C     0.76834   0.39917   0.77476   0.00000  Uiso   1.00
C469   C     0.94860   0.39406   0.82035   0.00000  Uiso   1.00
C470   C     0.37826   0.46354   0.70765   0.00000  Uiso   1.00
C471   C     0.29962   0.44185   0.73392   0.00000  Uiso   1.00
C472   C     0.23129   0.47699   0.74653   0.00000  Uiso   1.00
C473   C     0.10071   0.51692   0.77578   0.00000  Uiso   1.00
C474   C     0.47990   0.53342   0.66581   0.00000  Uiso   1.00
C475   C     0.45020   0.52331   0.61467   0.00000  Uiso   1.00
C476   C     0.43400   0.56263   0.56015   0.00000  Uiso   1.00
C477   C     0.40736   0.54515   0.51925   0.00000  Uiso   1.00
C478   C     0.58852   0.48937   0.70498   0.00000  Uiso   1.00
C479   C     0.68862   0.50016   0.72640   0.00000  Uiso   1.00
C480   C     0.77842   0.45411   0.76153   0.00000  Uiso   1.00
C481   C     0.38831   0.51838   0.69445   0.00000  Uiso   1.00
C482   C     0.32010   0.55356   0.70703   0.00000  Uiso   1.00
C483   C     0.24137   0.53193   0.73331   0.00000  Uiso   1.00
H484   H     0.45356   0.38975   0.70039   0.00000  Uiso   1.00
H485   H     0.40574   0.40848   0.59727   0.00000  Uiso   1.00
H486   H     0.66031   0.34602   0.76350   0.00000  Uiso   1.00
H487   H     0.29186   0.39941   0.74413   0.00000  Uiso   1.00
H488   H     0.35721   0.45341   0.47712   0.00000  Uiso   1.00
H489   H     0.89398   0.32171   0.82764   0.00000  Uiso   1.00
H490   H     0.11701   0.43430   0.78680   0.00000  Uiso   1.00
H491   H     0.48773   0.57611   0.65553   0.00000  Uiso   1.00
H492   H     0.44179   0.60507   0.54995   0.00000  Uiso   1.00
H493   H     0.69637   0.54261   0.71618   0.00000  Uiso   1.00
H494   H     0.32791   0.59600   0.69681   0.00000  Uiso   1.00
H495   H     0.38648   0.61297   0.43871   0.00000  Uiso   1.00
H496   H     0.92324   0.48127   0.78924   0.00000  Uiso   1.00
H497   H     0.14628   0.59386   0.74839   0.00000  Uiso   1.00
O498   O     0.34104   0.54887   0.38927   0.00000  Uiso   1.00
O499   O     0.04525   0.37608   0.84915   0.00000  Uiso   1.00
O500   O     0.02589   0.52380   0.79555   0.00000  Uiso   1.00
N501   N     0.37038   0.48700   0.48257   0.00000  Uiso   1.00
N502   N     0.87223   0.36387   0.81028   0.00000  Uiso   1.00
N503   N     0.14586   0.46912   0.77211   0.00000  Uiso   1.00
N504   N     0.38613   0.57285   0.46190   0.00000  Uiso   1.00
N505   N     0.88798   0.44972   0.78961   0.00000  Uiso   1.00
N506   N     0.16160   0.55498   0.75144   0.00000  Uiso   1.00
C507   C     0.50444   0.75904   0.91430   0.00000  Uiso   1.00
C508   C     0.58019   0.70355   0.96104   0.00000  Uiso   1.00
C509   C     0.55429   0.66968   0.00866   0.00000  Uiso   1.00
C510   C     0.63487   0.62057   0.04645   0.00000  Uiso   1.00
C511   C     0.73689   0.53664   0.12048   0.00000  Uiso   1.00
C512   C     0.57385   0.80253   0.90879   0.00000  Uiso   1.00
C513   C     0.54261   0.85188   0.91248   0.00000  Uiso   1.00
C514   C     0.61784   0.88609   0.90628   0.00000  Uiso   1.00
C515   C     0.70997   0.95585   0.89916   0.00000  Uiso   1.00
C516   C     0.48891   0.75256   0.86104   0.00000  Uiso   1.00
C517   C     0.38625   0.75991   0.82456   0.00000  Uiso   1.00
C518   C     0.38998   0.75207   0.77815   0.00000  Uiso   1.00
C519   C     0.35023   0.74425   0.69688   0.00000  Uiso   1.00
C520   C     0.69360   0.73205   0.89673   0.00000  Uiso   1.00
C521   C     0.68294   0.68889   0.95149   0.00000  Uiso   1.00
C522   C     0.76357   0.63982   0.98921   0.00000  Uiso   1.00
C523   C     0.73780   0.60588   0.03688   0.00000  Uiso   1.00
C524   C     0.67659   0.78787   0.89925   0.00000  Uiso   1.00
C525   C     0.75188   0.82202   0.89303   0.00000  Uiso   1.00
C526   C     0.72077   0.87141   0.89672   0.00000  Uiso   1.00
C527   C     0.59166   0.73790   0.85149   0.00000  Uiso   1.00
C528   C     0.59554   0.73005   0.80512   0.00000  Uiso   1.00
C529   C     0.49291   0.73739   0.76858   0.00000  Uiso   1.00
H530   H     0.42446   0.77046   0.92174   0.00000  Uiso   1.00
H531   H     0.47478   0.68104   0.01604   0.00000  Uiso   1.00
H532   H     0.46309   0.86321   0.91986   0.00000  Uiso   1.00
H533   H     0.30677   0.77126   0.83196   0.00000  Uiso   1.00
H534   H     0.57590   0.57545   0.11638   0.00000  Uiso   1.00
H535   H     0.55123   0.95958   0.91358   0.00000  Uiso   1.00
H536   H     0.22159   0.76568   0.72823   0.00000  Uiso   1.00
H537   H     0.77359   0.72064   0.88929   0.00000  Uiso   1.00
H538   H     0.84307   0.62848   0.98181   0.00000  Uiso   1.00
H539   H     0.83138   0.81066   0.88564   0.00000  Uiso   1.00
H540   H     0.67506   0.71871   0.79774   0.00000  Uiso   1.00
H541   H     0.87482   0.53279   0.08861   0.00000  Uiso   1.00
H542   H     0.85015   0.91693   0.88581   0.00000  Uiso   1.00
H543   H     0.52051   0.72302   0.70045   0.00000  Uiso   1.00
O544   O     0.76478   0.49441   0.16396   0.00000  Uiso   1.00
O545   O     0.73241   0.99838   0.89788   0.00000  Uiso   1.00
O546   O     0.29993   0.74398   0.65470   0.00000  Uiso   1.00
N547   N     0.63670   0.57805   0.09715   0.00000  Uiso   1.00
N548   N     0.61365   0.93719   0.90755   0.00000  Uiso   1.00
N549   N     0.30546   0.75592   0.73425   0.00000  Uiso   1.00
N550   N     0.79755   0.55510   0.08220   0.00000  Uiso   1.00
N551   N     0.77450   0.91424   0.89260   0.00000  Uiso   1.00
N552   N     0.46631   0.73297   0.71930   0.00000  Uiso   1.00
