data_job_03647
_audit_creation_date              2018-12-19
_audit_creation_method            'Materials Studio'
_symmetry_space_group_name_H-M    'P1'
_symmetry_Int_Tables_number       1
_symmetry_cell_setting            triclinic
loop_
_symmetry_equiv_pos_as_xyz
  x,y,z
_cell_length_a                    10.8636
_cell_length_b                    26.6952
_cell_length_c                    10.6962
_cell_angle_alpha                 90.0000
_cell_angle_beta                  129.4970
_cell_angle_gamma                 90.0000
loop_
_atom_site_label
_atom_site_type_symbol
_atom_site_fract_x
_atom_site_fract_y
_atom_site_fract_z
_atom_site_U_iso_or_equiv
_atom_site_adp_type
_atom_site_occupancy
C1     C     0.17770   0.40948   0.20273   0.00000  Uiso   1.00
C2     C     0.33386   0.41717   0.23306   0.00000  Uiso   1.00
C3     C     0.38413   0.46160   0.21091   0.00000  Uiso   1.00
C4     C     0.53078   0.46095   0.24534   0.00000  Uiso   1.00
C5     C     0.75910   0.47950   0.28405   0.00000  Uiso   1.00
C6     C     0.09264   0.36631   0.08243   0.00000  Uiso   1.00
C7     C     0.94009   0.36798   0.93365   0.00000  Uiso   1.00
C8     C     0.88368   0.32451   0.84130   0.00000  Uiso   1.00
C9     C     0.73745   0.26409   0.64620   0.00000  Uiso   1.00
C10    C     0.22379   0.39003   0.36159   0.00000  Uiso   1.00
C11    C     0.18148   0.41164   0.44751   0.00000  Uiso   1.00
C12    C     0.23546   0.38814   0.59018   0.00000  Uiso   1.00
C13    C     0.29286   0.36455   0.82853   0.00000  Uiso   1.00
C14    C     0.34875   0.32931   0.30328   0.00000  Uiso   1.00
C15    C     0.42677   0.37362   0.28767   0.00000  Uiso   1.00
C16    C     0.57338   0.37290   0.32216   0.00000  Uiso   1.00
C17    C     0.62387   0.41732   0.30007   0.00000  Uiso   1.00
C18    C     0.18554   0.32276   0.13704   0.00000  Uiso   1.00
C19    C     0.12934   0.27928   0.04490   0.00000  Uiso   1.00
C20    C     0.97675   0.28089   0.89601   0.00000  Uiso   1.00
C21    C     0.31671   0.34649   0.41621   0.00000  Uiso   1.00
C22    C     0.37074   0.32294   0.55877   0.00000  Uiso   1.00
C23    C     0.32853   0.34451   0.64489   0.00000  Uiso   1.00
H24    H     0.10536   0.44338   0.16020   0.00000  Uiso   1.00
H25    H     0.31219   0.49529   0.16862   0.00000  Uiso   1.00
H26    H     0.86822   0.40168   0.89142   0.00000  Uiso   1.00
H27    H     0.10958   0.44534   0.40521   0.00000  Uiso   1.00
H28    H     0.58245   0.53363   0.20199   0.00000  Uiso   1.00
H29    H     0.64629   0.33625   0.61751   0.00000  Uiso   1.00
H30    H     0.15524   0.42831   0.70094   0.00000  Uiso   1.00
H31    H     0.42108   0.29541   0.34580   0.00000  Uiso   1.00
H32    H     0.64525   0.33920   0.36442   0.00000  Uiso   1.00
H33    H     0.20127   0.24559   0.08721   0.00000  Uiso   1.00
H34    H     0.44264   0.28925   0.60100   0.00000  Uiso   1.00
H35    H     0.85278   0.40694   0.36090   0.00000  Uiso   1.00
H36    H     0.91660   0.20956   0.77642   0.00000  Uiso   1.00
H37    H     0.42556   0.30162   0.85984   0.00000  Uiso   1.00
O38    O     0.85936   0.50175   0.29029   0.00000  Uiso   1.00
O39    O     0.63113   0.24280   0.52349   0.00000  Uiso   1.00
O40    O     0.29888   0.36358   0.94492   0.00000  Uiso   1.00
N41    N     0.61533   0.49781   0.23687   0.00000  Uiso   1.00
N42    N     0.74007   0.31327   0.69040   0.00000  Uiso   1.00
N43    N     0.21587   0.39933   0.70329   0.00000  Uiso   1.00
N44    N     0.76078   0.42963   0.32238   0.00000  Uiso   1.00
N45    N     0.88553   0.24510   0.77591   0.00000  Uiso   1.00
N46    N     0.36133   0.33116   0.78880   0.00000  Uiso   1.00
C47    C     0.82230   0.90948   0.29727   0.00000  Uiso   1.00
C48    C     0.66614   0.91717   0.26694   0.00000  Uiso   1.00
C49    C     0.61587   0.96160   0.28909   0.00000  Uiso   1.00
C50    C     0.46922   0.96095   0.25466   0.00000  Uiso   1.00
C51    C     0.24090   0.97950   0.21595   0.00000  Uiso   1.00
C52    C     0.90736   0.86631   0.41757   0.00000  Uiso   1.00
C53    C     0.05991   0.86798   0.56635   0.00000  Uiso   1.00
C54    C     0.11632   0.82451   0.65870   0.00000  Uiso   1.00
C55    C     0.26255   0.76409   0.85380   0.00000  Uiso   1.00
C56    C     0.77621   0.89003   0.13841   0.00000  Uiso   1.00
C57    C     0.81852   0.91164   0.05249   0.00000  Uiso   1.00
C58    C     0.76454   0.88814   0.90982   0.00000  Uiso   1.00
C59    C     0.70714   0.86455   0.67147   0.00000  Uiso   1.00
C60    C     0.65125   0.82931   0.19672   0.00000  Uiso   1.00
C61    C     0.57323   0.87362   0.21233   0.00000  Uiso   1.00
C62    C     0.42662   0.87290   0.17784   0.00000  Uiso   1.00
C63    C     0.37613   0.91732   0.19993   0.00000  Uiso   1.00
C64    C     0.81446   0.82276   0.36296   0.00000  Uiso   1.00
C65    C     0.87066   0.77928   0.45510   0.00000  Uiso   1.00
C66    C     0.02325   0.78089   0.60399   0.00000  Uiso   1.00
C67    C     0.68329   0.84649   0.08379   0.00000  Uiso   1.00
C68    C     0.62926   0.82294   0.94123   0.00000  Uiso   1.00
C69    C     0.67147   0.84451   0.85511   0.00000  Uiso   1.00
H70    H     0.89464   0.94338   0.33980   0.00000  Uiso   1.00
H71    H     0.68781   0.99529   0.33138   0.00000  Uiso   1.00
H72    H     0.13178   0.90168   0.60858   0.00000  Uiso   1.00
H73    H     0.89042   0.94534   0.09479   0.00000  Uiso   1.00
H74    H     0.41755   0.03363   0.29801   0.00000  Uiso   1.00
H75    H     0.35371   0.83625   0.88249   0.00000  Uiso   1.00
H76    H     0.84476   0.92831   0.79906   0.00000  Uiso   1.00
H77    H     0.57892   0.79541   0.15420   0.00000  Uiso   1.00
H78    H     0.35475   0.83920   0.13558   0.00000  Uiso   1.00
H79    H     0.79873   0.74559   0.41279   0.00000  Uiso   1.00
H80    H     0.55736   0.78925   0.89900   0.00000  Uiso   1.00
H81    H     0.14722   0.90694   0.13910   0.00000  Uiso   1.00
H82    H     0.08340   0.70956   0.72358   0.00000  Uiso   1.00
H83    H     0.57444   0.80162   0.64016   0.00000  Uiso   1.00
O84    O     0.14064   0.00175   0.20971   0.00000  Uiso   1.00
O85    O     0.36887   0.74280   0.97651   0.00000  Uiso   1.00
O86    O     0.70112   0.86358   0.55508   0.00000  Uiso   1.00
N87    N     0.38467   0.99781   0.26313   0.00000  Uiso   1.00
N88    N     0.25993   0.81327   0.80960   0.00000  Uiso   1.00
N89    N     0.78413   0.89933   0.79671   0.00000  Uiso   1.00
N90    N     0.23922   0.92963   0.17762   0.00000  Uiso   1.00
N91    N     0.11447   0.74510   0.72409   0.00000  Uiso   1.00
N92    N     0.63867   0.83116   0.71120   0.00000  Uiso   1.00
C93    C     0.82230   0.59052   0.79727   0.00000  Uiso   1.00
C94    C     0.66614   0.58283   0.76694   0.00000  Uiso   1.00
C95    C     0.61587   0.53840   0.78909   0.00000  Uiso   1.00
C96    C     0.46922   0.53905   0.75466   0.00000  Uiso   1.00
C97    C     0.24090   0.52050   0.71595   0.00000  Uiso   1.00
C98    C     0.90736   0.63369   0.91757   0.00000  Uiso   1.00
C99    C     0.05991   0.63202   0.06635   0.00000  Uiso   1.00
C100   C     0.11632   0.67549   0.15870   0.00000  Uiso   1.00
C101   C     0.26255   0.73591   0.35380   0.00000  Uiso   1.00
C102   C     0.77621   0.60997   0.63841   0.00000  Uiso   1.00
C103   C     0.81852   0.58836   0.55249   0.00000  Uiso   1.00
C104   C     0.76454   0.61186   0.40982   0.00000  Uiso   1.00
C105   C     0.70714   0.63545   0.17147   0.00000  Uiso   1.00
C106   C     0.65125   0.67069   0.69672   0.00000  Uiso   1.00
C107   C     0.57323   0.62638   0.71233   0.00000  Uiso   1.00
C108   C     0.42662   0.62710   0.67784   0.00000  Uiso   1.00
C109   C     0.37613   0.58268   0.69993   0.00000  Uiso   1.00
C110   C     0.81446   0.67724   0.86296   0.00000  Uiso   1.00
C111   C     0.87066   0.72072   0.95510   0.00000  Uiso   1.00
C112   C     0.02325   0.71911   0.10399   0.00000  Uiso   1.00
C113   C     0.68329   0.65351   0.58379   0.00000  Uiso   1.00
C114   C     0.62926   0.67706   0.44123   0.00000  Uiso   1.00
C115   C     0.67147   0.65549   0.35511   0.00000  Uiso   1.00
H116   H     0.89464   0.55662   0.83980   0.00000  Uiso   1.00
H117   H     0.68781   0.50471   0.83138   0.00000  Uiso   1.00
H118   H     0.13178   0.59832   0.10858   0.00000  Uiso   1.00
H119   H     0.89042   0.55466   0.59479   0.00000  Uiso   1.00
H120   H     0.41755   0.46637   0.79801   0.00000  Uiso   1.00
H121   H     0.35371   0.66375   0.38249   0.00000  Uiso   1.00
H122   H     0.84476   0.57169   0.29906   0.00000  Uiso   1.00
H123   H     0.57892   0.70459   0.65420   0.00000  Uiso   1.00
H124   H     0.35475   0.66080   0.63558   0.00000  Uiso   1.00
H125   H     0.79873   0.75441   0.91279   0.00000  Uiso   1.00
H126   H     0.55736   0.71075   0.39900   0.00000  Uiso   1.00
H127   H     0.14722   0.59306   0.63910   0.00000  Uiso   1.00
H128   H     0.08340   0.79044   0.22358   0.00000  Uiso   1.00
H129   H     0.57444   0.69838   0.14016   0.00000  Uiso   1.00
O130   O     0.14064   0.49825   0.70971   0.00000  Uiso   1.00
O131   O     0.36887   0.75720   0.47651   0.00000  Uiso   1.00
O132   O     0.70112   0.63642   0.05508   0.00000  Uiso   1.00
N133   N     0.38467   0.50219   0.76313   0.00000  Uiso   1.00
N134   N     0.25993   0.68673   0.30960   0.00000  Uiso   1.00
N135   N     0.78413   0.60067   0.29671   0.00000  Uiso   1.00
N136   N     0.23922   0.57037   0.67762   0.00000  Uiso   1.00
N137   N     0.11447   0.75490   0.22409   0.00000  Uiso   1.00
N138   N     0.63867   0.66884   0.21120   0.00000  Uiso   1.00
C139   C     0.17770   0.09052   0.70273   0.00000  Uiso   1.00
C140   C     0.33386   0.08283   0.73306   0.00000  Uiso   1.00
C141   C     0.38413   0.03840   0.71091   0.00000  Uiso   1.00
C142   C     0.53078   0.03905   0.74534   0.00000  Uiso   1.00
C143   C     0.75910   0.02050   0.78405   0.00000  Uiso   1.00
C144   C     0.09264   0.13369   0.58243   0.00000  Uiso   1.00
C145   C     0.94009   0.13202   0.43365   0.00000  Uiso   1.00
C146   C     0.88368   0.17549   0.34130   0.00000  Uiso   1.00
C147   C     0.73745   0.23591   0.14620   0.00000  Uiso   1.00
C148   C     0.22379   0.10997   0.86159   0.00000  Uiso   1.00
C149   C     0.18148   0.08836   0.94751   0.00000  Uiso   1.00
C150   C     0.23546   0.11186   0.09018   0.00000  Uiso   1.00
C151   C     0.29286   0.13545   0.32853   0.00000  Uiso   1.00
C152   C     0.34875   0.17069   0.80328   0.00000  Uiso   1.00
C153   C     0.42677   0.12638   0.78767   0.00000  Uiso   1.00
C154   C     0.57338   0.12710   0.82216   0.00000  Uiso   1.00
C155   C     0.62387   0.08268   0.80007   0.00000  Uiso   1.00
C156   C     0.18554   0.17724   0.63704   0.00000  Uiso   1.00
C157   C     0.12934   0.22072   0.54490   0.00000  Uiso   1.00
C158   C     0.97675   0.21911   0.39601   0.00000  Uiso   1.00
C159   C     0.31671   0.15351   0.91621   0.00000  Uiso   1.00
C160   C     0.37074   0.17706   0.05877   0.00000  Uiso   1.00
C161   C     0.32853   0.15549   0.14489   0.00000  Uiso   1.00
H162   H     0.10536   0.05662   0.66020   0.00000  Uiso   1.00
H163   H     0.31219   0.00471   0.66862   0.00000  Uiso   1.00
H164   H     0.86822   0.09832   0.39142   0.00000  Uiso   1.00
H165   H     0.10958   0.05466   0.90521   0.00000  Uiso   1.00
H166   H     0.58245   0.96637   0.70199   0.00000  Uiso   1.00
H167   H     0.64629   0.16375   0.11751   0.00000  Uiso   1.00
H168   H     0.15524   0.07169   0.20094   0.00000  Uiso   1.00
H169   H     0.42108   0.20459   0.84580   0.00000  Uiso   1.00
H170   H     0.64525   0.16080   0.86442   0.00000  Uiso   1.00
H171   H     0.20127   0.25441   0.58721   0.00000  Uiso   1.00
H172   H     0.44264   0.21075   0.10100   0.00000  Uiso   1.00
H173   H     0.85278   0.09306   0.86090   0.00000  Uiso   1.00
H174   H     0.91660   0.29044   0.27642   0.00000  Uiso   1.00
H175   H     0.42556   0.19838   0.35984   0.00000  Uiso   1.00
O176   O     0.85936   0.99825   0.79029   0.00000  Uiso   1.00
O177   O     0.63113   0.25720   0.02349   0.00000  Uiso   1.00
O178   O     0.29888   0.13642   0.44492   0.00000  Uiso   1.00
N179   N     0.61533   0.00219   0.73687   0.00000  Uiso   1.00
N180   N     0.74007   0.18673   0.19040   0.00000  Uiso   1.00
N181   N     0.21587   0.10067   0.20329   0.00000  Uiso   1.00
N182   N     0.76078   0.07037   0.82238   0.00000  Uiso   1.00
N183   N     0.88553   0.25490   0.27591   0.00000  Uiso   1.00
N184   N     0.36133   0.16884   0.28880   0.00000  Uiso   1.00
