data_job_05334
_audit_creation_date              2018-12-19
_audit_creation_method            'Materials Studio'
_symmetry_space_group_name_H-M    'P1'
_symmetry_Int_Tables_number       1
_symmetry_cell_setting            triclinic
loop_
_symmetry_equiv_pos_as_xyz
  x,y,z
_cell_length_a                    14.8550
_cell_length_b                    18.2557
_cell_length_c                    11.6936
_cell_angle_alpha                 90.0000
_cell_angle_beta                  109.9919
_cell_angle_gamma                 90.0000
loop_
_atom_site_label
_atom_site_type_symbol
_atom_site_fract_x
_atom_site_fract_y
_atom_site_fract_z
_atom_site_U_iso_or_equiv
_atom_site_adp_type
_atom_site_occupancy
C1     C     0.87895   0.02828   0.72530   0.00000  Uiso   1.00
C2     C     0.80234   0.02109   0.78431   0.00000  Uiso   1.00
C3     C     0.81743   0.99732   0.90214   0.00000  Uiso   1.00
C4     C     0.73803   0.99458   0.93903   0.00000  Uiso   1.00
C5     C     0.63294   0.98030   0.04254   0.00000  Uiso   1.00
C6     C     0.84463   0.98180   0.61007   0.00000  Uiso   1.00
C7     C     0.89528   0.92500   0.58140   0.00000  Uiso   1.00
C8     C     0.85148   0.88920   0.47161   0.00000  Uiso   1.00
C9     C     0.81206   0.81396   0.30457   0.00000  Uiso   1.00
C10    C     0.87486   0.10757   0.68281   0.00000  Uiso   1.00
C11    C     0.95094   0.15651   0.71526   0.00000  Uiso   1.00
C12    C     0.93260   0.22659   0.66668   0.00000  Uiso   1.00
C13    C     0.94013   0.34661   0.61257   0.00000  Uiso   1.00
C14    C     0.71112   0.06569   0.58128   0.00000  Uiso   1.00
C15    C     0.71118   0.04142   0.70608   0.00000  Uiso   1.00
C16    C     0.63174   0.03872   0.74280   0.00000  Uiso   1.00
C17    C     0.64671   0.01495   0.86067   0.00000  Uiso   1.00
C18    C     0.75347   0.00212   0.53185   0.00000  Uiso   1.00
C19    C     0.70959   0.96640   0.42206   0.00000  Uiso   1.00
C20    C     0.76015   0.90956   0.39324   0.00000  Uiso   1.00
C21    C     0.78370   0.12789   0.60458   0.00000  Uiso   1.00
C22    C     0.76524   0.19791   0.55593   0.00000  Uiso   1.00
C23    C     0.84127   0.24695   0.58831   0.00000  Uiso   1.00
H24    H     0.94992   0.01245   0.78619   0.00000  Uiso   1.00
H25    H     0.88799   0.98159   0.96265   0.00000  Uiso   1.00
H26    H     0.96582   0.90929   0.64195   0.00000  Uiso   1.00
H27    H     0.02147   0.14076   0.77580   0.00000  Uiso   1.00
H28    H     0.77911   0.95631   0.12377   0.00000  Uiso   1.00
H29    H     0.94325   0.80388   0.44755   0.00000  Uiso   1.00
H30    H     0.06059   0.29198   0.72978   0.00000  Uiso   1.00
H31    H     0.64014   0.08152   0.52037   0.00000  Uiso   1.00
H32    H     0.56120   0.05445   0.68224   0.00000  Uiso   1.00
H33    H     0.63905   0.98215   0.36155   0.00000  Uiso   1.00
H34    H     0.69469   0.21362   0.49540   0.00000  Uiso   1.00
H35    H     0.51388   0.01544   0.89618   0.00000  Uiso   1.00
H36    H     0.67803   0.86301   0.21996   0.00000  Uiso   1.00
H37    H     0.79537   0.35111   0.50220   0.00000  Uiso   1.00
O38    O     0.60015   0.96680   0.12124   0.00000  Uiso   1.00
O39    O     0.81551   0.76683   0.23406   0.00000  Uiso   1.00
O40    O     0.96946   0.40720   0.60435   0.00000  Uiso   1.00
N41    N     0.72752   0.97396   0.04800   0.00000  Uiso   1.00
N42    N     0.88098   0.83144   0.41578   0.00000  Uiso   1.00
N43    N     0.99069   0.28776   0.67962   0.00000  Uiso   1.00
N44    N     0.58481   0.00578   0.92554   0.00000  Uiso   1.00
N45    N     0.73826   0.86326   0.29332   0.00000  Uiso   1.00
N46    N     0.84798   0.31958   0.55716   0.00000  Uiso   1.00
C47    C     0.12105   0.52828   0.77470   0.00000  Uiso   1.00
C48    C     0.19766   0.52109   0.71569   0.00000  Uiso   1.00
C49    C     0.18257   0.49732   0.59786   0.00000  Uiso   1.00
C50    C     0.26197   0.49458   0.56097   0.00000  Uiso   1.00
C51    C     0.36706   0.48030   0.45746   0.00000  Uiso   1.00
C52    C     0.15537   0.48180   0.88993   0.00000  Uiso   1.00
C53    C     0.10472   0.42500   0.91860   0.00000  Uiso   1.00
C54    C     0.14852   0.38920   0.02839   0.00000  Uiso   1.00
C55    C     0.18794   0.31396   0.19543   0.00000  Uiso   1.00
C56    C     0.12514   0.60757   0.81719   0.00000  Uiso   1.00
C57    C     0.04906   0.65651   0.78474   0.00000  Uiso   1.00
C58    C     0.06740   0.72659   0.83332   0.00000  Uiso   1.00
C59    C     0.05987   0.84661   0.88743   0.00000  Uiso   1.00
C60    C     0.28888   0.56569   0.91872   0.00000  Uiso   1.00
C61    C     0.28882   0.54142   0.79392   0.00000  Uiso   1.00
C62    C     0.36826   0.53872   0.75720   0.00000  Uiso   1.00
C63    C     0.35329   0.51495   0.63933   0.00000  Uiso   1.00
C64    C     0.24653   0.50212   0.96815   0.00000  Uiso   1.00
C65    C     0.29041   0.46640   0.07794   0.00000  Uiso   1.00
C66    C     0.23985   0.40956   0.10676   0.00000  Uiso   1.00
C67    C     0.21630   0.62789   0.89542   0.00000  Uiso   1.00
C68    C     0.23476   0.69791   0.94407   0.00000  Uiso   1.00
C69    C     0.15873   0.74695   0.91169   0.00000  Uiso   1.00
H70    H     0.05008   0.51245   0.71381   0.00000  Uiso   1.00
H71    H     0.11201   0.48159   0.53735   0.00000  Uiso   1.00
H72    H     0.03418   0.40929   0.85805   0.00000  Uiso   1.00
H73    H     0.97853   0.64076   0.72420   0.00000  Uiso   1.00
H74    H     0.22089   0.45631   0.37623   0.00000  Uiso   1.00
H75    H     0.05675   0.30388   0.05245   0.00000  Uiso   1.00
H76    H     0.93941   0.79198   0.77022   0.00000  Uiso   1.00
H77    H     0.35986   0.58152   0.97963   0.00000  Uiso   1.00
H78    H     0.43880   0.55445   0.81776   0.00000  Uiso   1.00
H79    H     0.36095   0.48215   0.13845   0.00000  Uiso   1.00
H80    H     0.30531   0.71362   0.00460   0.00000  Uiso   1.00
H81    H     0.48612   0.51544   0.60382   0.00000  Uiso   1.00
H82    H     0.32197   0.36301   0.28004   0.00000  Uiso   1.00
H83    H     0.20463   0.85111   0.99780   0.00000  Uiso   1.00
O84    O     0.39985   0.46680   0.37876   0.00000  Uiso   1.00
O85    O     0.18449   0.26683   0.26594   0.00000  Uiso   1.00
O86    O     0.03054   0.90720   0.89565   0.00000  Uiso   1.00
N87    N     0.27248   0.47396   0.45200   0.00000  Uiso   1.00
N88    N     0.11902   0.33144   0.08422   0.00000  Uiso   1.00
N89    N     0.00931   0.78776   0.82038   0.00000  Uiso   1.00
N90    N     0.41519   0.50578   0.57446   0.00000  Uiso   1.00
N91    N     0.26174   0.36326   0.20668   0.00000  Uiso   1.00
N92    N     0.15202   0.81958   0.94284   0.00000  Uiso   1.00
C93    C     0.12105   0.97172   0.27470   0.00000  Uiso   1.00
C94    C     0.19766   0.97891   0.21569   0.00000  Uiso   1.00
C95    C     0.18257   0.00268   0.09786   0.00000  Uiso   1.00
C96    C     0.26197   0.00542   0.06097   0.00000  Uiso   1.00
C97    C     0.36706   0.01970   0.95746   0.00000  Uiso   1.00
C98    C     0.15537   0.01820   0.38993   0.00000  Uiso   1.00
C99    C     0.10472   0.07500   0.41860   0.00000  Uiso   1.00
C100   C     0.14852   0.11080   0.52839   0.00000  Uiso   1.00
C101   C     0.18794   0.18604   0.69543   0.00000  Uiso   1.00
C102   C     0.12514   0.89243   0.31719   0.00000  Uiso   1.00
C103   C     0.04906   0.84349   0.28474   0.00000  Uiso   1.00
C104   C     0.06740   0.77341   0.33332   0.00000  Uiso   1.00
C105   C     0.05987   0.65339   0.38743   0.00000  Uiso   1.00
C106   C     0.28888   0.93431   0.41872   0.00000  Uiso   1.00
C107   C     0.28882   0.95858   0.29392   0.00000  Uiso   1.00
C108   C     0.36826   0.96128   0.25720   0.00000  Uiso   1.00
C109   C     0.35329   0.98505   0.13933   0.00000  Uiso   1.00
C110   C     0.24653   0.99788   0.46815   0.00000  Uiso   1.00
C111   C     0.29041   0.03360   0.57794   0.00000  Uiso   1.00
C112   C     0.23985   0.09044   0.60676   0.00000  Uiso   1.00
C113   C     0.21630   0.87211   0.39542   0.00000  Uiso   1.00
C114   C     0.23476   0.80209   0.44407   0.00000  Uiso   1.00
C115   C     0.15873   0.75305   0.41169   0.00000  Uiso   1.00
H116   H     0.05008   0.98755   0.21381   0.00000  Uiso   1.00
H117   H     0.11201   0.01841   0.03735   0.00000  Uiso   1.00
H118   H     0.03418   0.09071   0.35805   0.00000  Uiso   1.00
H119   H     0.97853   0.85924   0.22420   0.00000  Uiso   1.00
H120   H     0.22089   0.04369   0.87623   0.00000  Uiso   1.00
H121   H     0.05675   0.19612   0.55245   0.00000  Uiso   1.00
H122   H     0.93941   0.70802   0.27022   0.00000  Uiso   1.00
H123   H     0.35986   0.91848   0.47963   0.00000  Uiso   1.00
H124   H     0.43880   0.94555   0.31776   0.00000  Uiso   1.00
H125   H     0.36095   0.01785   0.63845   0.00000  Uiso   1.00
H126   H     0.30531   0.78638   0.50460   0.00000  Uiso   1.00
H127   H     0.48612   0.98456   0.10382   0.00000  Uiso   1.00
H128   H     0.32197   0.13699   0.78004   0.00000  Uiso   1.00
H129   H     0.20463   0.64889   0.49780   0.00000  Uiso   1.00
O130   O     0.39985   0.03320   0.87876   0.00000  Uiso   1.00
O131   O     0.18449   0.23317   0.76594   0.00000  Uiso   1.00
O132   O     0.03054   0.59280   0.39565   0.00000  Uiso   1.00
N133   N     0.27248   0.02604   0.95200   0.00000  Uiso   1.00
N134   N     0.11902   0.16856   0.58422   0.00000  Uiso   1.00
N135   N     0.00931   0.71224   0.32038   0.00000  Uiso   1.00
N136   N     0.41519   0.99422   0.07446   0.00000  Uiso   1.00
N137   N     0.26174   0.13674   0.70668   0.00000  Uiso   1.00
N138   N     0.15202   0.68042   0.44284   0.00000  Uiso   1.00
C139   C     0.87895   0.47172   0.22530   0.00000  Uiso   1.00
C140   C     0.80234   0.47891   0.28431   0.00000  Uiso   1.00
C141   C     0.81743   0.50268   0.40214   0.00000  Uiso   1.00
C142   C     0.73803   0.50542   0.43903   0.00000  Uiso   1.00
C143   C     0.63294   0.51970   0.54254   0.00000  Uiso   1.00
C144   C     0.84463   0.51820   0.11007   0.00000  Uiso   1.00
C145   C     0.89528   0.57500   0.08140   0.00000  Uiso   1.00
C146   C     0.85148   0.61080   0.97161   0.00000  Uiso   1.00
C147   C     0.81206   0.68604   0.80457   0.00000  Uiso   1.00
C148   C     0.87486   0.39243   0.18281   0.00000  Uiso   1.00
C149   C     0.95094   0.34349   0.21526   0.00000  Uiso   1.00
C150   C     0.93260   0.27341   0.16668   0.00000  Uiso   1.00
C151   C     0.94013   0.15339   0.11257   0.00000  Uiso   1.00
C152   C     0.71112   0.43431   0.08128   0.00000  Uiso   1.00
C153   C     0.71118   0.45858   0.20608   0.00000  Uiso   1.00
C154   C     0.63174   0.46128   0.24280   0.00000  Uiso   1.00
C155   C     0.64671   0.48505   0.36067   0.00000  Uiso   1.00
C156   C     0.75347   0.49788   0.03185   0.00000  Uiso   1.00
C157   C     0.70959   0.53360   0.92206   0.00000  Uiso   1.00
C158   C     0.76015   0.59044   0.89324   0.00000  Uiso   1.00
C159   C     0.78370   0.37211   0.10458   0.00000  Uiso   1.00
C160   C     0.76524   0.30209   0.05593   0.00000  Uiso   1.00
C161   C     0.84127   0.25305   0.08831   0.00000  Uiso   1.00
H162   H     0.94992   0.48755   0.28619   0.00000  Uiso   1.00
H163   H     0.88799   0.51841   0.46265   0.00000  Uiso   1.00
H164   H     0.96582   0.59071   0.14195   0.00000  Uiso   1.00
H165   H     0.02147   0.35924   0.27580   0.00000  Uiso   1.00
H166   H     0.77911   0.54369   0.62377   0.00000  Uiso   1.00
H167   H     0.94325   0.69612   0.94755   0.00000  Uiso   1.00
H168   H     0.06059   0.20802   0.22978   0.00000  Uiso   1.00
H169   H     0.64014   0.41848   0.02037   0.00000  Uiso   1.00
H170   H     0.56120   0.44555   0.18224   0.00000  Uiso   1.00
H171   H     0.63905   0.51785   0.86155   0.00000  Uiso   1.00
H172   H     0.69469   0.28638   0.99540   0.00000  Uiso   1.00
H173   H     0.51388   0.48456   0.39618   0.00000  Uiso   1.00
H174   H     0.67803   0.63699   0.71996   0.00000  Uiso   1.00
H175   H     0.79537   0.14889   0.00220   0.00000  Uiso   1.00
O176   O     0.60015   0.53320   0.62124   0.00000  Uiso   1.00
O177   O     0.81551   0.73317   0.73406   0.00000  Uiso   1.00
O178   O     0.96946   0.09280   0.10435   0.00000  Uiso   1.00
N179   N     0.72752   0.52604   0.54800   0.00000  Uiso   1.00
N180   N     0.88098   0.66856   0.91578   0.00000  Uiso   1.00
N181   N     0.99069   0.21224   0.17962   0.00000  Uiso   1.00
N182   N     0.58481   0.49422   0.42554   0.00000  Uiso   1.00
N183   N     0.73826   0.63674   0.79332   0.00000  Uiso   1.00
N184   N     0.84798   0.18042   0.05716   0.00000  Uiso   1.00
