data_job_07063
_audit_creation_date              2018-12-19
_audit_creation_method            'Materials Studio'
_symmetry_space_group_name_H-M    'P1'
_symmetry_Int_Tables_number       1
_symmetry_cell_setting            triclinic
loop_
_symmetry_equiv_pos_as_xyz
  x,y,z
_cell_length_a                    21.2309
_cell_length_b                    21.5022
_cell_length_c                    23.2818
_cell_angle_alpha                 84.0410
_cell_angle_beta                  111.8505
_cell_angle_gamma                 64.0457
loop_
_atom_site_label
_atom_site_type_symbol
_atom_site_fract_x
_atom_site_fract_y
_atom_site_fract_z
_atom_site_U_iso_or_equiv
_atom_site_adp_type
_atom_site_occupancy
C1     C     0.70054   0.78662   0.61594   0.00000  Uiso   1.00
C2     C     0.63155   0.78561   0.56392   0.00000  Uiso   1.00
C3     C     0.59207   0.75267   0.57552   0.00000  Uiso   1.00
C4     C     0.53053   0.75782   0.52136   0.00000  Uiso   1.00
C5     C     0.42666   0.75063   0.45024   0.00000  Uiso   1.00
C6     C     0.76813   0.75381   0.59857   0.00000  Uiso   1.00
C7     C     0.84348   0.69415   0.63931   0.00000  Uiso   1.00
C8     C     0.89691   0.67254   0.61431   0.00000  Uiso   1.00
C9     C     0.00510   0.61602   0.59700   0.00000  Uiso   1.00
C10    C     0.67517   0.86684   0.60526   0.00000  Uiso   1.00
C11    C     0.67237   0.90220   0.65163   0.00000  Uiso   1.00
C12    C     0.64755   0.97576   0.63227   0.00000  Uiso   1.00
C13    C     0.61140   0.09472   0.62535   0.00000  Uiso   1.00
C14    C     0.66146   0.85434   0.49911   0.00000  Uiso   1.00
C15    C     0.61033   0.82239   0.50046   0.00000  Uiso   1.00
C16    C     0.54882   0.82760   0.44626   0.00000  Uiso   1.00
C17    C     0.50925   0.79468   0.45779   0.00000  Uiso   1.00
C18    C     0.74691   0.79059   0.53511   0.00000  Uiso   1.00
C19    C     0.80024   0.76908   0.51005   0.00000  Uiso   1.00
C20    C     0.87565   0.70939   0.55073   0.00000  Uiso   1.00
C21    C     0.65394   0.90362   0.54180   0.00000  Uiso   1.00
C22    C     0.62913   0.97713   0.52237   0.00000  Uiso   1.00
C23    C     0.62629   0.01261   0.56870   0.00000  Uiso   1.00
H24    H     0.71708   0.75797   0.66534   0.00000  Uiso   1.00
H25    H     0.60852   0.72420   0.62464   0.00000  Uiso   1.00
H26    H     0.85990   0.66569   0.68841   0.00000  Uiso   1.00
H27    H     0.68881   0.87372   0.70073   0.00000  Uiso   1.00
H28    H     0.47882   0.70295   0.55153   0.00000  Uiso   1.00
H29    H     0.00887   0.57961   0.68601   0.00000  Uiso   1.00
H30    H     0.64810   0.01827   0.71199   0.00000  Uiso   1.00
H31    H     0.64493   0.88298   0.44970   0.00000  Uiso   1.00
H32    H     0.53241   0.85607   0.39716   0.00000  Uiso   1.00
H33    H     0.78379   0.79756   0.46094   0.00000  Uiso   1.00
H34    H     0.61270   0.00558   0.47326   0.00000  Uiso   1.00
H35    H     0.41705   0.80998   0.36690   0.00000  Uiso   1.00
H36    H     0.94710   0.68663   0.50138   0.00000  Uiso   1.00
H37    H     0.58633   0.12529   0.52736   0.00000  Uiso   1.00
O38    O     0.37524   0.73649   0.42854   0.00000  Uiso   1.00
O39    O     0.07064   0.57467   0.60498   0.00000  Uiso   1.00
O40    O     0.59732   0.15018   0.63906   0.00000  Uiso   1.00
N41    N     0.47971   0.73185   0.51529   0.00000  Uiso   1.00
N42    N     0.97527   0.61652   0.64101   0.00000  Uiso   1.00
N43    N     0.63801   0.02662   0.66531   0.00000  Uiso   1.00
N44    N     0.44648   0.78944   0.41594   0.00000  Uiso   1.00
N45    N     0.94204   0.67411   0.54166   0.00000  Uiso   1.00
N46    N     0.60477   0.08422   0.56596   0.00000  Uiso   1.00
C47    C     0.55441   0.50677   0.71430   0.00000  Uiso   1.00
C48    C     0.47899   0.58062   0.67256   0.00000  Uiso   1.00
C49    C     0.44326   0.63598   0.69562   0.00000  Uiso   1.00
C50    C     0.37457   0.69941   0.64959   0.00000  Uiso   1.00
C51    C     0.26228   0.81290   0.59493   0.00000  Uiso   1.00
C52    C     0.53263   0.44947   0.69904   0.00000  Uiso   1.00
C53    C     0.54202   0.39455   0.74436   0.00000  Uiso   1.00
C54    C     0.51850   0.34756   0.72061   0.00000  Uiso   1.00
C55    C     0.48954   0.25739   0.70707   0.00000  Uiso   1.00
C56    C     0.61153   0.49996   0.68717   0.00000  Uiso   1.00
C57    C     0.68727   0.48747   0.72251   0.00000  Uiso   1.00
C58    C     0.73018   0.48298   0.68877   0.00000  Uiso   1.00
C59    C     0.82373   0.47120   0.65679   0.00000  Uiso   1.00
C60    C     0.49595   0.52097   0.59155   0.00000  Uiso   1.00
C61    C     0.44724   0.58833   0.60589   0.00000  Uiso   1.00
C62    C     0.37859   0.65170   0.55981   0.00000  Uiso   1.00
C63    C     0.34277   0.70714   0.58279   0.00000  Uiso   1.00
C64    C     0.50088   0.45718   0.63237   0.00000  Uiso   1.00
C65    C     0.47735   0.41026   0.60855   0.00000  Uiso   1.00
C66    C     0.48669   0.35529   0.65382   0.00000  Uiso   1.00
C67    C     0.57978   0.50767   0.62050   0.00000  Uiso   1.00
C68    C     0.62259   0.50319   0.58670   0.00000  Uiso   1.00
C69    C     0.69838   0.49070   0.62198   0.00000  Uiso   1.00
H70    H     0.57913   0.50076   0.76620   0.00000  Uiso   1.00
H71    H     0.46785   0.62999   0.74722   0.00000  Uiso   1.00
H72    H     0.56660   0.38859   0.79595   0.00000  Uiso   1.00
H73    H     0.71182   0.48150   0.77410   0.00000  Uiso   1.00
H74    H     0.33046   0.77666   0.69677   0.00000  Uiso   1.00
H75    H     0.53871   0.26763   0.79953   0.00000  Uiso   1.00
H76    H     0.84494   0.46355   0.75345   0.00000  Uiso   1.00
H77    H     0.47123   0.52698   0.53964   0.00000  Uiso   1.00
H78    H     0.35403   0.65765   0.50822   0.00000  Uiso   1.00
H79    H     0.45278   0.41624   0.55695   0.00000  Uiso   1.00
H80    H     0.59800   0.50916   0.53510   0.00000  Uiso   1.00
H81    H     0.23808   0.79910   0.50279   0.00000  Uiso   1.00
H82    H     0.44633   0.29007   0.60555   0.00000  Uiso   1.00
H83    H     0.75256   0.48600   0.55947   0.00000  Uiso   1.00
O84    O     0.20911   0.87336   0.58320   0.00000  Uiso   1.00
O85    O     0.48233   0.20553   0.71802   0.00000  Uiso   1.00
O86    O     0.88409   0.46258   0.65757   0.00000  Uiso   1.00
N87    N     0.32481   0.76401   0.65543   0.00000  Uiso   1.00
N88    N     0.51950   0.28811   0.75150   0.00000  Uiso   1.00
N89    N     0.80581   0.47126   0.70843   0.00000  Uiso   1.00
N90    N     0.27510   0.77609   0.55105   0.00000  Uiso   1.00
N91    N     0.46979   0.30019   0.64712   0.00000  Uiso   1.00
N92    N     0.75610   0.48334   0.60405   0.00000  Uiso   1.00
C93    C     0.21653   0.19486   0.59533   0.00000  Uiso   1.00
C94    C     0.16731   0.22199   0.52121   0.00000  Uiso   1.00
C95    C     0.19377   0.23094   0.47648   0.00000  Uiso   1.00
C96    C     0.13961   0.25639   0.41078   0.00000  Uiso   1.00
C97    C     0.07501   0.29613   0.29875   0.00000  Uiso   1.00
C98    C     0.17149   0.25391   0.61941   0.00000  Uiso   1.00
C99    C     0.20148   0.28970   0.65727   0.00000  Uiso   1.00
C100   C     0.15083   0.34202   0.67425   0.00000  Uiso   1.00
C101   C     0.09274   0.43129   0.71473   0.00000  Uiso   1.00
C102   C     0.21262   0.12875   0.61991   0.00000  Uiso   1.00
C103   C     0.27719   0.05929   0.65820   0.00000  Uiso   1.00
C104   C     0.26117   0.00623   0.67561   0.00000  Uiso   1.00
C105   C     0.26694   0.90115   0.71687   0.00000  Uiso   1.00
C106   C     0.07328   0.22413   0.55819   0.00000  Uiso   1.00
C107   C     0.08950   0.23789   0.50103   0.00000  Uiso   1.00
C108   C     0.03528   0.26332   0.43538   0.00000  Uiso   1.00
C109   C     0.06167   0.27231   0.39056   0.00000  Uiso   1.00
C110   C     0.09368   0.26981   0.59924   0.00000  Uiso   1.00
C111   C     0.04299   0.32209   0.61617   0.00000  Uiso   1.00
C112   C     0.07289   0.35795   0.65404   0.00000  Uiso   1.00
C113   C     0.13481   0.14464   0.59974   0.00000  Uiso   1.00
C114   C     0.11869   0.09168   0.61710   0.00000  Uiso   1.00
C115   C     0.18322   0.02216   0.65540   0.00000  Uiso   1.00
H116   H     0.27710   0.18249   0.61104   0.00000  Uiso   1.00
H117   H     0.25399   0.21864   0.49211   0.00000  Uiso   1.00
H118   H     0.26169   0.27738   0.67288   0.00000  Uiso   1.00
H119   H     0.33739   0.04701   0.67380   0.00000  Uiso   1.00
H120   H     0.19405   0.26575   0.35136   0.00000  Uiso   1.00
H121   H     0.21029   0.38961   0.73253   0.00000  Uiso   1.00
H122   H     0.36992   0.90382   0.73449   0.00000  Uiso   1.00
H123   H     0.01270   0.23651   0.54248   0.00000  Uiso   1.00
H124   H     0.97507   0.27562   0.41979   0.00000  Uiso   1.00
H125   H     0.98278   0.33437   0.60056   0.00000  Uiso   1.00
H126   H     0.05847   0.10400   0.60148   0.00000  Uiso   1.00
H127   H     0.96767   0.31201   0.29266   0.00000  Uiso   1.00
H128   H     0.98392   0.43586   0.67384   0.00000  Uiso   1.00
H129   H     0.14354   0.95008   0.67579   0.00000  Uiso   1.00
O130   O     0.06087   0.31366   0.24253   0.00000  Uiso   1.00
O131   O     0.08220   0.47614   0.74263   0.00000  Uiso   1.00
O132   O     0.29161   0.83880   0.74519   0.00000  Uiso   1.00
N133   N     0.14593   0.27126   0.35438   0.00000  Uiso   1.00
N134   N     0.16112   0.38706   0.71075   0.00000  Uiso   1.00
N135   N     0.31036   0.93290   0.71259   0.00000  Uiso   1.00
N136   N     0.02412   0.29615   0.32280   0.00000  Uiso   1.00
N137   N     0.03931   0.41195   0.67916   0.00000  Uiso   1.00
N138   N     0.18854   0.95779   0.68101   0.00000  Uiso   1.00
C139   C     0.77161   0.06783   0.22642   0.00000  Uiso   1.00
C140   C     0.74305   0.07704   0.15383   0.00000  Uiso   1.00
C141   C     0.71507   0.13971   0.10539   0.00000  Uiso   1.00
C142   C     0.69179   0.13715   0.04193   0.00000  Uiso   1.00
C143   C     0.64679   0.16102   0.93142   0.00000  Uiso   1.00
C144   C     0.85581   0.00197   0.26157   0.00000  Uiso   1.00
C145   C     0.92264   0.00153   0.30372   0.00000  Uiso   1.00
C146   C     0.99427   0.93579   0.33096   0.00000  Uiso   1.00
C147   C     0.12433   0.84310   0.38776   0.00000  Uiso   1.00
C148   C     0.72172   0.04500   0.24564   0.00000  Uiso   1.00
C149   C     0.67582   0.08073   0.27441   0.00000  Uiso   1.00
C150   C     0.63458   0.05119   0.28824   0.00000  Uiso   1.00
C151   C     0.55644   0.02532   0.32030   0.00000  Uiso   1.00
C152   C     0.78000   0.95185   0.19984   0.00000  Uiso   1.00
C153   C     0.74761   0.01403   0.13940   0.00000  Uiso   1.00
C154   C     0.72436   0.01138   0.07599   0.00000  Uiso   1.00
C155   C     0.69635   0.07404   0.02746   0.00000  Uiso   1.00
C156   C     0.86037   0.93898   0.24714   0.00000  Uiso   1.00
C157   C     0.93192   0.87321   0.27432   0.00000  Uiso   1.00
C158   C     0.99884   0.87268   0.31650   0.00000  Uiso   1.00
C159   C     0.72628   0.98200   0.23120   0.00000  Uiso   1.00
C160   C     0.68511   0.95241   0.24500   0.00000  Uiso   1.00
C161   C     0.63915   0.98808   0.27379   0.00000  Uiso   1.00
H162   H     0.76806   0.11687   0.23766   0.00000  Uiso   1.00
H163   H     0.71156   0.18845   0.11658   0.00000  Uiso   1.00
H164   H     0.91909   0.05029   0.31489   0.00000  Uiso   1.00
H165   H     0.67231   0.12948   0.28557   0.00000  Uiso   1.00
H166   H     0.65096   0.24001   0.97599   0.00000  Uiso   1.00
H167   H     0.08853   0.94870   0.39414   0.00000  Uiso   1.00
H168   H     0.56815   0.11567   0.33233   0.00000  Uiso   1.00
H169   H     0.78355   0.90280   0.18861   0.00000  Uiso   1.00
H170   H     0.72790   0.96262   0.06483   0.00000  Uiso   1.00
H171   H     0.93543   0.82447   0.26314   0.00000  Uiso   1.00
H172   H     0.68865   0.90365   0.23383   0.00000  Uiso   1.00
H173   H     0.66422   0.05672   0.93399   0.00000  Uiso   1.00
H174   H     0.10180   0.76541   0.35215   0.00000  Uiso   1.00
H175   H     0.58142   0.93238   0.29033   0.00000  Uiso   1.00
O176   O     0.62073   0.19158   0.87446   0.00000  Uiso   1.00
O177   O     0.19480   0.80939   0.42307   0.00000  Uiso   1.00
O178   O     0.51207   0.02845   0.34197   0.00000  Uiso   1.00
N179   N     0.66170   0.18867   0.98309   0.00000  Uiso   1.00
N180   N     0.07081   0.91631   0.37403   0.00000  Uiso   1.00
N181   N     0.58432   0.07240   0.31625   0.00000  Uiso   1.00
N182   N     0.66884   0.09004   0.96049   0.00000  Uiso   1.00
N183   N     0.07795   0.81769   0.35143   0.00000  Uiso   1.00
N184   N     0.59145   0.97378   0.29365   0.00000  Uiso   1.00
C185   C     0.30167   0.69776   0.97065   0.00000  Uiso   1.00
C186   C     0.24380   0.67834   0.92696   0.00000  Uiso   1.00
C187   C     0.21549   0.63837   0.94807   0.00000  Uiso   1.00
C188   C     0.16295   0.62646   0.90044   0.00000  Uiso   1.00
C189   C     0.07662   0.59221   0.84268   0.00000  Uiso   1.00
C190   C     0.26052   0.78072   0.94588   0.00000  Uiso   1.00
C191   C     0.24628   0.82683   0.98290   0.00000  Uiso   1.00
C192   C     0.20782   0.90111   0.95120   0.00000  Uiso   1.00
C193   C     0.14749   0.02581   0.92282   0.00000  Uiso   1.00
C194   C     0.37123   0.66845   0.95543   0.00000  Uiso   1.00
C195   C     0.45008   0.62016   0.00048   0.00000  Uiso   1.00
C196   C     0.50483   0.59993   0.97682   0.00000  Uiso   1.00
C197   C     0.61640   0.55030   0.96327   0.00000  Uiso   1.00
C198   C     0.25870   0.74770   0.84853   0.00000  Uiso   1.00
C199   C     0.22046   0.70547   0.86062   0.00000  Uiso   1.00
C200   C     0.16795   0.69362   0.81295   0.00000  Uiso   1.00
C201   C     0.13957   0.65363   0.83398   0.00000  Uiso   1.00
C202   C     0.23718   0.80785   0.87955   0.00000  Uiso   1.00
C203   C     0.19874   0.88208   0.84778   0.00000  Uiso   1.00
C204   C     0.18444   0.92829   0.88474   0.00000  Uiso   1.00
C205   C     0.34789   0.69557   0.88909   0.00000  Uiso   1.00
C206   C     0.40253   0.67542   0.86536   0.00000  Uiso   1.00
C207   C     0.48145   0.62711   0.91036   0.00000  Uiso   1.00
H208   H     0.31984   0.67664   0.02230   0.00000  Uiso   1.00
H209   H     0.23356   0.61739   0.99941   0.00000  Uiso   1.00
H210   H     0.26435   0.80582   0.03423   0.00000  Uiso   1.00
H211   H     0.46811   0.59918   0.05181   0.00000  Uiso   1.00
H212   H     0.12760   0.56368   0.94478   0.00000  Uiso   1.00
H213   H     0.19254   0.96099   0.01821   0.00000  Uiso   1.00
H214   H     0.62222   0.52526   0.05528   0.00000  Uiso   1.00
H215   H     0.24053   0.76882   0.79688   0.00000  Uiso   1.00
H216   H     0.14990   0.71462   0.76162   0.00000  Uiso   1.00
H217   H     0.18069   0.90306   0.79645   0.00000  Uiso   1.00
H218   H     0.38445   0.69642   0.81402   0.00000  Uiso   1.00
H219   H     0.05969   0.64260   0.75178   0.00000  Uiso   1.00
H220   H     0.12464   0.03992   0.82522   0.00000  Uiso   1.00
H221   H     0.55431   0.60418   0.86228   0.00000  Uiso   1.00
O222   O     0.03544   0.56584   0.82915   0.00000  Uiso   1.00
O223   O     0.12066   0.08710   0.92550   0.00000  Uiso   1.00
O224   O     0.68438   0.51542   0.97412   0.00000  Uiso   1.00
N225   N     0.12407   0.58968   0.90419   0.00000  Uiso   1.00
N226   N     0.18477   0.96115   0.97285   0.00000  Uiso   1.00
N227   N     0.58649   0.55378   0.00751   0.00000  Uiso   1.00
N228   N     0.08753   0.63214   0.80034   0.00000  Uiso   1.00
N229   N     0.14823   0.00361   0.86900   0.00000  Uiso   1.00
N230   N     0.54995   0.59625   0.90366   0.00000  Uiso   1.00
C231   C     0.30037   0.36429   0.13995   0.00000  Uiso   1.00
C232   C     0.27874   0.38081   0.06769   0.00000  Uiso   1.00
C233   C     0.32840   0.37891   0.04162   0.00000  Uiso   1.00
C234   C     0.29748   0.39577   0.97428   0.00000  Uiso   1.00
C235   C     0.27574   0.41863   0.86813   0.00000  Uiso   1.00
C236   C     0.28525   0.30330   0.15642   0.00000  Uiso   1.00
C237   C     0.34039   0.23624   0.20496   0.00000  Uiso   1.00
C238   C     0.31494   0.18785   0.21233   0.00000  Uiso   1.00
C239   C     0.30329   0.09040   0.24397   0.00000  Uiso   1.00
C240   C     0.23896   0.43158   0.14556   0.00000  Uiso   1.00
C241   C     0.25518   0.47236   0.18499   0.00000  Uiso   1.00
C242   C     0.19075   0.53197   0.18322   0.00000  Uiso   1.00
C243   C     0.10724   0.63369   0.19800   0.00000  Uiso   1.00
C244   C     0.15713   0.39761   0.06673   0.00000  Uiso   1.00
C245   C     0.20094   0.39890   0.02792   0.00000  Uiso   1.00
C246   C     0.16993   0.41577   0.96061   0.00000  Uiso   1.00
C247   C     0.21954   0.41390   0.93444   0.00000  Uiso   1.00
C248   C     0.20745   0.32139   0.11666   0.00000  Uiso   1.00
C249   C     0.18191   0.27310   0.12395   0.00000  Uiso   1.00
C250   C     0.23700   0.20598   0.17249   0.00000  Uiso   1.00
C251   C     0.16116   0.44968   0.10580   0.00000  Uiso   1.00
C252   C     0.09670   0.50922   0.10398   0.00000  Uiso   1.00
C253   C     0.11281   0.55009   0.14338   0.00000  Uiso   1.00
H254   H     0.36094   0.35019   0.17091   0.00000  Uiso   1.00
H255   H     0.38861   0.36490   0.07241   0.00000  Uiso   1.00
H256   H     0.40059   0.22225   0.23573   0.00000  Uiso   1.00
H257   H     0.31539   0.45834   0.21575   0.00000  Uiso   1.00
H258   H     0.38499   0.38915   0.94566   0.00000  Uiso   1.00
H259   H     0.41024   0.08838   0.29005   0.00000  Uiso   1.00
H260   H     0.23058   0.58622   0.24793   0.00000  Uiso   1.00
H261   H     0.09656   0.41169   0.03577   0.00000  Uiso   1.00
H262   H     0.10972   0.42977   0.92985   0.00000  Uiso   1.00
H263   H     0.12170   0.28712   0.09317   0.00000  Uiso   1.00
H264   H     0.03650   0.52321   0.07320   0.00000  Uiso   1.00
H265   H     0.15864   0.44180   0.82995   0.00000  Uiso   1.00
H266   H     0.18388   0.14104   0.17435   0.00000  Uiso   1.00
H267   H     0.00422   0.63888   0.13222   0.00000  Uiso   1.00
O268   O     0.28525   0.42623   0.82057   0.00000  Uiso   1.00
O269   O     0.31837   0.03165   0.27240   0.00000  Uiso   1.00
O270   O     0.08266   0.68480   0.21714   0.00000  Uiso   1.00
N271   N     0.32991   0.39907   0.93297   0.00000  Uiso   1.00
N272   N     0.35351   0.11787   0.25494   0.00000  Uiso   1.00
N273   N     0.18555   0.58330   0.21558   0.00000  Uiso   1.00
N274   N     0.20811   0.42741   0.87070   0.00000  Uiso   1.00
N275   N     0.23171   0.14621   0.19268   0.00000  Uiso   1.00
N276   N     0.06375   0.61163   0.15331   0.00000  Uiso   1.00
C277   C     0.39065   0.22015   0.39027   0.00000  Uiso   1.00
C278   C     0.45575   0.23850   0.41402   0.00000  Uiso   1.00
C279   C     0.50972   0.22680   0.39036   0.00000  Uiso   1.00
C280   C     0.56466   0.24734   0.41853   0.00000  Uiso   1.00
C281   C     0.66558   0.27114   0.44777   0.00000  Uiso   1.00
C282   C     0.31321   0.29118   0.36944   0.00000  Uiso   1.00
C283   C     0.24734   0.32375   0.30831   0.00000  Uiso   1.00
C284   C     0.18229   0.38864   0.29895   0.00000  Uiso   1.00
C285   C     0.06191   0.49418   0.25901   0.00000  Uiso   1.00
C286   C     0.40407   0.17006   0.45045   0.00000  Uiso   1.00
C287   C     0.41457   0.10080   0.45743   0.00000  Uiso   1.00
C288   C     0.42600   0.06373   0.51627   0.00000  Uiso   1.00
C289   C     0.44668   0.98122   0.60210   0.00000  Uiso   1.00
C290   C     0.39224   0.27747   0.48236   0.00000  Uiso   1.00
C291   C     0.45661   0.26964   0.46404   0.00000  Uiso   1.00
C292   C     0.51148   0.29021   0.49225   0.00000  Uiso   1.00
C293   C     0.56553   0.27853   0.46864   0.00000  Uiso   1.00
C294   C     0.31408   0.32231   0.41946   0.00000  Uiso   1.00
C295   C     0.24911   0.38716   0.41019   0.00000  Uiso   1.00
C296   C     0.18316   0.41983   0.34906   0.00000  Uiso   1.00
C297   C     0.40494   0.20119   0.50047   0.00000  Uiso   1.00
C298   C     0.41634   0.16422   0.55931   0.00000  Uiso   1.00
C299   C     0.42686   0.09491   0.56638   0.00000  Uiso   1.00
H300   H     0.38997   0.19592   0.35133   0.00000  Uiso   1.00
H301   H     0.50903   0.20271   0.35165   0.00000  Uiso   1.00
H302   H     0.24669   0.29964   0.26961   0.00000  Uiso   1.00
H303   H     0.41390   0.07673   0.41871   0.00000  Uiso   1.00
H304   H     0.64139   0.22399   0.37405   0.00000  Uiso   1.00
H305   H     0.08823   0.42837   0.20108   0.00000  Uiso   1.00
H306   H     0.44081   0.95831   0.51547   0.00000  Uiso   1.00
H307   H     0.39291   0.30171   0.52130   0.00000  Uiso   1.00
H308   H     0.51214   0.31430   0.53095   0.00000  Uiso   1.00
H309   H     0.24980   0.41123   0.44891   0.00000  Uiso   1.00
H310   H     0.41700   0.18832   0.59801   0.00000  Uiso   1.00
H311   H     0.64391   0.31456   0.51958   0.00000  Uiso   1.00
H312   H     0.09074   0.51894   0.34660   0.00000  Uiso   1.00
H313   H     0.44333   0.04889   0.66100   0.00000  Uiso   1.00
O314   O     0.72101   0.27567   0.45008   0.00000  Uiso   1.00
O315   O     0.99528   0.54380   0.22315   0.00000  Uiso   1.00
O316   O     0.45786   0.92710   0.63563   0.00000  Uiso   1.00
N317   N     0.62563   0.24356   0.40698   0.00000  Uiso   1.00
N318   N     0.10846   0.43465   0.24526   0.00000  Uiso   1.00
N319   N     0.43808   0.99520   0.53919   0.00000  Uiso   1.00
N320   N     0.62699   0.29230   0.48529   0.00000  Uiso   1.00
N321   N     0.10982   0.48339   0.32357   0.00000  Uiso   1.00
N322   N     0.43943   0.04393   0.61749   0.00000  Uiso   1.00
C323   C     0.44971   0.63019   0.16487   0.00000  Uiso   1.00
C324   C     0.50753   0.54976   0.20515   0.00000  Uiso   1.00
C325   C     0.51462   0.49121   0.18222   0.00000  Uiso   1.00
C326   C     0.57109   0.42179   0.22677   0.00000  Uiso   1.00
C327   C     0.65365   0.29849   0.27940   0.00000  Uiso   1.00
C328   C     0.50005   0.66496   0.17145   0.00000  Uiso   1.00
C329   C     0.50084   0.70327   0.12019   0.00000  Uiso   1.00
C330   C     0.55101   0.73083   0.13638   0.00000  Uiso   1.00
C331   C     0.62191   0.78641   0.13669   0.00000  Uiso   1.00
C332   C     0.40164   0.66273   0.20017   0.00000  Uiso   1.00
C333   C     0.31969   0.69920   0.17306   0.00000  Uiso   1.00
C334   C     0.28700   0.72490   0.21342   0.00000  Uiso   1.00
C335   C     0.20511   0.77703   0.25832   0.00000  Uiso   1.00
C336   C     0.53738   0.61103   0.28476   0.00000  Uiso   1.00
C337   C     0.55515   0.53935   0.27027   0.00000  Uiso   1.00
C338   C     0.61162   0.47001   0.31486   0.00000  Uiso   1.00
C339   C     0.61879   0.41136   0.29201   0.00000  Uiso   1.00
C340   C     0.54767   0.65455   0.23657   0.00000  Uiso   1.00
C341   C     0.59784   0.68206   0.25284   0.00000  Uiso   1.00
C342   C     0.59871   0.72040   0.20162   0.00000  Uiso   1.00
C343   C     0.44926   0.65232   0.26529   0.00000  Uiso   1.00
C344   C     0.41669   0.67799   0.30570   0.00000  Uiso   1.00
C345   C     0.33471   0.71448   0.27866   0.00000  Uiso   1.00
H346   H     0.41264   0.63830   0.11417   0.00000  Uiso   1.00
H347   H     0.47776   0.49929   0.13182   0.00000  Uiso   1.00
H348   H     0.46398   0.71132   0.06981   0.00000  Uiso   1.00
H349   H     0.28286   0.70724   0.12266   0.00000  Uiso   1.00
H350   H     0.57099   0.34058   0.18010   0.00000  Uiso   1.00
H351   H     0.54190   0.78768   0.04934   0.00000  Uiso   1.00
H352   H     0.15997   0.77908   0.16079   0.00000  Uiso   1.00
H353   H     0.57445   0.60293   0.33546   0.00000  Uiso   1.00
H354   H     0.64846   0.46197   0.36525   0.00000  Uiso   1.00
H355   H     0.63468   0.67400   0.30323   0.00000  Uiso   1.00
H356   H     0.45356   0.66992   0.35609   0.00000  Uiso   1.00
H357   H     0.70953   0.31029   0.36956   0.00000  Uiso   1.00
H358   H     0.68045   0.75739   0.23879   0.00000  Uiso   1.00
H359   H     0.29852   0.74879   0.35025   0.00000  Uiso   1.00
O360   O     0.68604   0.23335   0.29043   0.00000  Uiso   1.00
O361   O     0.64787   0.81994   0.11887   0.00000  Uiso   1.00
O362   O     0.14679   0.80865   0.26510   0.00000  Uiso   1.00
N363   N     0.59343   0.35279   0.22061   0.00000  Uiso   1.00
N364   N     0.56625   0.77080   0.09835   0.00000  Uiso   1.00
N365   N     0.20917   0.76278   0.20255   0.00000  Uiso   1.00
N366   N     0.66797   0.33649   0.32255   0.00000  Uiso   1.00
N367   N     0.64079   0.75450   0.20029   0.00000  Uiso   1.00
N368   N     0.28372   0.74648   0.30449   0.00000  Uiso   1.00
C369   C     0.88852   0.90733   0.47563   0.00000  Uiso   1.00
C370   C     0.91063   0.88682   0.54794   0.00000  Uiso   1.00
C371   C     0.86057   0.88811   0.57336   0.00000  Uiso   1.00
C372   C     0.89207   0.86735   0.64087   0.00000  Uiso   1.00
C373   C     0.91444   0.83870   0.74698   0.00000  Uiso   1.00
C374   C     0.94780   0.84109   0.46717   0.00000  Uiso   1.00
C375   C     0.92898   0.80394   0.42466   0.00000  Uiso   1.00
C376   C     0.99176   0.74469   0.42417   0.00000  Uiso   1.00
C377   C     0.07183   0.64508   0.40484   0.00000  Uiso   1.00
C378   C     0.90645   0.96724   0.46298   0.00000  Uiso   1.00
C379   C     0.85288   0.03616   0.41694   0.00000  Uiso   1.00
C380   C     0.88086   0.08311   0.41291   0.00000  Uiso   1.00
C381   C     0.89674   0.17937   0.38708   0.00000  Uiso   1.00
C382   C     0.03346   0.86816   0.55034   0.00000  Uiso   1.00
C383   C     0.98936   0.86554   0.58852   0.00000  Uiso   1.00
C384   C     0.02094   0.84478   0.65601   0.00000  Uiso   1.00
C385   C     0.97094   0.84605   0.68152   0.00000  Uiso   1.00
C386   C     0.02652   0.81981   0.50774   0.00000  Uiso   1.00
C387   C     0.08935   0.76061   0.50731   0.00000  Uiso   1.00
C388   C     0.07063   0.72338   0.46482   0.00000  Uiso   1.00
C389   C     0.98518   0.94597   0.50356   0.00000  Uiso   1.00
C390   C     0.01325   0.99282   0.49960   0.00000  Uiso   1.00
C391   C     0.95974   0.06180   0.45356   0.00000  Uiso   1.00
H392   H     0.82722   0.92389   0.44404   0.00000  Uiso   1.00
H393   H     0.79965   0.90457   0.54194   0.00000  Uiso   1.00
H394   H     0.86805   0.82042   0.39326   0.00000  Uiso   1.00
H395   H     0.79197   0.05260   0.38555   0.00000  Uiso   1.00
H396   H     0.80381   0.87375   0.66837   0.00000  Uiso   1.00
H397   H     0.94803   0.69633   0.35486   0.00000  Uiso   1.00
H398   H     0.78759   0.18592   0.33859   0.00000  Uiso   1.00
H399   H     0.09476   0.85160   0.58193   0.00000  Uiso   1.00
H400   H     0.08187   0.82832   0.68740   0.00000  Uiso   1.00
H401   H     0.15026   0.74416   0.53872   0.00000  Uiso   1.00
H402   H     0.07418   0.97634   0.53101   0.00000  Uiso   1.00
H403   H     0.03287   0.81185   0.78643   0.00000  Uiso   1.00
H404   H     0.17709   0.63443   0.47292   0.00000  Uiso   1.00
H405   H     0.01665   0.12403   0.45665   0.00000  Uiso   1.00
O406   O     0.90504   0.82877   0.79429   0.00000  Uiso   1.00
O407   O     0.09424   0.59601   0.38297   0.00000  Uiso   1.00
O408   O     0.88375   0.23834   0.36163   0.00000  Uiso   1.00
N409   N     0.85948   0.86239   0.68168   0.00000  Uiso   1.00
N410   N     0.99432   0.69650   0.38858   0.00000  Uiso   1.00
N411   N     0.84433   0.15423   0.37335   0.00000  Uiso   1.00
N412   N     0.98274   0.82909   0.74521   0.00000  Uiso   1.00
N413   N     0.11757   0.66320   0.45210   0.00000  Uiso   1.00
N414   N     0.96758   0.12092   0.43688   0.00000  Uiso   1.00
C415   C     0.29620   0.18500   0.91734   0.00000  Uiso   1.00
C416   C     0.32088   0.10473   0.93597   0.00000  Uiso   1.00
C417   C     0.33987   0.05846   0.90003   0.00000  Uiso   1.00
C418   C     0.36096   0.98691   0.92539   0.00000  Uiso   1.00
C419   C     0.39893   0.86598   0.94531   0.00000  Uiso   1.00
C420   C     0.21600   0.22696   0.91603   0.00000  Uiso   1.00
C421   C     0.14681   0.28345   0.86332   0.00000  Uiso   1.00
C422   C     0.07961   0.31480   0.87189   0.00000  Uiso   1.00
C423   C     0.95477   0.38366   0.86086   0.00000  Uiso   1.00
C424   C     0.35424   0.19263   0.97467   0.00000  Uiso   1.00
C425   C     0.40128   0.22028   0.97127   0.00000  Uiso   1.00
C426   C     0.45047   0.22274   0.02921   0.00000  Uiso   1.00
C427   C     0.54027   0.23830   0.10924   0.00000  Uiso   1.00
C428   C     0.29988   0.14022   0.02630   0.00000  Uiso   1.00
C429   C     0.32288   0.08041   0.99516   0.00000  Uiso   1.00
C430   C     0.34395   0.00891   0.02058   0.00000  Uiso   1.00
C431   C     0.36297   0.96254   0.98468   0.00000  Uiso   1.00
C432   C     0.21799   0.20264   0.97521   0.00000  Uiso   1.00
C433   C     0.15089   0.23391   0.98387   0.00000  Uiso   1.00
C434   C     0.08162   0.29043   0.93118   0.00000  Uiso   1.00
C435   C     0.35625   0.16830   0.03385   0.00000  Uiso   1.00
C436   C     0.40536   0.17073   0.09182   0.00000  Uiso   1.00
C437   C     0.45247   0.19837   0.08850   0.00000  Uiso   1.00
H438   H     0.29464   0.20394   0.87126   0.00000  Uiso   1.00
H439   H     0.33831   0.07730   0.85423   0.00000  Uiso   1.00
H440   H     0.14528   0.30227   0.81753   0.00000  Uiso   1.00
H441   H     0.39972   0.23909   0.92546   0.00000  Uiso   1.00
H442   H     0.38758   0.92618   0.86143   0.00000  Uiso   1.00
H443   H     0.98058   0.40055   0.78405   0.00000  Uiso   1.00
H444   H     0.51710   0.26734   0.01165   0.00000  Uiso   1.00
H445   H     0.30144   0.12129   0.07237   0.00000  Uiso   1.00
H446   H     0.34549   0.99011   0.06638   0.00000  Uiso   1.00
H447   H     0.15246   0.21507   0.02967   0.00000  Uiso   1.00
H448   H     0.40689   0.15190   0.13761   0.00000  Uiso   1.00
H449   H     0.39340   0.85541   0.03362   0.00000  Uiso   1.00
H450   H     0.98640   0.32978   0.95624   0.00000  Uiso   1.00
H451   H     0.52293   0.19658   0.18384   0.00000  Uiso   1.00
O452   O     0.41932   0.80600   0.93994   0.00000  Uiso   1.00
O453   O     0.88536   0.42836   0.83842   0.00000  Uiso   1.00
O454   O     0.58926   0.25360   0.13703   0.00000  Uiso   1.00
N455   N     0.38292   0.92752   0.90279   0.00000  Uiso   1.00
N456   N     0.00240   0.37102   0.83043   0.00000  Uiso   1.00
N457   N     0.50399   0.24651   0.04322   0.00000  Uiso   1.00
N458   N     0.38606   0.88944   0.99544   0.00000  Uiso   1.00
N459   N     0.00553   0.33294   0.92309   0.00000  Uiso   1.00
N460   N     0.50712   0.20843   0.13587   0.00000  Uiso   1.00
C461   C     0.84110   0.35328   0.97601   0.00000  Uiso   1.00
C462   C     0.85940   0.40599   0.00770   0.00000  Uiso   1.00
C463   C     0.85430   0.46760   0.97591   0.00000  Uiso   1.00
C464   C     0.87356   0.50872   0.01355   0.00000  Uiso   1.00
C465   C     0.89844   0.59356   0.05257   0.00000  Uiso   1.00
C466   C     0.91560   0.27797   0.01393   0.00000  Uiso   1.00
C467   C     0.95775   0.23194   0.98737   0.00000  Uiso   1.00
C468   C     0.02432   0.16529   0.03026   0.00000  Uiso   1.00
C469   C     0.13642   0.05135   0.07895   0.00000  Uiso   1.00
C470   C     0.77796   0.35085   0.99094   0.00000  Uiso   1.00
C471   C     0.70438   0.36608   0.94506   0.00000  Uiso   1.00
C472   C     0.65507   0.36077   0.96859   0.00000  Uiso   1.00
C473   C     0.55346   0.35999   0.98158   0.00000  Uiso   1.00
C474   C     0.88437   0.31675   0.09938   0.00000  Uiso   1.00
C475   C     0.88291   0.38614   0.07471   0.00000  Uiso   1.00
C476   C     0.90217   0.42718   0.11241   0.00000  Uiso   1.00
C477   C     0.89710   0.48885   0.08068   0.00000  Uiso   1.00
C478   C     0.93911   0.25812   0.08094   0.00000  Uiso   1.00
C479   C     0.00562   0.19152   0.12388   0.00000  Uiso   1.00
C480   C     0.04786   0.14541   0.09740   0.00000  Uiso   1.00
C481   C     0.80146   0.33101   0.05796   0.00000  Uiso   1.00
C482   C     0.75226   0.32567   0.08156   0.00000  Uiso   1.00
C483   C     0.67862   0.34089   0.03572   0.00000  Uiso   1.00
H484   H     0.82281   0.36872   0.92383   0.00000  Uiso   1.00
H485   H     0.83612   0.48293   0.92405   0.00000  Uiso   1.00
H486   H     0.93955   0.24731   0.93551   0.00000  Uiso   1.00
H487   H     0.68622   0.38143   0.89320   0.00000  Uiso   1.00
H488   H     0.86127   0.60079   0.95384   0.00000  Uiso   1.00
H489   H     0.07933   0.10395   0.97801   0.00000  Uiso   1.00
H490   H     0.54514   0.38677   0.88879   0.00000  Uiso   1.00
H491   H     0.90267   0.30130   0.15156   0.00000  Uiso   1.00
H492   H     0.92036   0.41181   0.16427   0.00000  Uiso   1.00
H493   H     0.02379   0.17619   0.17573   0.00000  Uiso   1.00
H494   H     0.77046   0.31031   0.13342   0.00000  Uiso   1.00
H495   H     0.92965   0.54306   0.14881   0.00000  Uiso   1.00
H496   H     0.14771   0.04622   0.17299   0.00000  Uiso   1.00
H497   H     0.61352   0.32905   0.08377   0.00000  Uiso   1.00
O498   O     0.90568   0.64583   0.05558   0.00000  Uiso   1.00
O499   O     0.19176   0.99399   0.08729   0.00000  Uiso   1.00
O500   O     0.49091   0.36505   0.97024   0.00000  Uiso   1.00
N501   N     0.87492   0.57204   0.99798   0.00000  Uiso   1.00
N502   N     0.07880   0.10753   0.02058   0.00000  Uiso   1.00
N503   N     0.57939   0.37193   0.93717   0.00000  Uiso   1.00
N504   N     0.91171   0.54098   0.10289   0.00000  Uiso   1.00
N505   N     0.11560   0.07647   0.12550   0.00000  Uiso   1.00
N506   N     0.61618   0.34087   0.04208   0.00000  Uiso   1.00
C507   C     0.72984   0.85869   0.90296   0.00000  Uiso   1.00
C508   C     0.77742   0.83038   0.97726   0.00000  Uiso   1.00
C509   C     0.74738   0.82752   0.02054   0.00000  Uiso   1.00
C510   C     0.80056   0.79977   0.08668   0.00000  Uiso   1.00
C511   C     0.86221   0.75950   0.19870   0.00000  Uiso   1.00
C512   C     0.74317   0.91884   0.88009   0.00000  Uiso   1.00
C513   C     0.68432   0.99034   0.84166   0.00000  Uiso   1.00
C514   C     0.70868   0.03705   0.82601   0.00000  Uiso   1.00
C515   C     0.71714   0.13409   0.78712   0.00000  Uiso   1.00
C516   C     0.77028   0.79658   0.87930   0.00000  Uiso   1.00
C517   C     0.73422   0.76531   0.84019   0.00000  Uiso   1.00
C518   C     0.78139   0.70910   0.82385   0.00000  Uiso   1.00
C519   C     0.83195   0.61633   0.78374   0.00000  Uiso   1.00
C520   C     0.87772   0.81450   0.94347   0.00000  Uiso   1.00
C521   C     0.85774   0.80638   0.99926   0.00000  Uiso   1.00
C522   C     0.91098   0.77863   0.06535   0.00000  Uiso   1.00
C523   C     0.88102   0.77573   0.10873   0.00000  Uiso   1.00
C524   C     0.82348   0.89484   0.90209   0.00000  Uiso   1.00
C525   C     0.84793   0.94145   0.88648   0.00000  Uiso   1.00
C526   C     0.78914   0.01301   0.84804   0.00000  Uiso   1.00
C527   C     0.85060   0.77258   0.90130   0.00000  Uiso   1.00
C528   C     0.89783   0.71642   0.88501   0.00000  Uiso   1.00
C529   C     0.86186   0.68506   0.84589   0.00000  Uiso   1.00
H530   H     0.66731   0.87738   0.88583   0.00000  Uiso   1.00
H531   H     0.68521   0.84610   0.00349   0.00000  Uiso   1.00
H532   H     0.62217   0.00889   0.82464   0.00000  Uiso   1.00
H533   H     0.67207   0.78390   0.82318   0.00000  Uiso   1.00
H534   H     0.74048   0.80087   0.14365   0.00000  Uiso   1.00
H535   H     0.60755   0.14411   0.76651   0.00000  Uiso   1.00
H536   H     0.71276   0.66967   0.76341   0.00000  Uiso   1.00
H537   H     0.94025   0.79582   0.96060   0.00000  Uiso   1.00
H538   H     0.97314   0.76006   0.08236   0.00000  Uiso   1.00
H539   H     0.91009   0.92286   0.90351   0.00000  Uiso   1.00
H540   H     0.95998   0.69786   0.90204   0.00000  Uiso   1.00
H541   H     0.97417   0.73104   0.20766   0.00000  Uiso   1.00
H542   H     0.84123   0.07429   0.83052   0.00000  Uiso   1.00
H543   H     0.94644   0.59984   0.82743   0.00000  Uiso   1.00
O544   O     0.87402   0.74393   0.25441   0.00000  Uiso   1.00
O545   O     0.69962   0.19425   0.75961   0.00000  Uiso   1.00
O546   O     0.83765   0.57178   0.75555   0.00000  Uiso   1.00
N547   N     0.79097   0.78933   0.14200   0.00000  Uiso   1.00
N548   N     0.66669   0.11025   0.78941   0.00000  Uiso   1.00
N549   N     0.76504   0.66669   0.78650   0.00000  Uiso   1.00
N550   N     0.91671   0.75175   0.17645   0.00000  Uiso   1.00
N551   N     0.79243   0.07267   0.82385   0.00000  Uiso   1.00
N552   N     0.89079   0.62911   0.82095   0.00000  Uiso   1.00
