data_job_04232
_audit_creation_date              2018-12-19
_audit_creation_method            'Materials Studio'
_symmetry_space_group_name_H-M    'P1'
_symmetry_Int_Tables_number       1
_symmetry_cell_setting            triclinic
loop_
_symmetry_equiv_pos_as_xyz
  x,y,z
_cell_length_a                    18.8882
_cell_length_b                    18.8882
_cell_length_c                    12.4867
_cell_angle_alpha                 90.0000
_cell_angle_beta                  90.0000
_cell_angle_gamma                 120.0000
loop_
_atom_site_label
_atom_site_type_symbol
_atom_site_fract_x
_atom_site_fract_y
_atom_site_fract_z
_atom_site_U_iso_or_equiv
_atom_site_adp_type
_atom_site_occupancy
C1     C     0.11190   0.43948   0.24944   0.00000  Uiso   1.00
C2     C     0.05425   0.34764   0.26065   0.00000  Uiso   1.00
C3     C     0.97541   0.30418   0.22006   0.00000  Uiso   1.00
C4     C     0.93257   0.22054   0.23890   0.00000  Uiso   1.00
C5     C     0.83775   0.08383   0.24762   0.00000  Uiso   1.00
C6     C     0.13606   0.47239   0.36311   0.00000  Uiso   1.00
C7     C     0.12602   0.53382   0.40865   0.00000  Uiso   1.00
C8     C     0.15205   0.55520   0.51373   0.00000  Uiso   1.00
C9     C     0.18430   0.61221   0.68149   0.00000  Uiso   1.00
C10    C     0.18931   0.44957   0.19696   0.00000  Uiso   1.00
C11    C     0.22406   0.49185   0.10281   0.00000  Uiso   1.00
C12    C     0.29494   0.49403   0.06801   0.00000  Uiso   1.00
C13    C     0.40987   0.51562   0.97780   0.00000  Uiso   1.00
C14    C     0.17601   0.36822   0.35506   0.00000  Uiso   1.00
C15    C     0.08908   0.30894   0.31802   0.00000  Uiso   1.00
C16    C     0.04635   0.22534   0.33692   0.00000  Uiso   1.00
C17    C     0.96746   0.18176   0.29636   0.00000  Uiso   1.00
C18    C     0.17089   0.43368   0.42048   0.00000  Uiso   1.00
C19    C     0.19695   0.45498   0.52551   0.00000  Uiso   1.00
C20    C     0.18694   0.51642   0.57120   0.00000  Uiso   1.00
C21    C     0.22414   0.41087   0.25432   0.00000  Uiso   1.00
C22    C     0.29499   0.41299   0.21967   0.00000  Uiso   1.00
C23    C     0.32983   0.45526   0.12549   0.00000  Uiso   1.00
H24    H     0.08479   0.46962   0.20479   0.00000  Uiso   1.00
H25    H     0.94848   0.33416   0.17568   0.00000  Uiso   1.00
H26    H     0.09907   0.56377   0.36424   0.00000  Uiso   1.00
H27    H     0.19709   0.52179   0.05844   0.00000  Uiso   1.00
H28    H     0.81270   0.16691   0.16874   0.00000  Uiso   1.00
H29    H     0.13026   0.65108   0.56631   0.00000  Uiso   1.00
H30    H     0.33696   0.56256   0.92149   0.00000  Uiso   1.00
H31    H     0.20313   0.33808   0.39973   0.00000  Uiso   1.00
H32    H     0.07331   0.19540   0.38131   0.00000  Uiso   1.00
H33    H     0.22390   0.42501   0.56987   0.00000  Uiso   1.00
H34    H     0.32192   0.38303   0.26408   0.00000  Uiso   1.00
H35    H     0.91402   0.05429   0.33565   0.00000  Uiso   1.00
H36    H     0.23158   0.53847   0.73322   0.00000  Uiso   1.00
H37    H     0.43828   0.44994   0.08839   0.00000  Uiso   1.00
O38    O     0.77582   0.01912   0.23660   0.00000  Uiso   1.00
O39    O     0.19245   0.65434   0.75818   0.00000  Uiso   1.00
O40    O     0.46363   0.53820   0.91219   0.00000  Uiso   1.00
N41    N     0.85437   0.15999   0.21053   0.00000  Uiso   1.00
N42    N     0.15125   0.61265   0.58224   0.00000  Uiso   1.00
N43    N     0.34451   0.52991   0.97940   0.00000  Uiso   1.00
N44    N     0.90889   0.09938   0.30034   0.00000  Uiso   1.00
N45    N     0.20577   0.55205   0.67205   0.00000  Uiso   1.00
N46    N     0.39903   0.46931   0.06921   0.00000  Uiso   1.00
C47    C     0.56052   0.67242   0.24944   0.00000  Uiso   1.00
C48    C     0.65236   0.70661   0.26065   0.00000  Uiso   1.00
C49    C     0.69582   0.67123   0.22006   0.00000  Uiso   1.00
C50    C     0.77946   0.71203   0.23890   0.00000  Uiso   1.00
C51    C     0.91617   0.75392   0.24762   0.00000  Uiso   1.00
C52    C     0.52761   0.66367   0.36311   0.00000  Uiso   1.00
C53    C     0.46618   0.59219   0.40865   0.00000  Uiso   1.00
C54    C     0.44480   0.59685   0.51373   0.00000  Uiso   1.00
C55    C     0.38779   0.57209   0.68149   0.00000  Uiso   1.00
C56    C     0.55043   0.73974   0.19696   0.00000  Uiso   1.00
C57    C     0.50815   0.73221   0.10281   0.00000  Uiso   1.00
C58    C     0.50597   0.80091   0.06801   0.00000  Uiso   1.00
C59    C     0.48438   0.89425   0.97780   0.00000  Uiso   1.00
C60    C     0.63178   0.80780   0.35506   0.00000  Uiso   1.00
C61    C     0.69106   0.78014   0.31802   0.00000  Uiso   1.00
C62    C     0.77466   0.82101   0.33692   0.00000  Uiso   1.00
C63    C     0.81824   0.78570   0.29636   0.00000  Uiso   1.00
C64    C     0.56632   0.73720   0.42048   0.00000  Uiso   1.00
C65    C     0.54502   0.74197   0.52551   0.00000  Uiso   1.00
C66    C     0.48358   0.67052   0.57120   0.00000  Uiso   1.00
C67    C     0.58913   0.81327   0.25432   0.00000  Uiso   1.00
C68    C     0.58701   0.88200   0.21967   0.00000  Uiso   1.00
C69    C     0.54474   0.87458   0.12549   0.00000  Uiso   1.00
H70    H     0.53038   0.61517   0.20479   0.00000  Uiso   1.00
H71    H     0.66584   0.61432   0.17568   0.00000  Uiso   1.00
H72    H     0.43623   0.53530   0.36424   0.00000  Uiso   1.00
H73    H     0.47821   0.67530   0.05844   0.00000  Uiso   1.00
H74    H     0.83309   0.64579   0.16874   0.00000  Uiso   1.00
H75    H     0.34892   0.47918   0.56631   0.00000  Uiso   1.00
H76    H     0.43744   0.77440   0.92149   0.00000  Uiso   1.00
H77    H     0.66192   0.86505   0.39973   0.00000  Uiso   1.00
H78    H     0.80460   0.87791   0.38131   0.00000  Uiso   1.00
H79    H     0.57499   0.79889   0.56987   0.00000  Uiso   1.00
H80    H     0.61697   0.93889   0.26408   0.00000  Uiso   1.00
H81    H     0.94571   0.85973   0.33565   0.00000  Uiso   1.00
H82    H     0.46153   0.69311   0.73322   0.00000  Uiso   1.00
H83    H     0.55006   0.98833   0.08839   0.00000  Uiso   1.00
O84    O     0.98088   0.75670   0.23660   0.00000  Uiso   1.00
O85    O     0.34566   0.53811   0.75818   0.00000  Uiso   1.00
O86    O     0.46180   0.92543   0.91219   0.00000  Uiso   1.00
N87    N     0.84001   0.69438   0.21053   0.00000  Uiso   1.00
N88    N     0.38735   0.53861   0.58224   0.00000  Uiso   1.00
N89    N     0.47009   0.81460   0.97940   0.00000  Uiso   1.00
N90    N     0.90062   0.80950   0.30034   0.00000  Uiso   1.00
N91    N     0.44795   0.65373   0.67205   0.00000  Uiso   1.00
N92    N     0.53069   0.92972   0.06921   0.00000  Uiso   1.00
C93    C     0.32758   0.88810   0.24944   0.00000  Uiso   1.00
C94    C     0.29339   0.94575   0.26065   0.00000  Uiso   1.00
C95    C     0.32877   0.02459   0.22006   0.00000  Uiso   1.00
C96    C     0.28797   0.06743   0.23890   0.00000  Uiso   1.00
C97    C     0.24608   0.16225   0.24762   0.00000  Uiso   1.00
C98    C     0.33633   0.86394   0.36311   0.00000  Uiso   1.00
C99    C     0.40781   0.87398   0.40865   0.00000  Uiso   1.00
C100   C     0.40315   0.84795   0.51373   0.00000  Uiso   1.00
C101   C     0.42791   0.81570   0.68149   0.00000  Uiso   1.00
C102   C     0.26026   0.81069   0.19696   0.00000  Uiso   1.00
C103   C     0.26779   0.77594   0.10281   0.00000  Uiso   1.00
C104   C     0.19909   0.70506   0.06801   0.00000  Uiso   1.00
C105   C     0.10575   0.59013   0.97780   0.00000  Uiso   1.00
C106   C     0.19220   0.82399   0.35506   0.00000  Uiso   1.00
C107   C     0.21986   0.91092   0.31802   0.00000  Uiso   1.00
C108   C     0.17899   0.95365   0.33692   0.00000  Uiso   1.00
C109   C     0.21430   0.03254   0.29636   0.00000  Uiso   1.00
C110   C     0.26280   0.82911   0.42048   0.00000  Uiso   1.00
C111   C     0.25803   0.80305   0.52551   0.00000  Uiso   1.00
C112   C     0.32948   0.81306   0.57120   0.00000  Uiso   1.00
C113   C     0.18673   0.77586   0.25432   0.00000  Uiso   1.00
C114   C     0.11800   0.70501   0.21967   0.00000  Uiso   1.00
C115   C     0.12542   0.67017   0.12549   0.00000  Uiso   1.00
H116   H     0.38483   0.91521   0.20479   0.00000  Uiso   1.00
H117   H     0.38568   0.05152   0.17568   0.00000  Uiso   1.00
H118   H     0.46470   0.90093   0.36424   0.00000  Uiso   1.00
H119   H     0.32470   0.80291   0.05844   0.00000  Uiso   1.00
H120   H     0.35421   0.18730   0.16874   0.00000  Uiso   1.00
H121   H     0.52082   0.86974   0.56631   0.00000  Uiso   1.00
H122   H     0.22560   0.66304   0.92149   0.00000  Uiso   1.00
H123   H     0.13495   0.79687   0.39973   0.00000  Uiso   1.00
H124   H     0.12209   0.92669   0.38131   0.00000  Uiso   1.00
H125   H     0.20111   0.77610   0.56987   0.00000  Uiso   1.00
H126   H     0.06111   0.67808   0.26408   0.00000  Uiso   1.00
H127   H     0.14027   0.08598   0.33565   0.00000  Uiso   1.00
H128   H     0.30689   0.76842   0.73322   0.00000  Uiso   1.00
H129   H     0.01167   0.56172   0.08839   0.00000  Uiso   1.00
O130   O     0.24330   0.22418   0.23660   0.00000  Uiso   1.00
O131   O     0.46189   0.80755   0.75818   0.00000  Uiso   1.00
O132   O     0.07457   0.53637   0.91219   0.00000  Uiso   1.00
N133   N     0.30562   0.14563   0.21053   0.00000  Uiso   1.00
N134   N     0.46139   0.84875   0.58224   0.00000  Uiso   1.00
N135   N     0.18540   0.65549   0.97940   0.00000  Uiso   1.00
N136   N     0.19050   0.09111   0.30034   0.00000  Uiso   1.00
N137   N     0.34627   0.79423   0.67205   0.00000  Uiso   1.00
N138   N     0.07028   0.60097   0.06921   0.00000  Uiso   1.00
C139   C     0.88810   0.56052   0.75056   0.00000  Uiso   1.00
C140   C     0.94575   0.65236   0.73935   0.00000  Uiso   1.00
C141   C     0.02459   0.69582   0.77994   0.00000  Uiso   1.00
C142   C     0.06743   0.77946   0.76110   0.00000  Uiso   1.00
C143   C     0.16225   0.91617   0.75238   0.00000  Uiso   1.00
C144   C     0.86394   0.52761   0.63689   0.00000  Uiso   1.00
C145   C     0.87398   0.46618   0.59135   0.00000  Uiso   1.00
C146   C     0.84795   0.44480   0.48627   0.00000  Uiso   1.00
C147   C     0.81570   0.38779   0.31851   0.00000  Uiso   1.00
C148   C     0.81069   0.55043   0.80304   0.00000  Uiso   1.00
C149   C     0.77594   0.50815   0.89719   0.00000  Uiso   1.00
C150   C     0.70506   0.50597   0.93199   0.00000  Uiso   1.00
C151   C     0.59013   0.48438   0.02220   0.00000  Uiso   1.00
C152   C     0.82399   0.63178   0.64494   0.00000  Uiso   1.00
C153   C     0.91092   0.69106   0.68198   0.00000  Uiso   1.00
C154   C     0.95365   0.77466   0.66308   0.00000  Uiso   1.00
C155   C     0.03254   0.81824   0.70364   0.00000  Uiso   1.00
C156   C     0.82911   0.56632   0.57952   0.00000  Uiso   1.00
C157   C     0.80305   0.54502   0.47449   0.00000  Uiso   1.00
C158   C     0.81306   0.48358   0.42880   0.00000  Uiso   1.00
C159   C     0.77586   0.58913   0.74568   0.00000  Uiso   1.00
C160   C     0.70501   0.58701   0.78033   0.00000  Uiso   1.00
C161   C     0.67017   0.54474   0.87451   0.00000  Uiso   1.00
H162   H     0.91521   0.53038   0.79521   0.00000  Uiso   1.00
H163   H     0.05152   0.66584   0.82432   0.00000  Uiso   1.00
H164   H     0.90093   0.43623   0.63576   0.00000  Uiso   1.00
H165   H     0.80291   0.47821   0.94156   0.00000  Uiso   1.00
H166   H     0.18730   0.83309   0.83126   0.00000  Uiso   1.00
H167   H     0.86974   0.34892   0.43369   0.00000  Uiso   1.00
H168   H     0.66304   0.43744   0.07851   0.00000  Uiso   1.00
H169   H     0.79687   0.66192   0.60027   0.00000  Uiso   1.00
H170   H     0.92669   0.80460   0.61869   0.00000  Uiso   1.00
H171   H     0.77610   0.57499   0.43013   0.00000  Uiso   1.00
H172   H     0.67808   0.61697   0.73592   0.00000  Uiso   1.00
H173   H     0.08598   0.94571   0.66435   0.00000  Uiso   1.00
H174   H     0.76842   0.46153   0.26678   0.00000  Uiso   1.00
H175   H     0.56172   0.55006   0.91161   0.00000  Uiso   1.00
O176   O     0.22418   0.98088   0.76340   0.00000  Uiso   1.00
O177   O     0.80755   0.34566   0.24182   0.00000  Uiso   1.00
O178   O     0.53637   0.46180   0.08781   0.00000  Uiso   1.00
N179   N     0.14563   0.84001   0.78947   0.00000  Uiso   1.00
N180   N     0.84875   0.38735   0.41776   0.00000  Uiso   1.00
N181   N     0.65549   0.47009   0.02060   0.00000  Uiso   1.00
N182   N     0.09111   0.90062   0.69966   0.00000  Uiso   1.00
N183   N     0.79423   0.44795   0.32795   0.00000  Uiso   1.00
N184   N     0.60097   0.53069   0.93079   0.00000  Uiso   1.00
C185   C     0.43948   0.32758   0.75056   0.00000  Uiso   1.00
C186   C     0.34764   0.29339   0.73935   0.00000  Uiso   1.00
C187   C     0.30418   0.32877   0.77994   0.00000  Uiso   1.00
C188   C     0.22054   0.28797   0.76110   0.00000  Uiso   1.00
C189   C     0.08383   0.24608   0.75238   0.00000  Uiso   1.00
C190   C     0.47239   0.33633   0.63689   0.00000  Uiso   1.00
C191   C     0.53382   0.40781   0.59135   0.00000  Uiso   1.00
C192   C     0.55520   0.40315   0.48627   0.00000  Uiso   1.00
C193   C     0.61221   0.42791   0.31851   0.00000  Uiso   1.00
C194   C     0.44957   0.26026   0.80304   0.00000  Uiso   1.00
C195   C     0.49185   0.26779   0.89719   0.00000  Uiso   1.00
C196   C     0.49403   0.19909   0.93199   0.00000  Uiso   1.00
C197   C     0.51562   0.10575   0.02220   0.00000  Uiso   1.00
C198   C     0.36822   0.19220   0.64494   0.00000  Uiso   1.00
C199   C     0.30894   0.21986   0.68198   0.00000  Uiso   1.00
C200   C     0.22534   0.17899   0.66308   0.00000  Uiso   1.00
C201   C     0.18176   0.21430   0.70364   0.00000  Uiso   1.00
C202   C     0.43368   0.26280   0.57952   0.00000  Uiso   1.00
C203   C     0.45498   0.25803   0.47449   0.00000  Uiso   1.00
C204   C     0.51642   0.32948   0.42880   0.00000  Uiso   1.00
C205   C     0.41087   0.18673   0.74568   0.00000  Uiso   1.00
C206   C     0.41299   0.11800   0.78033   0.00000  Uiso   1.00
C207   C     0.45526   0.12542   0.87451   0.00000  Uiso   1.00
H208   H     0.46962   0.38483   0.79521   0.00000  Uiso   1.00
H209   H     0.33416   0.38568   0.82432   0.00000  Uiso   1.00
H210   H     0.56377   0.46470   0.63576   0.00000  Uiso   1.00
H211   H     0.52179   0.32470   0.94156   0.00000  Uiso   1.00
H212   H     0.16691   0.35421   0.83126   0.00000  Uiso   1.00
H213   H     0.65108   0.52082   0.43369   0.00000  Uiso   1.00
H214   H     0.56256   0.22560   0.07851   0.00000  Uiso   1.00
H215   H     0.33808   0.13495   0.60027   0.00000  Uiso   1.00
H216   H     0.19540   0.12209   0.61869   0.00000  Uiso   1.00
H217   H     0.42501   0.20111   0.43013   0.00000  Uiso   1.00
H218   H     0.38303   0.06111   0.73592   0.00000  Uiso   1.00
H219   H     0.05429   0.14027   0.66435   0.00000  Uiso   1.00
H220   H     0.53847   0.30689   0.26678   0.00000  Uiso   1.00
H221   H     0.44994   0.01167   0.91161   0.00000  Uiso   1.00
O222   O     0.01912   0.24330   0.76340   0.00000  Uiso   1.00
O223   O     0.65434   0.46189   0.24182   0.00000  Uiso   1.00
O224   O     0.53820   0.07457   0.08781   0.00000  Uiso   1.00
N225   N     0.15999   0.30562   0.78947   0.00000  Uiso   1.00
N226   N     0.61265   0.46139   0.41776   0.00000  Uiso   1.00
N227   N     0.52991   0.18540   0.02060   0.00000  Uiso   1.00
N228   N     0.09938   0.19050   0.69966   0.00000  Uiso   1.00
N229   N     0.55205   0.34627   0.32795   0.00000  Uiso   1.00
N230   N     0.46931   0.07028   0.93079   0.00000  Uiso   1.00
C231   C     0.67242   0.11190   0.75056   0.00000  Uiso   1.00
C232   C     0.70661   0.05425   0.73935   0.00000  Uiso   1.00
C233   C     0.67123   0.97541   0.77994   0.00000  Uiso   1.00
C234   C     0.71203   0.93257   0.76110   0.00000  Uiso   1.00
C235   C     0.75392   0.83775   0.75238   0.00000  Uiso   1.00
C236   C     0.66367   0.13606   0.63689   0.00000  Uiso   1.00
C237   C     0.59219   0.12602   0.59135   0.00000  Uiso   1.00
C238   C     0.59685   0.15205   0.48627   0.00000  Uiso   1.00
C239   C     0.57209   0.18430   0.31851   0.00000  Uiso   1.00
C240   C     0.73974   0.18931   0.80304   0.00000  Uiso   1.00
C241   C     0.73221   0.22406   0.89719   0.00000  Uiso   1.00
C242   C     0.80091   0.29494   0.93199   0.00000  Uiso   1.00
C243   C     0.89425   0.40987   0.02220   0.00000  Uiso   1.00
C244   C     0.80780   0.17601   0.64494   0.00000  Uiso   1.00
C245   C     0.78014   0.08908   0.68198   0.00000  Uiso   1.00
C246   C     0.82101   0.04635   0.66308   0.00000  Uiso   1.00
C247   C     0.78570   0.96746   0.70364   0.00000  Uiso   1.00
C248   C     0.73720   0.17089   0.57952   0.00000  Uiso   1.00
C249   C     0.74197   0.19695   0.47449   0.00000  Uiso   1.00
C250   C     0.67052   0.18694   0.42880   0.00000  Uiso   1.00
C251   C     0.81327   0.22414   0.74568   0.00000  Uiso   1.00
C252   C     0.88200   0.29499   0.78033   0.00000  Uiso   1.00
C253   C     0.87458   0.32983   0.87451   0.00000  Uiso   1.00
H254   H     0.61517   0.08479   0.79521   0.00000  Uiso   1.00
H255   H     0.61432   0.94848   0.82432   0.00000  Uiso   1.00
H256   H     0.53530   0.09907   0.63576   0.00000  Uiso   1.00
H257   H     0.67530   0.19709   0.94156   0.00000  Uiso   1.00
H258   H     0.64579   0.81270   0.83126   0.00000  Uiso   1.00
H259   H     0.47918   0.13026   0.43369   0.00000  Uiso   1.00
H260   H     0.77440   0.33696   0.07851   0.00000  Uiso   1.00
H261   H     0.86505   0.20313   0.60027   0.00000  Uiso   1.00
H262   H     0.87791   0.07331   0.61869   0.00000  Uiso   1.00
H263   H     0.79889   0.22390   0.43013   0.00000  Uiso   1.00
H264   H     0.93889   0.32192   0.73592   0.00000  Uiso   1.00
H265   H     0.85973   0.91402   0.66435   0.00000  Uiso   1.00
H266   H     0.69311   0.23158   0.26678   0.00000  Uiso   1.00
H267   H     0.98833   0.43828   0.91161   0.00000  Uiso   1.00
O268   O     0.75670   0.77582   0.76340   0.00000  Uiso   1.00
O269   O     0.53811   0.19245   0.24182   0.00000  Uiso   1.00
O270   O     0.92543   0.46363   0.08781   0.00000  Uiso   1.00
N271   N     0.69438   0.85437   0.78947   0.00000  Uiso   1.00
N272   N     0.53861   0.15125   0.41776   0.00000  Uiso   1.00
N273   N     0.81460   0.34451   0.02060   0.00000  Uiso   1.00
N274   N     0.80950   0.90889   0.69966   0.00000  Uiso   1.00
N275   N     0.65373   0.20577   0.32795   0.00000  Uiso   1.00
N276   N     0.92972   0.39903   0.93079   0.00000  Uiso   1.00
