data_job_02317
_audit_creation_date              2018-12-19
_audit_creation_method            'Materials Studio'
_symmetry_space_group_name_H-M    'P1'
_symmetry_Int_Tables_number       1
_symmetry_cell_setting            triclinic
loop_
_symmetry_equiv_pos_as_xyz
  x,y,z
_cell_length_a                    9.6886
_cell_length_b                    13.6191
_cell_length_c                    23.2442
_cell_angle_alpha                 90.0000
_cell_angle_beta                  101.9920
_cell_angle_gamma                 90.0000
loop_
_atom_site_label
_atom_site_type_symbol
_atom_site_fract_x
_atom_site_fract_y
_atom_site_fract_z
_atom_site_U_iso_or_equiv
_atom_site_adp_type
_atom_site_occupancy
C1     C     0.07583   0.10694   0.75424   0.00000  Uiso   1.00
C2     C     0.18007   0.02236   0.75680   0.00000  Uiso   1.00
C3     C     0.32282   0.03148   0.75698   0.00000  Uiso   1.00
C4     C     0.40024   0.94523   0.75950   0.00000  Uiso   1.00
C5     C     0.57170   0.82789   0.76310   0.00000  Uiso   1.00
C6     C     0.95807   0.08721   0.70085   0.00000  Uiso   1.00
C7     C     0.91415   0.15088   0.65400   0.00000  Uiso   1.00
C8     C     0.80468   0.11923   0.60943   0.00000  Uiso   1.00
C9     C     0.63140   0.10262   0.52619   0.00000  Uiso   1.00
C10    C     0.00961   0.09515   0.80789   0.00000  Uiso   1.00
C11    C     0.00900   0.16550   0.85104   0.00000  Uiso   1.00
C12    C     0.94289   0.14054   0.89657   0.00000  Uiso   1.00
C13    C     0.84965   0.13625   0.97954   0.00000  Uiso   1.00
C14    C     0.95947   0.93754   0.75838   0.00000  Uiso   1.00
C15    C     0.11686   0.93035   0.75905   0.00000  Uiso   1.00
C16    C     0.19409   0.84406   0.76156   0.00000  Uiso   1.00
C17    C     0.33693   0.85305   0.76175   0.00000  Uiso   1.00
C18    C     0.89487   0.99521   0.70310   0.00000  Uiso   1.00
C19    C     0.78542   0.96346   0.65858   0.00000  Uiso   1.00
C20    C     0.74136   0.02706   0.61168   0.00000  Uiso   1.00
C21    C     0.94641   0.00314   0.81014   0.00000  Uiso   1.00
C22    C     0.88028   0.97807   0.85562   0.00000  Uiso   1.00
C23    C     0.87958   0.04836   0.89882   0.00000  Uiso   1.00
H24    H     0.12503   0.17857   0.75248   0.00000  Uiso   1.00
H25    H     0.37169   0.10270   0.75524   0.00000  Uiso   1.00
H26    H     0.96307   0.22208   0.65228   0.00000  Uiso   1.00
H27    H     0.05792   0.23669   0.84928   0.00000  Uiso   1.00
H28    H     0.61728   0.97800   0.75926   0.00000  Uiso   1.00
H29    H     0.75566   0.22974   0.54217   0.00000  Uiso   1.00
H30    H     0.95565   0.26055   0.95759   0.00000  Uiso   1.00
H31    H     0.91027   0.86590   0.76013   0.00000  Uiso   1.00
H32    H     0.14515   0.77287   0.76330   0.00000  Uiso   1.00
H33    H     0.73654   0.89226   0.66034   0.00000  Uiso   1.00
H34    H     0.83138   0.90687   0.85734   0.00000  Uiso   1.00
H35    H     0.43341   0.71030   0.76580   0.00000  Uiso   1.00
H36    H     0.57179   0.96204   0.54872   0.00000  Uiso   1.00
H37    H     0.77179   0.99285   0.96414   0.00000  Uiso   1.00
O38    O     0.68373   0.78859   0.76446   0.00000  Uiso   1.00
O39    O     0.55330   0.11887   0.47966   0.00000  Uiso   1.00
O40    O     0.81570   0.15930   0.02468   0.00000  Uiso   1.00
N41    N     0.54178   0.92776   0.76037   0.00000  Uiso   1.00
N42    N     0.73623   0.16312   0.55741   0.00000  Uiso   1.00
N43    N     0.92318   0.19194   0.94578   0.00000  Uiso   1.00
N44    N     0.44284   0.78372   0.76390   0.00000  Uiso   1.00
N45    N     0.63729   0.01907   0.56093   0.00000  Uiso   1.00
N46    N     0.82424   0.04789   0.94930   0.00000  Uiso   1.00
C47    C     0.92417   0.60694   0.74576   0.00000  Uiso   1.00
C48    C     0.81993   0.52236   0.74320   0.00000  Uiso   1.00
C49    C     0.67718   0.53148   0.74302   0.00000  Uiso   1.00
C50    C     0.59976   0.44523   0.74050   0.00000  Uiso   1.00
C51    C     0.42830   0.32789   0.73690   0.00000  Uiso   1.00
C52    C     0.04193   0.58721   0.79915   0.00000  Uiso   1.00
C53    C     0.08585   0.65088   0.84600   0.00000  Uiso   1.00
C54    C     0.19532   0.61923   0.89057   0.00000  Uiso   1.00
C55    C     0.36860   0.60262   0.97381   0.00000  Uiso   1.00
C56    C     0.99039   0.59515   0.69211   0.00000  Uiso   1.00
C57    C     0.99100   0.66550   0.64896   0.00000  Uiso   1.00
C58    C     0.05711   0.64054   0.60343   0.00000  Uiso   1.00
C59    C     0.15035   0.63625   0.52046   0.00000  Uiso   1.00
C60    C     0.04053   0.43754   0.74162   0.00000  Uiso   1.00
C61    C     0.88314   0.43035   0.74095   0.00000  Uiso   1.00
C62    C     0.80591   0.34406   0.73844   0.00000  Uiso   1.00
C63    C     0.66307   0.35305   0.73825   0.00000  Uiso   1.00
C64    C     0.10513   0.49521   0.79690   0.00000  Uiso   1.00
C65    C     0.21458   0.46346   0.84142   0.00000  Uiso   1.00
C66    C     0.25864   0.52706   0.88832   0.00000  Uiso   1.00
C67    C     0.05359   0.50314   0.68986   0.00000  Uiso   1.00
C68    C     0.11972   0.47807   0.64438   0.00000  Uiso   1.00
C69    C     0.12042   0.54836   0.60118   0.00000  Uiso   1.00
H70    H     0.87497   0.67857   0.74752   0.00000  Uiso   1.00
H71    H     0.62831   0.60270   0.74476   0.00000  Uiso   1.00
H72    H     0.03693   0.72208   0.84772   0.00000  Uiso   1.00
H73    H     0.94208   0.73669   0.65072   0.00000  Uiso   1.00
H74    H     0.38272   0.47800   0.74074   0.00000  Uiso   1.00
H75    H     0.24434   0.72974   0.95783   0.00000  Uiso   1.00
H76    H     0.04435   0.76055   0.54241   0.00000  Uiso   1.00
H77    H     0.08973   0.36590   0.73987   0.00000  Uiso   1.00
H78    H     0.85485   0.27287   0.73670   0.00000  Uiso   1.00
H79    H     0.26346   0.39226   0.83966   0.00000  Uiso   1.00
H80    H     0.16862   0.40687   0.64266   0.00000  Uiso   1.00
H81    H     0.56659   0.21030   0.73420   0.00000  Uiso   1.00
H82    H     0.42821   0.46204   0.95128   0.00000  Uiso   1.00
H83    H     0.22821   0.49285   0.53586   0.00000  Uiso   1.00
O84    O     0.31627   0.28859   0.73554   0.00000  Uiso   1.00
O85    O     0.44670   0.61887   0.02034   0.00000  Uiso   1.00
O86    O     0.18430   0.65930   0.47532   0.00000  Uiso   1.00
N87    N     0.45822   0.42776   0.73963   0.00000  Uiso   1.00
N88    N     0.26377   0.66312   0.94259   0.00000  Uiso   1.00
N89    N     0.07682   0.69194   0.55422   0.00000  Uiso   1.00
N90    N     0.55716   0.28372   0.73610   0.00000  Uiso   1.00
N91    N     0.36271   0.51907   0.93907   0.00000  Uiso   1.00
N92    N     0.17576   0.54789   0.55070   0.00000  Uiso   1.00
C93    C     0.92417   0.89306   0.24576   0.00000  Uiso   1.00
C94    C     0.81993   0.97764   0.24320   0.00000  Uiso   1.00
C95    C     0.67718   0.96852   0.24302   0.00000  Uiso   1.00
C96    C     0.59976   0.05477   0.24050   0.00000  Uiso   1.00
C97    C     0.42830   0.17211   0.23690   0.00000  Uiso   1.00
C98    C     0.04193   0.91279   0.29915   0.00000  Uiso   1.00
C99    C     0.08585   0.84912   0.34600   0.00000  Uiso   1.00
C100   C     0.19532   0.88077   0.39057   0.00000  Uiso   1.00
C101   C     0.36860   0.89738   0.47381   0.00000  Uiso   1.00
C102   C     0.99039   0.90485   0.19211   0.00000  Uiso   1.00
C103   C     0.99100   0.83450   0.14896   0.00000  Uiso   1.00
C104   C     0.05711   0.85946   0.10343   0.00000  Uiso   1.00
C105   C     0.15035   0.86375   0.02046   0.00000  Uiso   1.00
C106   C     0.04053   0.06246   0.24162   0.00000  Uiso   1.00
C107   C     0.88314   0.06965   0.24095   0.00000  Uiso   1.00
C108   C     0.80591   0.15594   0.23844   0.00000  Uiso   1.00
C109   C     0.66307   0.14695   0.23825   0.00000  Uiso   1.00
C110   C     0.10513   0.00479   0.29690   0.00000  Uiso   1.00
C111   C     0.21458   0.03654   0.34142   0.00000  Uiso   1.00
C112   C     0.25864   0.97294   0.38832   0.00000  Uiso   1.00
C113   C     0.05359   0.99686   0.18986   0.00000  Uiso   1.00
C114   C     0.11972   0.02193   0.14438   0.00000  Uiso   1.00
C115   C     0.12042   0.95164   0.10118   0.00000  Uiso   1.00
H116   H     0.87497   0.82143   0.24752   0.00000  Uiso   1.00
H117   H     0.62831   0.89730   0.24476   0.00000  Uiso   1.00
H118   H     0.03693   0.77792   0.34772   0.00000  Uiso   1.00
H119   H     0.94208   0.76331   0.15072   0.00000  Uiso   1.00
H120   H     0.38272   0.02200   0.24074   0.00000  Uiso   1.00
H121   H     0.24434   0.77026   0.45783   0.00000  Uiso   1.00
H122   H     0.04435   0.73945   0.04241   0.00000  Uiso   1.00
H123   H     0.08973   0.13410   0.23987   0.00000  Uiso   1.00
H124   H     0.85485   0.22713   0.23670   0.00000  Uiso   1.00
H125   H     0.26346   0.10774   0.33966   0.00000  Uiso   1.00
H126   H     0.16862   0.09313   0.14266   0.00000  Uiso   1.00
H127   H     0.56659   0.28970   0.23420   0.00000  Uiso   1.00
H128   H     0.42821   0.03796   0.45128   0.00000  Uiso   1.00
H129   H     0.22821   0.00715   0.03586   0.00000  Uiso   1.00
O130   O     0.31627   0.21141   0.23554   0.00000  Uiso   1.00
O131   O     0.44670   0.88113   0.52034   0.00000  Uiso   1.00
O132   O     0.18430   0.84070   0.97532   0.00000  Uiso   1.00
N133   N     0.45822   0.07224   0.23963   0.00000  Uiso   1.00
N134   N     0.26377   0.83688   0.44259   0.00000  Uiso   1.00
N135   N     0.07682   0.80806   0.05422   0.00000  Uiso   1.00
N136   N     0.55716   0.21628   0.23610   0.00000  Uiso   1.00
N137   N     0.36271   0.98093   0.43907   0.00000  Uiso   1.00
N138   N     0.17576   0.95211   0.05070   0.00000  Uiso   1.00
C139   C     0.07583   0.39306   0.25424   0.00000  Uiso   1.00
C140   C     0.18007   0.47764   0.25680   0.00000  Uiso   1.00
C141   C     0.32282   0.46852   0.25698   0.00000  Uiso   1.00
C142   C     0.40024   0.55477   0.25950   0.00000  Uiso   1.00
C143   C     0.57170   0.67211   0.26310   0.00000  Uiso   1.00
C144   C     0.95807   0.41279   0.20085   0.00000  Uiso   1.00
C145   C     0.91415   0.34912   0.15400   0.00000  Uiso   1.00
C146   C     0.80468   0.38077   0.10943   0.00000  Uiso   1.00
C147   C     0.63140   0.39738   0.02619   0.00000  Uiso   1.00
C148   C     0.00961   0.40485   0.30789   0.00000  Uiso   1.00
C149   C     0.00900   0.33450   0.35104   0.00000  Uiso   1.00
C150   C     0.94289   0.35946   0.39657   0.00000  Uiso   1.00
C151   C     0.84965   0.36375   0.47954   0.00000  Uiso   1.00
C152   C     0.95947   0.56246   0.25838   0.00000  Uiso   1.00
C153   C     0.11686   0.56965   0.25905   0.00000  Uiso   1.00
C154   C     0.19409   0.65594   0.26156   0.00000  Uiso   1.00
C155   C     0.33693   0.64695   0.26175   0.00000  Uiso   1.00
C156   C     0.89487   0.50479   0.20310   0.00000  Uiso   1.00
C157   C     0.78542   0.53654   0.15858   0.00000  Uiso   1.00
C158   C     0.74136   0.47294   0.11168   0.00000  Uiso   1.00
C159   C     0.94641   0.49686   0.31014   0.00000  Uiso   1.00
C160   C     0.88028   0.52193   0.35562   0.00000  Uiso   1.00
C161   C     0.87958   0.45164   0.39882   0.00000  Uiso   1.00
H162   H     0.12503   0.32143   0.25248   0.00000  Uiso   1.00
H163   H     0.37169   0.39730   0.25524   0.00000  Uiso   1.00
H164   H     0.96307   0.27792   0.15228   0.00000  Uiso   1.00
H165   H     0.05792   0.26331   0.34928   0.00000  Uiso   1.00
H166   H     0.61728   0.52200   0.25926   0.00000  Uiso   1.00
H167   H     0.75566   0.27026   0.04217   0.00000  Uiso   1.00
H168   H     0.95565   0.23945   0.45759   0.00000  Uiso   1.00
H169   H     0.91027   0.63410   0.26013   0.00000  Uiso   1.00
H170   H     0.14515   0.72713   0.26330   0.00000  Uiso   1.00
H171   H     0.73654   0.60774   0.16034   0.00000  Uiso   1.00
H172   H     0.83138   0.59313   0.35734   0.00000  Uiso   1.00
H173   H     0.43341   0.78970   0.26580   0.00000  Uiso   1.00
H174   H     0.57179   0.53796   0.04872   0.00000  Uiso   1.00
H175   H     0.77179   0.50715   0.46414   0.00000  Uiso   1.00
O176   O     0.68373   0.71141   0.26446   0.00000  Uiso   1.00
O177   O     0.55330   0.38113   0.97966   0.00000  Uiso   1.00
O178   O     0.81570   0.34070   0.52468   0.00000  Uiso   1.00
N179   N     0.54178   0.57224   0.26037   0.00000  Uiso   1.00
N180   N     0.73623   0.33688   0.05741   0.00000  Uiso   1.00
N181   N     0.92318   0.30806   0.44578   0.00000  Uiso   1.00
N182   N     0.44284   0.71628   0.26390   0.00000  Uiso   1.00
N183   N     0.63729   0.48093   0.06093   0.00000  Uiso   1.00
N184   N     0.82424   0.45211   0.44930   0.00000  Uiso   1.00
