data_job_00303
_audit_creation_date              2018-12-19
_audit_creation_method            'Materials Studio'
_symmetry_space_group_name_H-M    'P1'
_symmetry_Int_Tables_number       1
_symmetry_cell_setting            triclinic
loop_
_symmetry_equiv_pos_as_xyz
  x,y,z
_cell_length_a                    17.5828
_cell_length_b                    11.4326
_cell_length_c                    16.6399
_cell_angle_alpha                 90.0000
_cell_angle_beta                  136.7404
_cell_angle_gamma                 90.0000
loop_
_atom_site_label
_atom_site_type_symbol
_atom_site_fract_x
_atom_site_fract_y
_atom_site_fract_z
_atom_site_U_iso_or_equiv
_atom_site_adp_type
_atom_site_occupancy
C1     C     0.73096   0.64855   0.28734   0.00000  Uiso   1.00
C2     C     0.84533   0.70025   0.39201   0.00000  Uiso   1.00
C3     C     0.91909   0.66202   0.50719   0.00000  Uiso   1.00
C4     C     0.01956   0.72088   0.59021   0.00000  Uiso   1.00
C5     C     0.19322   0.78695   0.75748   0.00000  Uiso   1.00
C6     C     0.64904   0.74961   0.23193   0.00000  Uiso   1.00
C7     C     0.55775   0.75285   0.21250   0.00000  Uiso   1.00
C8     C     0.49298   0.85325   0.16075   0.00000  Uiso   1.00
C9     C     0.36184   0.99590   0.07941   0.00000  Uiso   1.00
C10    C     0.73090   0.61403   0.19878   0.00000  Uiso   1.00
C11    C     0.70842   0.50329   0.15145   0.00000  Uiso   1.00
C12    C     0.71255   0.48955   0.07177   0.00000  Uiso   1.00
C13    C     0.70852   0.42170   0.93896   0.00000  Uiso   1.00
C14    C     0.77822   0.82108   0.22998   0.00000  Uiso   1.00
C15    C     0.87099   0.79397   0.36085   0.00000  Uiso   1.00
C16    C     0.97138   0.85290   0.44372   0.00000  Uiso   1.00
C17    C     0.04529   0.81476   0.55900   0.00000  Uiso   1.00
C18    C     0.67470   0.84332   0.20077   0.00000  Uiso   1.00
C19    C     0.61005   0.94373   0.14903   0.00000  Uiso   1.00
C20    C     0.51870   0.94713   0.12954   0.00000  Uiso   1.00
C21    C     0.75657   0.70774   0.16762   0.00000  Uiso   1.00
C22    C     0.76072   0.69417   0.08799   0.00000  Uiso   1.00
C23    C     0.73826   0.58343   0.04055   0.00000  Uiso   1.00
H24    H     0.71097   0.57560   0.31160   0.00000  Uiso   1.00
H25    H     0.89919   0.58950   0.53127   0.00000  Uiso   1.00
H26    H     0.53790   0.68031   0.23661   0.00000  Uiso   1.00
H27    H     0.68856   0.43079   0.17558   0.00000  Uiso   1.00
H28    H     0.11917   0.64627   0.76108   0.00000  Uiso   1.00
H29    H     0.35736   0.83774   0.13974   0.00000  Uiso   1.00
H30    H     0.67504   0.31157   0.01104   0.00000  Uiso   1.00
H31    H     0.79821   0.89404   0.20572   0.00000  Uiso   1.00
H32    H     0.99123   0.92542   0.41958   0.00000  Uiso   1.00
H33    H     0.62993   0.01623   0.12493   0.00000  Uiso   1.00
H34    H     0.78059   0.76671   0.06390   0.00000  Uiso   1.00
H35    H     0.19387   0.91892   0.67043   0.00000  Uiso   1.00
H36    H     0.43205   0.11038   0.04909   0.00000  Uiso   1.00
H37    H     0.74974   0.58422   0.92040   0.00000  Uiso   1.00
O38    O     0.28191   0.79751   0.85836   0.00000  Uiso   1.00
O39    O     0.28242   0.04870   0.04317   0.00000  Uiso   1.00
O40    O     0.69922   0.35838   0.87433   0.00000  Uiso   1.00
N41    N     0.11027   0.70611   0.71039   0.00000  Uiso   1.00
N42    N     0.39803   0.88513   0.12950   0.00000  Uiso   1.00
N43    N     0.69501   0.39322   0.00915   0.00000  Uiso   1.00
N44    N     0.15047   0.85282   0.66162   0.00000  Uiso   1.00
N45    N     0.43823   0.03184   0.08072   0.00000  Uiso   1.00
N46    N     0.73520   0.53993   0.96038   0.00000  Uiso   1.00
C47    C     0.26904   0.14855   0.21266   0.00000  Uiso   1.00
C48    C     0.15467   0.20025   0.10799   0.00000  Uiso   1.00
C49    C     0.08091   0.16202   0.99281   0.00000  Uiso   1.00
C50    C     0.98044   0.22088   0.90979   0.00000  Uiso   1.00
C51    C     0.80678   0.28695   0.74252   0.00000  Uiso   1.00
C52    C     0.35096   0.24961   0.26807   0.00000  Uiso   1.00
C53    C     0.44225   0.25285   0.28750   0.00000  Uiso   1.00
C54    C     0.50702   0.35325   0.33925   0.00000  Uiso   1.00
C55    C     0.63816   0.49590   0.42059   0.00000  Uiso   1.00
C56    C     0.26910   0.11403   0.30122   0.00000  Uiso   1.00
C57    C     0.29158   0.00329   0.34855   0.00000  Uiso   1.00
C58    C     0.28745   0.98955   0.42823   0.00000  Uiso   1.00
C59    C     0.29148   0.92170   0.56104   0.00000  Uiso   1.00
C60    C     0.22178   0.32108   0.27002   0.00000  Uiso   1.00
C61    C     0.12901   0.29397   0.13915   0.00000  Uiso   1.00
C62    C     0.02862   0.35290   0.05628   0.00000  Uiso   1.00
C63    C     0.95471   0.31476   0.94100   0.00000  Uiso   1.00
C64    C     0.32530   0.34332   0.29923   0.00000  Uiso   1.00
C65    C     0.38995   0.44373   0.35097   0.00000  Uiso   1.00
C66    C     0.48130   0.44713   0.37046   0.00000  Uiso   1.00
C67    C     0.24343   0.20774   0.33238   0.00000  Uiso   1.00
C68    C     0.23928   0.19417   0.41201   0.00000  Uiso   1.00
C69    C     0.26174   0.08343   0.45945   0.00000  Uiso   1.00
H70    H     0.28903   0.07560   0.18840   0.00000  Uiso   1.00
H71    H     0.10081   0.08950   0.96873   0.00000  Uiso   1.00
H72    H     0.46210   0.18031   0.26339   0.00000  Uiso   1.00
H73    H     0.31144   0.93079   0.32442   0.00000  Uiso   1.00
H74    H     0.88083   0.14627   0.73892   0.00000  Uiso   1.00
H75    H     0.64264   0.33774   0.36026   0.00000  Uiso   1.00
H76    H     0.32496   0.81157   0.48896   0.00000  Uiso   1.00
H77    H     0.20179   0.39404   0.29428   0.00000  Uiso   1.00
H78    H     0.00877   0.42542   0.08042   0.00000  Uiso   1.00
H79    H     0.37007   0.51623   0.37507   0.00000  Uiso   1.00
H80    H     0.21941   0.26671   0.43610   0.00000  Uiso   1.00
H81    H     0.80613   0.41892   0.82957   0.00000  Uiso   1.00
H82    H     0.56795   0.61038   0.45091   0.00000  Uiso   1.00
H83    H     0.25026   0.08422   0.57960   0.00000  Uiso   1.00
O84    O     0.71809   0.29751   0.64164   0.00000  Uiso   1.00
O85    O     0.71758   0.54870   0.45683   0.00000  Uiso   1.00
O86    O     0.30078   0.85838   0.62567   0.00000  Uiso   1.00
N87    N     0.88973   0.20611   0.78961   0.00000  Uiso   1.00
N88    N     0.60197   0.38513   0.37050   0.00000  Uiso   1.00
N89    N     0.30499   0.89322   0.49085   0.00000  Uiso   1.00
N90    N     0.84953   0.35282   0.83838   0.00000  Uiso   1.00
N91    N     0.56177   0.53184   0.41928   0.00000  Uiso   1.00
N92    N     0.26480   0.03993   0.53962   0.00000  Uiso   1.00
C93    C     0.26904   0.35145   0.71266   0.00000  Uiso   1.00
C94    C     0.15467   0.29975   0.60799   0.00000  Uiso   1.00
C95    C     0.08091   0.33798   0.49281   0.00000  Uiso   1.00
C96    C     0.98044   0.27912   0.40979   0.00000  Uiso   1.00
C97    C     0.80678   0.21305   0.24252   0.00000  Uiso   1.00
C98    C     0.35096   0.25039   0.76807   0.00000  Uiso   1.00
C99    C     0.44225   0.24715   0.78750   0.00000  Uiso   1.00
C100   C     0.50702   0.14675   0.83925   0.00000  Uiso   1.00
C101   C     0.63816   0.00410   0.92059   0.00000  Uiso   1.00
C102   C     0.26910   0.38597   0.80122   0.00000  Uiso   1.00
C103   C     0.29158   0.49671   0.84855   0.00000  Uiso   1.00
C104   C     0.28745   0.51045   0.92823   0.00000  Uiso   1.00
C105   C     0.29148   0.57830   0.06104   0.00000  Uiso   1.00
C106   C     0.22178   0.17892   0.77002   0.00000  Uiso   1.00
C107   C     0.12901   0.20603   0.63915   0.00000  Uiso   1.00
C108   C     0.02862   0.14710   0.55628   0.00000  Uiso   1.00
C109   C     0.95471   0.18524   0.44100   0.00000  Uiso   1.00
C110   C     0.32530   0.15668   0.79923   0.00000  Uiso   1.00
C111   C     0.38995   0.05627   0.85097   0.00000  Uiso   1.00
C112   C     0.48130   0.05287   0.87046   0.00000  Uiso   1.00
C113   C     0.24343   0.29226   0.83238   0.00000  Uiso   1.00
C114   C     0.23928   0.30583   0.91201   0.00000  Uiso   1.00
C115   C     0.26174   0.41657   0.95945   0.00000  Uiso   1.00
H116   H     0.28903   0.42440   0.68840   0.00000  Uiso   1.00
H117   H     0.10081   0.41050   0.46873   0.00000  Uiso   1.00
H118   H     0.46210   0.31969   0.76339   0.00000  Uiso   1.00
H119   H     0.31144   0.56921   0.82442   0.00000  Uiso   1.00
H120   H     0.88083   0.35373   0.23892   0.00000  Uiso   1.00
H121   H     0.64264   0.16226   0.86026   0.00000  Uiso   1.00
H122   H     0.32496   0.68843   0.98896   0.00000  Uiso   1.00
H123   H     0.20179   0.10596   0.79428   0.00000  Uiso   1.00
H124   H     0.00877   0.07458   0.58042   0.00000  Uiso   1.00
H125   H     0.37007   0.98377   0.87507   0.00000  Uiso   1.00
H126   H     0.21941   0.23329   0.93610   0.00000  Uiso   1.00
H127   H     0.80613   0.08108   0.32957   0.00000  Uiso   1.00
H128   H     0.56795   0.88962   0.95091   0.00000  Uiso   1.00
H129   H     0.25026   0.41578   0.07960   0.00000  Uiso   1.00
O130   O     0.71809   0.20249   0.14164   0.00000  Uiso   1.00
O131   O     0.71758   0.95130   0.95683   0.00000  Uiso   1.00
O132   O     0.30078   0.64162   0.12567   0.00000  Uiso   1.00
N133   N     0.88973   0.29389   0.28961   0.00000  Uiso   1.00
N134   N     0.60197   0.11487   0.87050   0.00000  Uiso   1.00
N135   N     0.30499   0.60678   0.99085   0.00000  Uiso   1.00
N136   N     0.84953   0.14718   0.33838   0.00000  Uiso   1.00
N137   N     0.56177   0.96816   0.91928   0.00000  Uiso   1.00
N138   N     0.26480   0.46007   0.03962   0.00000  Uiso   1.00
C139   C     0.73096   0.85145   0.78734   0.00000  Uiso   1.00
C140   C     0.84533   0.79975   0.89201   0.00000  Uiso   1.00
C141   C     0.91909   0.83798   0.00719   0.00000  Uiso   1.00
C142   C     0.01956   0.77912   0.09021   0.00000  Uiso   1.00
C143   C     0.19322   0.71305   0.25748   0.00000  Uiso   1.00
C144   C     0.64904   0.75039   0.73193   0.00000  Uiso   1.00
C145   C     0.55775   0.74715   0.71250   0.00000  Uiso   1.00
C146   C     0.49298   0.64675   0.66075   0.00000  Uiso   1.00
C147   C     0.36184   0.50410   0.57941   0.00000  Uiso   1.00
C148   C     0.73090   0.88597   0.69878   0.00000  Uiso   1.00
C149   C     0.70842   0.99671   0.65145   0.00000  Uiso   1.00
C150   C     0.71255   0.01045   0.57177   0.00000  Uiso   1.00
C151   C     0.70852   0.07830   0.43896   0.00000  Uiso   1.00
C152   C     0.77822   0.67892   0.72998   0.00000  Uiso   1.00
C153   C     0.87099   0.70603   0.86085   0.00000  Uiso   1.00
C154   C     0.97138   0.64710   0.94372   0.00000  Uiso   1.00
C155   C     0.04529   0.68524   0.05900   0.00000  Uiso   1.00
C156   C     0.67470   0.65668   0.70077   0.00000  Uiso   1.00
C157   C     0.61005   0.55627   0.64903   0.00000  Uiso   1.00
C158   C     0.51870   0.55287   0.62954   0.00000  Uiso   1.00
C159   C     0.75657   0.79226   0.66762   0.00000  Uiso   1.00
C160   C     0.76072   0.80583   0.58799   0.00000  Uiso   1.00
C161   C     0.73826   0.91657   0.54055   0.00000  Uiso   1.00
H162   H     0.71097   0.92440   0.81160   0.00000  Uiso   1.00
H163   H     0.89919   0.91050   0.03127   0.00000  Uiso   1.00
H164   H     0.53790   0.81969   0.73661   0.00000  Uiso   1.00
H165   H     0.68856   0.06921   0.67558   0.00000  Uiso   1.00
H166   H     0.11917   0.85373   0.26108   0.00000  Uiso   1.00
H167   H     0.35736   0.66226   0.63974   0.00000  Uiso   1.00
H168   H     0.67504   0.18843   0.51104   0.00000  Uiso   1.00
H169   H     0.79821   0.60596   0.70572   0.00000  Uiso   1.00
H170   H     0.99123   0.57458   0.91958   0.00000  Uiso   1.00
H171   H     0.62993   0.48377   0.62493   0.00000  Uiso   1.00
H172   H     0.78059   0.73329   0.56390   0.00000  Uiso   1.00
H173   H     0.19387   0.58108   0.17043   0.00000  Uiso   1.00
H174   H     0.43205   0.38962   0.54909   0.00000  Uiso   1.00
H175   H     0.74974   0.91578   0.42040   0.00000  Uiso   1.00
O176   O     0.28191   0.70249   0.35836   0.00000  Uiso   1.00
O177   O     0.28242   0.45130   0.54317   0.00000  Uiso   1.00
O178   O     0.69922   0.14162   0.37433   0.00000  Uiso   1.00
N179   N     0.11027   0.79389   0.21039   0.00000  Uiso   1.00
N180   N     0.39803   0.61487   0.62950   0.00000  Uiso   1.00
N181   N     0.69501   0.10678   0.50915   0.00000  Uiso   1.00
N182   N     0.15047   0.64718   0.16162   0.00000  Uiso   1.00
N183   N     0.43823   0.46816   0.58072   0.00000  Uiso   1.00
N184   N     0.73520   0.96007   0.46038   0.00000  Uiso   1.00
