data_job_05820
_audit_creation_date              2018-12-19
_audit_creation_method            'Materials Studio'
_symmetry_space_group_name_H-M    'P1'
_symmetry_Int_Tables_number       1
_symmetry_cell_setting            triclinic
loop_
_symmetry_equiv_pos_as_xyz
  x,y,z
_cell_length_a                    13.8098
_cell_length_b                    21.1026
_cell_length_c                    10.5266
_cell_angle_alpha                 90.0000
_cell_angle_beta                  90.0000
_cell_angle_gamma                 90.0000
loop_
_atom_site_label
_atom_site_type_symbol
_atom_site_fract_x
_atom_site_fract_y
_atom_site_fract_z
_atom_site_U_iso_or_equiv
_atom_site_adp_type
_atom_site_occupancy
C1     C     0.92477   0.21191   0.96189   0.00000  Uiso   1.00
C2     C     0.00112   0.24964   0.03420   0.00000  Uiso   1.00
C3     C     0.00962   0.31516   0.03560   0.00000  Uiso   1.00
C4     C     0.08435   0.34060   0.10759   0.00000  Uiso   1.00
C5     C     0.19323   0.40508   0.20946   0.00000  Uiso   1.00
C6     C     0.98033   0.16613   0.87675   0.00000  Uiso   1.00
C7     C     0.97133   0.16143   0.74578   0.00000  Uiso   1.00
C8     C     0.02856   0.11655   0.68524   0.00000  Uiso   1.00
C9     C     0.10511   0.05134   0.54267   0.00000  Uiso   1.00
C10    C     0.87346   0.17106   0.06062   0.00000  Uiso   1.00
C11    C     0.77459   0.17049   0.08422   0.00000  Uiso   1.00
C12    C     0.74184   0.12974   0.17846   0.00000  Uiso   1.00
C13    C     0.65244   0.07219   0.32137   0.00000  Uiso   1.00
C14    C     0.04240   0.14055   0.08725   0.00000  Uiso   1.00
C15    C     0.06502   0.21088   0.10229   0.00000  Uiso   1.00
C16    C     0.13976   0.23622   0.17430   0.00000  Uiso   1.00
C17    C     0.14836   0.30177   0.17581   0.00000  Uiso   1.00
C18    C     0.04423   0.12737   0.94484   0.00000  Uiso   1.00
C19    C     0.10148   0.08248   0.88448   0.00000  Uiso   1.00
C20    C     0.09257   0.07772   0.75345   0.00000  Uiso   1.00
C21    C     0.93735   0.13230   0.12871   0.00000  Uiso   1.00
C22    C     0.90474   0.09155   0.22292   0.00000  Uiso   1.00
C23    C     0.80585   0.09092   0.24667   0.00000  Uiso   1.00
H24    H     0.87502   0.24208   0.90887   0.00000  Uiso   1.00
H25    H     0.96016   0.34514   0.98289   0.00000  Uiso   1.00
H26    H     0.92187   0.19142   0.69311   0.00000  Uiso   1.00
H27    H     0.72517   0.20048   0.03151   0.00000  Uiso   1.00
H28    H     0.08275   0.44231   0.09493   0.00000  Uiso   1.00
H29    H     0.00200   0.11817   0.48394   0.00000  Uiso   1.00
H30    H     0.58720   0.13728   0.19750   0.00000  Uiso   1.00
H31    H     0.09215   0.11038   0.14027   0.00000  Uiso   1.00
H32    H     0.18920   0.20622   0.22699   0.00000  Uiso   1.00
H33    H     0.15091   0.05250   0.93720   0.00000  Uiso   1.00
H34    H     0.95421   0.06156   0.27560   0.00000  Uiso   1.00
H35    H     0.26864   0.32956   0.29305   0.00000  Uiso   1.00
H36    H     0.18789   0.00542   0.68204   0.00000  Uiso   1.00
H37    H     0.77310   0.02452   0.39561   0.00000  Uiso   1.00
O38    O     0.23564   0.45136   0.24683   0.00000  Uiso   1.00
O39    O     0.12968   0.02609   0.44522   0.00000  Uiso   1.00
O40    O     0.58549   0.05116   0.38141   0.00000  Uiso   1.00
N41    N     0.11317   0.40263   0.12968   0.00000  Uiso   1.00
N42    N     0.03768   0.09958   0.55843   0.00000  Uiso   1.00
N43    N     0.64988   0.11743   0.22553   0.00000  Uiso   1.00
N44    N     0.21320   0.34195   0.23629   0.00000  Uiso   1.00
N45    N     0.13771   0.03891   0.66503   0.00000  Uiso   1.00
N46    N     0.74991   0.05676   0.33213   0.00000  Uiso   1.00
C47    C     0.07523   0.78809   0.96189   0.00000  Uiso   1.00
C48    C     0.99888   0.75036   0.03420   0.00000  Uiso   1.00
C49    C     0.99038   0.68484   0.03560   0.00000  Uiso   1.00
C50    C     0.91565   0.65940   0.10759   0.00000  Uiso   1.00
C51    C     0.80677   0.59492   0.20946   0.00000  Uiso   1.00
C52    C     0.01967   0.83387   0.87675   0.00000  Uiso   1.00
C53    C     0.02867   0.83857   0.74578   0.00000  Uiso   1.00
C54    C     0.97144   0.88345   0.68524   0.00000  Uiso   1.00
C55    C     0.89489   0.94866   0.54267   0.00000  Uiso   1.00
C56    C     0.12654   0.82894   0.06062   0.00000  Uiso   1.00
C57    C     0.22541   0.82951   0.08422   0.00000  Uiso   1.00
C58    C     0.25816   0.87026   0.17846   0.00000  Uiso   1.00
C59    C     0.34756   0.92781   0.32137   0.00000  Uiso   1.00
C60    C     0.95760   0.85945   0.08725   0.00000  Uiso   1.00
C61    C     0.93498   0.78912   0.10229   0.00000  Uiso   1.00
C62    C     0.86024   0.76378   0.17430   0.00000  Uiso   1.00
C63    C     0.85164   0.69823   0.17581   0.00000  Uiso   1.00
C64    C     0.95577   0.87263   0.94484   0.00000  Uiso   1.00
C65    C     0.89852   0.91752   0.88448   0.00000  Uiso   1.00
C66    C     0.90743   0.92228   0.75345   0.00000  Uiso   1.00
C67    C     0.06265   0.86770   0.12871   0.00000  Uiso   1.00
C68    C     0.09526   0.90845   0.22292   0.00000  Uiso   1.00
C69    C     0.19415   0.90908   0.24667   0.00000  Uiso   1.00
H70    H     0.12498   0.75792   0.90887   0.00000  Uiso   1.00
H71    H     0.03984   0.65486   0.98289   0.00000  Uiso   1.00
H72    H     0.07813   0.80858   0.69311   0.00000  Uiso   1.00
H73    H     0.27483   0.79952   0.03151   0.00000  Uiso   1.00
H74    H     0.91725   0.55769   0.09493   0.00000  Uiso   1.00
H75    H     0.99800   0.88183   0.48394   0.00000  Uiso   1.00
H76    H     0.41280   0.86272   0.19750   0.00000  Uiso   1.00
H77    H     0.90785   0.88962   0.14027   0.00000  Uiso   1.00
H78    H     0.81080   0.79378   0.22699   0.00000  Uiso   1.00
H79    H     0.84909   0.94750   0.93720   0.00000  Uiso   1.00
H80    H     0.04579   0.93844   0.27560   0.00000  Uiso   1.00
H81    H     0.73136   0.67044   0.29305   0.00000  Uiso   1.00
H82    H     0.81211   0.99458   0.68204   0.00000  Uiso   1.00
H83    H     0.22690   0.97548   0.39561   0.00000  Uiso   1.00
O84    O     0.76436   0.54864   0.24683   0.00000  Uiso   1.00
O85    O     0.87032   0.97391   0.44522   0.00000  Uiso   1.00
O86    O     0.41451   0.94884   0.38141   0.00000  Uiso   1.00
N87    N     0.88683   0.59737   0.12968   0.00000  Uiso   1.00
N88    N     0.96232   0.90042   0.55843   0.00000  Uiso   1.00
N89    N     0.35012   0.88257   0.22553   0.00000  Uiso   1.00
N90    N     0.78680   0.65805   0.23629   0.00000  Uiso   1.00
N91    N     0.86229   0.96109   0.66503   0.00000  Uiso   1.00
N92    N     0.25009   0.94324   0.33213   0.00000  Uiso   1.00
C93    C     0.42477   0.28809   0.46189   0.00000  Uiso   1.00
C94    C     0.50112   0.25036   0.53420   0.00000  Uiso   1.00
C95    C     0.50962   0.18484   0.53560   0.00000  Uiso   1.00
C96    C     0.58435   0.15940   0.60759   0.00000  Uiso   1.00
C97    C     0.69323   0.09492   0.70946   0.00000  Uiso   1.00
C98    C     0.48033   0.33387   0.37675   0.00000  Uiso   1.00
C99    C     0.47133   0.33857   0.24578   0.00000  Uiso   1.00
C100   C     0.52856   0.38345   0.18524   0.00000  Uiso   1.00
C101   C     0.60511   0.44866   0.04267   0.00000  Uiso   1.00
C102   C     0.37346   0.32894   0.56062   0.00000  Uiso   1.00
C103   C     0.27459   0.32951   0.58422   0.00000  Uiso   1.00
C104   C     0.24184   0.37026   0.67846   0.00000  Uiso   1.00
C105   C     0.15244   0.42781   0.82137   0.00000  Uiso   1.00
C106   C     0.54240   0.35945   0.58725   0.00000  Uiso   1.00
C107   C     0.56502   0.28912   0.60229   0.00000  Uiso   1.00
C108   C     0.63976   0.26378   0.67430   0.00000  Uiso   1.00
C109   C     0.64836   0.19823   0.67581   0.00000  Uiso   1.00
C110   C     0.54423   0.37263   0.44484   0.00000  Uiso   1.00
C111   C     0.60148   0.41752   0.38448   0.00000  Uiso   1.00
C112   C     0.59257   0.42228   0.25345   0.00000  Uiso   1.00
C113   C     0.43735   0.36770   0.62871   0.00000  Uiso   1.00
C114   C     0.40474   0.40845   0.72292   0.00000  Uiso   1.00
C115   C     0.30585   0.40908   0.74667   0.00000  Uiso   1.00
H116   H     0.37502   0.25792   0.40887   0.00000  Uiso   1.00
H117   H     0.46016   0.15486   0.48289   0.00000  Uiso   1.00
H118   H     0.42187   0.30858   0.19311   0.00000  Uiso   1.00
H119   H     0.22517   0.29952   0.53151   0.00000  Uiso   1.00
H120   H     0.58275   0.05769   0.59493   0.00000  Uiso   1.00
H121   H     0.50200   0.38183   0.98394   0.00000  Uiso   1.00
H122   H     0.08720   0.36272   0.69750   0.00000  Uiso   1.00
H123   H     0.59215   0.38962   0.64027   0.00000  Uiso   1.00
H124   H     0.68920   0.29378   0.72699   0.00000  Uiso   1.00
H125   H     0.65091   0.44750   0.43720   0.00000  Uiso   1.00
H126   H     0.45421   0.43844   0.77560   0.00000  Uiso   1.00
H127   H     0.76864   0.17044   0.79305   0.00000  Uiso   1.00
H128   H     0.68789   0.49458   0.18204   0.00000  Uiso   1.00
H129   H     0.27310   0.47548   0.89561   0.00000  Uiso   1.00
O130   O     0.73564   0.04864   0.74683   0.00000  Uiso   1.00
O131   O     0.62968   0.47391   0.94522   0.00000  Uiso   1.00
O132   O     0.08549   0.44884   0.88141   0.00000  Uiso   1.00
N133   N     0.61317   0.09737   0.62968   0.00000  Uiso   1.00
N134   N     0.53768   0.40042   0.05843   0.00000  Uiso   1.00
N135   N     0.14988   0.38257   0.72553   0.00000  Uiso   1.00
N136   N     0.71320   0.15805   0.73629   0.00000  Uiso   1.00
N137   N     0.63771   0.46109   0.16503   0.00000  Uiso   1.00
N138   N     0.24991   0.44324   0.83213   0.00000  Uiso   1.00
C139   C     0.57523   0.71191   0.46189   0.00000  Uiso   1.00
C140   C     0.49888   0.74964   0.53420   0.00000  Uiso   1.00
C141   C     0.49038   0.81516   0.53560   0.00000  Uiso   1.00
C142   C     0.41565   0.84060   0.60759   0.00000  Uiso   1.00
C143   C     0.30677   0.90508   0.70946   0.00000  Uiso   1.00
C144   C     0.51967   0.66613   0.37675   0.00000  Uiso   1.00
C145   C     0.52867   0.66143   0.24578   0.00000  Uiso   1.00
C146   C     0.47144   0.61655   0.18524   0.00000  Uiso   1.00
C147   C     0.39489   0.55134   0.04267   0.00000  Uiso   1.00
C148   C     0.62654   0.67106   0.56062   0.00000  Uiso   1.00
C149   C     0.72541   0.67049   0.58422   0.00000  Uiso   1.00
C150   C     0.75816   0.62974   0.67846   0.00000  Uiso   1.00
C151   C     0.84756   0.57219   0.82137   0.00000  Uiso   1.00
C152   C     0.45760   0.64055   0.58725   0.00000  Uiso   1.00
C153   C     0.43498   0.71088   0.60229   0.00000  Uiso   1.00
C154   C     0.36024   0.73622   0.67430   0.00000  Uiso   1.00
C155   C     0.35164   0.80177   0.67581   0.00000  Uiso   1.00
C156   C     0.45577   0.62737   0.44484   0.00000  Uiso   1.00
C157   C     0.39852   0.58248   0.38448   0.00000  Uiso   1.00
C158   C     0.40743   0.57772   0.25345   0.00000  Uiso   1.00
C159   C     0.56265   0.63230   0.62871   0.00000  Uiso   1.00
C160   C     0.59526   0.59155   0.72292   0.00000  Uiso   1.00
C161   C     0.69415   0.59092   0.74667   0.00000  Uiso   1.00
H162   H     0.62498   0.74208   0.40887   0.00000  Uiso   1.00
H163   H     0.53984   0.84514   0.48289   0.00000  Uiso   1.00
H164   H     0.57813   0.69142   0.19311   0.00000  Uiso   1.00
H165   H     0.77483   0.70048   0.53151   0.00000  Uiso   1.00
H166   H     0.41725   0.94231   0.59493   0.00000  Uiso   1.00
H167   H     0.49800   0.61817   0.98394   0.00000  Uiso   1.00
H168   H     0.91280   0.63728   0.69750   0.00000  Uiso   1.00
H169   H     0.40785   0.61038   0.64027   0.00000  Uiso   1.00
H170   H     0.31080   0.70622   0.72699   0.00000  Uiso   1.00
H171   H     0.34909   0.55250   0.43720   0.00000  Uiso   1.00
H172   H     0.54579   0.56156   0.77560   0.00000  Uiso   1.00
H173   H     0.23136   0.82956   0.79305   0.00000  Uiso   1.00
H174   H     0.31211   0.50542   0.18204   0.00000  Uiso   1.00
H175   H     0.72690   0.52452   0.89561   0.00000  Uiso   1.00
O176   O     0.26436   0.95136   0.74683   0.00000  Uiso   1.00
O177   O     0.37032   0.52609   0.94522   0.00000  Uiso   1.00
O178   O     0.91451   0.55116   0.88141   0.00000  Uiso   1.00
N179   N     0.38683   0.90263   0.62968   0.00000  Uiso   1.00
N180   N     0.46232   0.59958   0.05843   0.00000  Uiso   1.00
N181   N     0.85012   0.61743   0.72553   0.00000  Uiso   1.00
N182   N     0.28680   0.84195   0.73629   0.00000  Uiso   1.00
N183   N     0.36229   0.53891   0.16503   0.00000  Uiso   1.00
N184   N     0.75009   0.55676   0.83213   0.00000  Uiso   1.00
