data_job_07110
_audit_creation_date              2018-12-19
_audit_creation_method            'Materials Studio'
_symmetry_space_group_name_H-M    'P1'
_symmetry_Int_Tables_number       1
_symmetry_cell_setting            triclinic
loop_
_symmetry_equiv_pos_as_xyz
  x,y,z
_cell_length_a                    21.7402
_cell_length_b                    22.3751
_cell_length_c                    24.8309
_cell_angle_alpha                 88.6978
_cell_angle_beta                  77.0788
_cell_angle_gamma                 61.1282
loop_
_atom_site_label
_atom_site_type_symbol
_atom_site_fract_x
_atom_site_fract_y
_atom_site_fract_z
_atom_site_U_iso_or_equiv
_atom_site_adp_type
_atom_site_occupancy
C1     C     0.40318   0.68641   0.53983   0.00000  Uiso   1.00
C2     C     0.48552   0.65332   0.52405   0.00000  Uiso   1.00
C3     C     0.52546   0.68092   0.53831   0.00000  Uiso   1.00
C4     C     0.60026   0.64269   0.51986   0.00000  Uiso   1.00
C5     C     0.72300   0.60100   0.50013   0.00000  Uiso   1.00
C6     C     0.38038   0.69149   0.48537   0.00000  Uiso   1.00
C7     C     0.33191   0.75118   0.46713   0.00000  Uiso   1.00
C8     C     0.31820   0.74507   0.41612   0.00000  Uiso   1.00
C9     C     0.27767   0.76264   0.33637   0.00000  Uiso   1.00
C10    C     0.38602   0.63424   0.57021   0.00000  Uiso   1.00
C11    C     0.34228   0.64580   0.62330   0.00000  Uiso   1.00
C12    C     0.33331   0.59150   0.64371   0.00000  Uiso   1.00
C13    C     0.30154   0.52017   0.69569   0.00000  Uiso   1.00
C14    C     0.46501   0.56943   0.48168   0.00000  Uiso   1.00
C15    C     0.51910   0.58979   0.49246   0.00000  Uiso   1.00
C16    C     0.59386   0.55151   0.47398   0.00000  Uiso   1.00
C17    C     0.63391   0.57904   0.48822   0.00000  Uiso   1.00
C18    C     0.41396   0.62796   0.45379   0.00000  Uiso   1.00
C19    C     0.40032   0.62176   0.40280   0.00000  Uiso   1.00
C20    C     0.35184   0.68143   0.38448   0.00000  Uiso   1.00
C21    C     0.41961   0.57071   0.53863   0.00000  Uiso   1.00
C22    C     0.41070   0.51638   0.55897   0.00000  Uiso   1.00
C23    C     0.36696   0.52785   0.61207   0.00000  Uiso   1.00
H24    H     0.37703   0.73587   0.56441   0.00000  Uiso   1.00
H25    H     0.49945   0.73009   0.56275   0.00000  Uiso   1.00
H26    H     0.30592   0.80034   0.49158   0.00000  Uiso   1.00
H27    H     0.31630   0.69497   0.64772   0.00000  Uiso   1.00
H28    H     0.64997   0.69568   0.54696   0.00000  Uiso   1.00
H29    H     0.24190   0.84379   0.39690   0.00000  Uiso   1.00
H30    H     0.26378   0.62161   0.72617   0.00000  Uiso   1.00
H31    H     0.49116   0.51997   0.45710   0.00000  Uiso   1.00
H32    H     0.61984   0.50234   0.44954   0.00000  Uiso   1.00
H33    H     0.42631   0.57259   0.37837   0.00000  Uiso   1.00
H34    H     0.43669   0.46722   0.53452   0.00000  Uiso   1.00
H35    H     0.74769   0.51083   0.45508   0.00000  Uiso   1.00
H36    H     0.33961   0.65894   0.30502   0.00000  Uiso   1.00
H37    H     0.36150   0.43676   0.63428   0.00000  Uiso   1.00
O38    O     0.78142   0.59557   0.49797   0.00000  Uiso   1.00
O39    O     0.24603   0.78988   0.30111   0.00000  Uiso   1.00
O40    O     0.27475   0.49838   0.73309   0.00000  Uiso   1.00
N41    N     0.65531   0.65459   0.52638   0.00000  Uiso   1.00
N42    N     0.27380   0.79307   0.38608   0.00000  Uiso   1.00
N43    N     0.29424   0.58535   0.69391   0.00000  Uiso   1.00
N44    N     0.70789   0.55512   0.47694   0.00000  Uiso   1.00
N45    N     0.32638   0.69360   0.33664   0.00000  Uiso   1.00
N46    N     0.34682   0.48588   0.64447   0.00000  Uiso   1.00
C47    C     0.91551   0.53316   0.17246   0.00000  Uiso   1.00
C48    C     0.98520   0.53735   0.15855   0.00000  Uiso   1.00
C49    C     0.04080   0.50707   0.18567   0.00000  Uiso   1.00
C50    C     0.10003   0.51694   0.16669   0.00000  Uiso   1.00
C51    C     0.20771   0.51757   0.15188   0.00000  Uiso   1.00
C52    C     0.85370   0.60707   0.18364   0.00000  Uiso   1.00
C53    C     0.79873   0.63540   0.23185   0.00000  Uiso   1.00
C54    C     0.74726   0.70396   0.23399   0.00000  Uiso   1.00
C55    C     0.65075   0.81282   0.25811   0.00000  Uiso   1.00
C56    C     0.91194   0.50399   0.11904   0.00000  Uiso   1.00
C57    C     0.90593   0.44566   0.11294   0.00000  Uiso   1.00
C58    C     0.90347   0.42745   0.06070   0.00000  Uiso   1.00
C59    C     0.89740   0.37626   0.98453   0.00000  Uiso   1.00
C60    C     0.92183   0.60454   0.09053   0.00000  Uiso   1.00
C61    C     0.98863   0.57612   0.11405   0.00000  Uiso   1.00
C62    C     0.04779   0.58604   0.09502   0.00000  Uiso   1.00
C63    C     0.10347   0.55578   0.12211   0.00000  Uiso   1.00
C64    C     0.85713   0.64584   0.13914   0.00000  Uiso   1.00
C65    C     0.80573   0.71437   0.14120   0.00000  Uiso   1.00
C66    C     0.75070   0.74281   0.18941   0.00000  Uiso   1.00
C67    C     0.91538   0.54276   0.07454   0.00000  Uiso   1.00
C68    C     0.91292   0.52463   0.02230   0.00000  Uiso   1.00
C69    C     0.90691   0.46629   0.01612   0.00000  Uiso   1.00
H70    H     0.91283   0.50298   0.20710   0.00000  Uiso   1.00
H71    H     0.03812   0.47707   0.22011   0.00000  Uiso   1.00
H72    H     0.79609   0.60538   0.26628   0.00000  Uiso   1.00
H73    H     0.90327   0.41567   0.14739   0.00000  Uiso   1.00
H74    H     0.17853   0.46547   0.21491   0.00000  Uiso   1.00
H75    H     0.66818   0.73601   0.31226   0.00000  Uiso   1.00
H76    H     0.89419   0.33597   0.06156   0.00000  Uiso   1.00
H77    H     0.92450   0.63473   0.05588   0.00000  Uiso   1.00
H78    H     0.05044   0.61605   0.06058   0.00000  Uiso   1.00
H79    H     0.80840   0.74436   0.10676   0.00000  Uiso   1.00
H80    H     0.91558   0.55465   0.98787   0.00000  Uiso   1.00
H81    H     0.18853   0.57827   0.08544   0.00000  Uiso   1.00
H82    H     0.67817   0.84881   0.18279   0.00000  Uiso   1.00
H83    H     0.90418   0.44877   0.93209   0.00000  Uiso   1.00
O84    O     0.26615   0.50722   0.15601   0.00000  Uiso   1.00
O85    O     0.59658   0.86216   0.28372   0.00000  Uiso   1.00
O86    O     0.89311   0.33731   0.95481   0.00000  Uiso   1.00
N87    N     0.16361   0.49457   0.18379   0.00000  Uiso   1.00
N88    N     0.68646   0.74751   0.27480   0.00000  Uiso   1.00
N89    N     0.89775   0.37351   0.04043   0.00000  Uiso   1.00
N90    N     0.16899   0.55526   0.11412   0.00000  Uiso   1.00
N91    N     0.69184   0.80821   0.20514   0.00000  Uiso   1.00
N92    N     0.90312   0.43421   0.97076   0.00000  Uiso   1.00
C93    C     0.09157   0.95365   0.21946   0.00000  Uiso   1.00
C94    C     0.15622   0.94623   0.23928   0.00000  Uiso   1.00
C95    C     0.22852   0.90267   0.21370   0.00000  Uiso   1.00
C96    C     0.27958   0.90340   0.23831   0.00000  Uiso   1.00
C97    C     0.38310   0.88534   0.26173   0.00000  Uiso   1.00
C98    C     0.04534   0.93923   0.26810   0.00000  Uiso   1.00
C99    C     0.02440   0.88980   0.26675   0.00000  Uiso   1.00
C100   C     0.98211   0.88466   0.31561   0.00000  Uiso   1.00
C101   C     0.91344   0.85577   0.38376   0.00000  Uiso   1.00
C102   C     0.04719   0.02946   0.21213   0.00000  Uiso   1.00
C103   C     0.02779   0.05590   0.16372   0.00000  Uiso   1.00
C104   C     0.98706   0.12672   0.16547   0.00000  Uiso   1.00
C105   C     0.92126   0.23793   0.14672   0.00000  Uiso   1.00
C106   C     0.05370   0.03240   0.30865   0.00000  Uiso   1.00
C107   C     0.13565   0.98900   0.28772   0.00000  Uiso   1.00
C108   C     0.18662   0.98980   0.31238   0.00000  Uiso   1.00
C109   C     0.25898   0.94625   0.28684   0.00000  Uiso   1.00
C110   C     0.02477   0.98200   0.31654   0.00000  Uiso   1.00
C111   C     0.98250   0.97693   0.36542   0.00000  Uiso   1.00
C112   C     0.96151   0.92750   0.36414   0.00000  Uiso   1.00
C113   C     0.02662   0.07223   0.26057   0.00000  Uiso   1.00
C114   C     0.98590   0.14303   0.26240   0.00000  Uiso   1.00
C115   C     0.96645   0.16957   0.21400   0.00000  Uiso   1.00
H116   H     0.10758   0.92035   0.18175   0.00000  Uiso   1.00
H117   H     0.24441   0.86958   0.17622   0.00000  Uiso   1.00
H118   H     0.04032   0.85672   0.22925   0.00000  Uiso   1.00
H119   H     0.04372   0.02279   0.12625   0.00000  Uiso   1.00
H120   H     0.38705   0.83213   0.19146   0.00000  Uiso   1.00
H121   H     0.95668   0.80503   0.30328   0.00000  Uiso   1.00
H122   H     0.96385   0.15522   0.08607   0.00000  Uiso   1.00
H123   H     0.03768   0.06570   0.34636   0.00000  Uiso   1.00
H124   H     0.17069   0.02290   0.34986   0.00000  Uiso   1.00
H125   H     0.96659   0.01004   0.40290   0.00000  Uiso   1.00
H126   H     0.96999   0.17611   0.29989   0.00000  Uiso   1.00
H127   H     0.32721   0.95657   0.33240   0.00000  Uiso   1.00
H128   H     0.89684   0.92947   0.44422   0.00000  Uiso   1.00
H129   H     0.90402   0.27966   0.22701   0.00000  Uiso   1.00
O130   O     0.44588   0.86355   0.26127   0.00000  Uiso   1.00
O131   O     0.88125   0.82801   0.40797   0.00000  Uiso   1.00
O132   O     0.89066   0.28745   0.12299   0.00000  Uiso   1.00
N133   N     0.35471   0.86730   0.22414   0.00000  Uiso   1.00
N134   N     0.95235   0.84195   0.32869   0.00000  Uiso   1.00
N135   N     0.95904   0.16936   0.12562   0.00000  Uiso   1.00
N136   N     0.32251   0.93426   0.29998   0.00000  Uiso   1.00
N137   N     0.92016   0.90891   0.40453   0.00000  Uiso   1.00
N138   N     0.92685   0.23632   0.20146   0.00000  Uiso   1.00
C139   C     0.44332   0.08644   0.43693   0.00000  Uiso   1.00
C140   C     0.50429   0.08232   0.46030   0.00000  Uiso   1.00
C141   C     0.55630   0.09933   0.43391   0.00000  Uiso   1.00
C142   C     0.60748   0.09204   0.46221   0.00000  Uiso   1.00
C143   C     0.70227   0.08924   0.49047   0.00000  Uiso   1.00
C144   C     0.37319   0.13253   0.47976   0.00000  Uiso   1.00
C145   C     0.31497   0.19176   0.46974   0.00000  Uiso   1.00
C146   C     0.25579   0.22673   0.51443   0.00000  Uiso   1.00
C147   C     0.14701   0.30187   0.57291   0.00000  Uiso   1.00
C148   C     0.45138   0.01486   0.43734   0.00000  Uiso   1.00
C149   C     0.45888   0.97515   0.39165   0.00000  Uiso   1.00
C150   C     0.46552   0.91104   0.40063   0.00000  Uiso   1.00
C151   C     0.47814   0.80347   0.39323   0.00000  Uiso   1.00
C152   C     0.44172   0.04322   0.53411   0.00000  Uiso   1.00
C153   C     0.50342   0.05884   0.51308   0.00000  Uiso   1.00
C154   C     0.55454   0.05152   0.54143   0.00000  Uiso   1.00
C155   C     0.60662   0.06852   0.51509   0.00000  Uiso   1.00
C156   C     0.37232   0.10906   0.53254   0.00000  Uiso   1.00
C157   C     0.31321   0.14395   0.57726   0.00000  Uiso   1.00
C158   C     0.25492   0.20322   0.56731   0.00000  Uiso   1.00
C159   C     0.45051   0.99138   0.49012   0.00000  Uiso   1.00
C160   C     0.45713   0.92733   0.49917   0.00000  Uiso   1.00
C161   C     0.46465   0.88753   0.45350   0.00000  Uiso   1.00
H162   H     0.44399   0.10472   0.39584   0.00000  Uiso   1.00
H163   H     0.55695   0.11751   0.39307   0.00000  Uiso   1.00
H164   H     0.31565   0.20991   0.42889   0.00000  Uiso   1.00
H165   H     0.45955   0.99333   0.35081   0.00000  Uiso   1.00
H166   H     0.68179   0.12135   0.41328   0.00000  Uiso   1.00
H167   H     0.17300   0.31619   0.48881   0.00000  Uiso   1.00
H168   H     0.47643   0.85948   0.32417   0.00000  Uiso   1.00
H169   H     0.44105   0.02494   0.57521   0.00000  Uiso   1.00
H170   H     0.55386   0.03335   0.58227   0.00000  Uiso   1.00
H171   H     0.31256   0.12576   0.61810   0.00000  Uiso   1.00
H172   H     0.45645   0.90918   0.54002   0.00000  Uiso   1.00
H173   H     0.67928   0.05305   0.56684   0.00000  Uiso   1.00
H174   H     0.17048   0.24789   0.64238   0.00000  Uiso   1.00
H175   H     0.47392   0.79118   0.47773   0.00000  Uiso   1.00
O176   O     0.75478   0.09420   0.49148   0.00000  Uiso   1.00
O177   O     0.08726   0.34980   0.59058   0.00000  Uiso   1.00
O178   O     0.48536   0.75061   0.37456   0.00000  Uiso   1.00
N179   N     0.66573   0.10411   0.44844   0.00000  Uiso   1.00
N180   N     0.19004   0.28628   0.51907   0.00000  Uiso   1.00
N181   N     0.47370   0.85930   0.36514   0.00000  Uiso   1.00
N182   N     0.66438   0.06736   0.53108   0.00000  Uiso   1.00
N183   N     0.18869   0.24953   0.60170   0.00000  Uiso   1.00
N184   N     0.47235   0.82255   0.44777   0.00000  Uiso   1.00
C185   C     0.63644   0.27919   0.97186   0.00000  Uiso   1.00
C186   C     0.65077   0.33785   0.95388   0.00000  Uiso   1.00
C187   C     0.71629   0.33704   0.94715   0.00000  Uiso   1.00
C188   C     0.71834   0.39583   0.93044   0.00000  Uiso   1.00
C189   C     0.74992   0.47816   0.90396   0.00000  Uiso   1.00
C190   C     0.60791   0.26351   0.92636   0.00000  Uiso   1.00
C191   C     0.63739   0.20019   0.89651   0.00000  Uiso   1.00
C192   C     0.60335   0.19639   0.85663   0.00000  Uiso   1.00
C193   C     0.56836   0.16329   0.78746   0.00000  Uiso   1.00
C194   C     0.57329   0.30873   0.02317   0.00000  Uiso   1.00
C195   C     0.57364   0.28342   0.07472   0.00000  Uiso   1.00
C196   C     0.51044   0.31768   0.11635   0.00000  Uiso   1.00
C197   C     0.42170   0.35480   0.19750   0.00000  Uiso   1.00
C198   C     0.52356   0.38503   0.95413   0.00000  Uiso   1.00
C199   C     0.58946   0.39534   0.94425   0.00000  Uiso   1.00
C200   C     0.59140   0.45414   0.92754   0.00000  Uiso   1.00
C201   C     0.65691   0.45342   0.92079   0.00000  Uiso   1.00
C202   C     0.54660   0.32099   0.91673   0.00000  Uiso   1.00
C203   C     0.51250   0.31729   0.87690   0.00000  Uiso   1.00
C204   C     0.54192   0.25398   0.84698   0.00000  Uiso   1.00
C205   C     0.51197   0.36622   0.01355   0.00000  Uiso   1.00
C206   C     0.44876   0.40052   0.05511   0.00000  Uiso   1.00
C207   C     0.44902   0.37527   0.10670   0.00000  Uiso   1.00
H208   H     0.68418   0.23443   0.97935   0.00000  Uiso   1.00
H209   H     0.76373   0.29254   0.95460   0.00000  Uiso   1.00
H210   H     0.68484   0.15571   0.90397   0.00000  Uiso   1.00
H211   H     0.62110   0.23893   0.08215   0.00000  Uiso   1.00
H212   H     0.82490   0.38231   0.92290   0.00000  Uiso   1.00
H213   H     0.65853   0.09378   0.81615   0.00000  Uiso   1.00
H214   H     0.52413   0.26928   0.19188   0.00000  Uiso   1.00
H215   H     0.47582   0.42978   0.94663   0.00000  Uiso   1.00
H216   H     0.54395   0.49862   0.92009   0.00000  Uiso   1.00
H217   H     0.46505   0.36178   0.86946   0.00000  Uiso   1.00
H218   H     0.40132   0.44501   0.04764   0.00000  Uiso   1.00
H219   H     0.64651   0.54957   0.89489   0.00000  Uiso   1.00
H220   H     0.48015   0.26104   0.78814   0.00000  Uiso   1.00
H221   H     0.34575   0.43654   0.16387   0.00000  Uiso   1.00
O222   O     0.78429   0.50769   0.89201   0.00000  Uiso   1.00
O223   O     0.56601   0.12915   0.75196   0.00000  Uiso   1.00
O224   O     0.38969   0.35939   0.24492   0.00000  Uiso   1.00
N225   N     0.77356   0.41223   0.91996   0.00000  Uiso   1.00
N226   N     0.61803   0.14248   0.82015   0.00000  Uiso   1.00
N227   N     0.49237   0.30654   0.17143   0.00000  Uiso   1.00
N228   N     0.67758   0.50224   0.90489   0.00000  Uiso   1.00
N229   N     0.52204   0.23248   0.80508   0.00000  Uiso   1.00
N230   N     0.39638   0.39654   0.15635   0.00000  Uiso   1.00
C231   C     0.95805   0.66515   0.69791   0.00000  Uiso   1.00
C232   C     0.02381   0.59739   0.67045   0.00000  Uiso   1.00
C233   C     0.08984   0.56577   0.68483   0.00000  Uiso   1.00
C234   C     0.14318   0.50396   0.65469   0.00000  Uiso   1.00
C235   C     0.24715   0.40315   0.61860   0.00000  Uiso   1.00
C236   C     0.89592   0.64984   0.71764   0.00000  Uiso   1.00
C237   C     0.85442   0.66234   0.77171   0.00000  Uiso   1.00
C238   C     0.80009   0.64469   0.78129   0.00000  Uiso   1.00
C239   C     0.70547   0.62536   0.81847   0.00000  Uiso   1.00
C240   C     0.93888   0.71153   0.65144   0.00000  Uiso   1.00
C241   C     0.93348   0.77591   0.64984   0.00000  Uiso   1.00
C242   C     0.91530   0.81021   0.60370   0.00000  Uiso   1.00
C243   C     0.88738   0.88666   0.53808   0.00000  Uiso   1.00
C244   C     0.93536   0.61162   0.61881   0.00000  Uiso   1.00
C245   C     0.01148   0.56831   0.62748   0.00000  Uiso   1.00
C246   C     0.06473   0.50654   0.59731   0.00000  Uiso   1.00
C247   C     0.13084   0.47483   0.61164   0.00000  Uiso   1.00
C248   C     0.88359   0.62077   0.67468   0.00000  Uiso   1.00
C249   C     0.82931   0.60310   0.68419   0.00000  Uiso   1.00
C250   C     0.78774   0.61556   0.73825   0.00000  Uiso   1.00
C251   C     0.92655   0.68246   0.60847   0.00000  Uiso   1.00
C252   C     0.90837   0.71667   0.56232   0.00000  Uiso   1.00
C253   C     0.90295   0.78108   0.56065   0.00000  Uiso   1.00
H254   H     0.96765   0.68779   0.73136   0.00000  Uiso   1.00
H255   H     0.09936   0.58829   0.71809   0.00000  Uiso   1.00
H256   H     0.86397   0.68485   0.80495   0.00000  Uiso   1.00
H257   H     0.94302   0.79839   0.68310   0.00000  Uiso   1.00
H258   H     0.23994   0.46513   0.68443   0.00000  Uiso   1.00
H259   H     0.74359   0.66875   0.86758   0.00000  Uiso   1.00
H260   H     0.91028   0.90819   0.61064   0.00000  Uiso   1.00
H261   H     0.92576   0.58898   0.58536   0.00000  Uiso   1.00
H262   H     0.05518   0.48404   0.56406   0.00000  Uiso   1.00
H263   H     0.81978   0.58060   0.65093   0.00000  Uiso   1.00
H264   H     0.89883   0.69415   0.52908   0.00000  Uiso   1.00
H265   H     0.20408   0.38052   0.55942   0.00000  Uiso   1.00
H266   H     0.70772   0.58415   0.74257   0.00000  Uiso   1.00
H267   H     0.87442   0.82358   0.48563   0.00000  Uiso   1.00
O268   O     0.30790   0.35557   0.61056   0.00000  Uiso   1.00
O269   O     0.65668   0.62273   0.85085   0.00000  Uiso   1.00
O270   O     0.87539   0.93686   0.51375   0.00000  Uiso   1.00
N271   N     0.21375   0.45962   0.65792   0.00000  Uiso   1.00
N272   N     0.74969   0.64999   0.82916   0.00000  Uiso   1.00
N273   N     0.90552   0.87385   0.58895   0.00000  Uiso   1.00
N274   N     0.19445   0.41410   0.59066   0.00000  Uiso   1.00
N275   N     0.73039   0.60446   0.76189   0.00000  Uiso   1.00
N276   N     0.88622   0.82832   0.52169   0.00000  Uiso   1.00
C277   C     0.66346   0.29003   0.64673   0.00000  Uiso   1.00
C278   C     0.60529   0.27457   0.63758   0.00000  Uiso   1.00
C279   C     0.59794   0.21823   0.65418   0.00000  Uiso   1.00
C280   C     0.54116   0.21334   0.64194   0.00000  Uiso   1.00
C281   C     0.45806   0.18179   0.63199   0.00000  Uiso   1.00
C282   C     0.62322   0.36141   0.67810   0.00000  Uiso   1.00
C283   C     0.63095   0.37809   0.72875   0.00000  Uiso   1.00
C284   C     0.58927   0.44631   0.75061   0.00000  Uiso   1.00
C285   C     0.53405   0.54960   0.80354   0.00000  Uiso   1.00
C286   C     0.70174   0.29682   0.58939   0.00000  Uiso   1.00
C287   C     0.77550   0.25921   0.56546   0.00000  Uiso   1.00
C288   C     0.79993   0.27306   0.51264   0.00000  Uiso   1.00
C289   C     0.86662   0.27606   0.42784   0.00000  Uiso   1.00
C290   C     0.57570   0.38154   0.59547   0.00000  Uiso   1.00
C291   C     0.55762   0.32427   0.60974   0.00000  Uiso   1.00
C292   C     0.50084   0.31947   0.59747   0.00000  Uiso   1.00
C293   C     0.49341   0.26313   0.61404   0.00000  Uiso   1.00
C294   C     0.57555   0.41112   0.65026   0.00000  Uiso   1.00
C295   C     0.53385   0.47933   0.67204   0.00000  Uiso   1.00
C296   C     0.54152   0.49611   0.72272   0.00000  Uiso   1.00
C297   C     0.65407   0.34653   0.56155   0.00000  Uiso   1.00
C298   C     0.67839   0.36045   0.50875   0.00000  Uiso   1.00
C299   C     0.75218   0.32286   0.48475   0.00000  Uiso   1.00
H300   H     0.70058   0.25134   0.66841   0.00000  Uiso   1.00
H301   H     0.63484   0.17978   0.67573   0.00000  Uiso   1.00
H302   H     0.66785   0.33962   0.75029   0.00000  Uiso   1.00
H303   H     0.81237   0.22075   0.58702   0.00000  Uiso   1.00
H304   H     0.54092   0.12237   0.67159   0.00000  Uiso   1.00
H305   H     0.61055   0.45940   0.82878   0.00000  Uiso   1.00
H306   H     0.91530   0.20875   0.48451   0.00000  Uiso   1.00
H307   H     0.53859   0.42024   0.57380   0.00000  Uiso   1.00
H308   H     0.46396   0.35794   0.57592   0.00000  Uiso   1.00
H309   H     0.49697   0.51778   0.65048   0.00000  Uiso   1.00
H310   H     0.64149   0.39892   0.48722   0.00000  Uiso   1.00
H311   H     0.40222   0.26698   0.59058   0.00000  Uiso   1.00
H312   H     0.47186   0.60401   0.74778   0.00000  Uiso   1.00
H313   H     0.77660   0.35336   0.40350   0.00000  Uiso   1.00
O314   O     0.42539   0.15066   0.63421   0.00000  Uiso   1.00
O315   O     0.51675   0.59283   0.84044   0.00000  Uiso   1.00
O316   O     0.91657   0.26398   0.38876   0.00000  Uiso   1.00
N317   N     0.51853   0.16495   0.65222   0.00000  Uiso   1.00
N318   N     0.58362   0.48005   0.79920   0.00000  Uiso   1.00
N319   N     0.86853   0.24572   0.47733   0.00000  Uiso   1.00
N320   N     0.44390   0.24276   0.60863   0.00000  Uiso   1.00
N321   N     0.50899   0.55786   0.75561   0.00000  Uiso   1.00
N322   N     0.79390   0.32354   0.43374   0.00000  Uiso   1.00
C323   C     0.15709   0.35481   0.76471   0.00000  Uiso   1.00
C324   C     0.08060   0.36989   0.76538   0.00000  Uiso   1.00
C325   C     0.04325   0.40116   0.72521   0.00000  Uiso   1.00
C326   C     0.97381   0.41036   0.73340   0.00000  Uiso   1.00
C327   C     0.85975   0.43699   0.72733   0.00000  Uiso   1.00
C328   C     0.20041   0.27791   0.76859   0.00000  Uiso   1.00
C329   C     0.26381   0.23184   0.73112   0.00000  Uiso   1.00
C330   C     0.29523   0.16360   0.74202   0.00000  Uiso   1.00
C331   C     0.36722   0.04743   0.74095   0.00000  Uiso   1.00
C332   C     0.15125   0.38972   0.81909   0.00000  Uiso   1.00
C333   C     0.17333   0.43766   0.82408   0.00000  Uiso   1.00
C334   C     0.16337   0.46356   0.87750   0.00000  Uiso   1.00
C335   C     0.15903   0.52100   0.95484   0.00000  Uiso   1.00
C336   C     0.10016   0.31555   0.85072   0.00000  Uiso   1.00
C337   C     0.04968   0.34856   0.81210   0.00000  Uiso   1.00
C338   C     0.98027   0.35772   0.82037   0.00000  Uiso   1.00
C339   C     0.94283   0.38899   0.78021   0.00000  Uiso   1.00
C340   C     0.16949   0.25658   0.81531   0.00000  Uiso   1.00
C341   C     0.20083   0.18840   0.82628   0.00000  Uiso   1.00
C342   C     0.26425   0.14224   0.78883   0.00000  Uiso   1.00
C343   C     0.12033   0.36840   0.86581   0.00000  Uiso   1.00
C344   C     0.11034   0.39422   0.91924   0.00000  Uiso   1.00
C345   C     0.13240   0.44219   0.92430   0.00000  Uiso   1.00
H346   H     0.18117   0.37141   0.72834   0.00000  Uiso   1.00
H347   H     0.06720   0.41765   0.68905   0.00000  Uiso   1.00
H348   H     0.28773   0.24836   0.69497   0.00000  Uiso   1.00
H349   H     0.19726   0.45415   0.78792   0.00000  Uiso   1.00
H350   H     0.92723   0.45949   0.66609   0.00000  Uiso   1.00
H351   H     0.39223   0.10253   0.67858   0.00000  Uiso   1.00
H352   H     0.20146   0.53648   0.87457   0.00000  Uiso   1.00
H353   H     0.07609   0.29894   0.88709   0.00000  Uiso   1.00
H354   H     0.95636   0.34121   0.85652   0.00000  Uiso   1.00
H355   H     0.17689   0.17191   0.86244   0.00000  Uiso   1.00
H356   H     0.08641   0.37770   0.95538   0.00000  Uiso   1.00
H357   H     0.83726   0.39744   0.80202   0.00000  Uiso   1.00
H358   H     0.30227   0.04048   0.81450   0.00000  Uiso   1.00
H359   H     0.11149   0.47443   0.01049   0.00000  Uiso   1.00
O360   O     0.80539   0.45756   0.71107   0.00000  Uiso   1.00
O361   O     0.41547   0.98924   0.72745   0.00000  Uiso   1.00
O362   O     0.16516   0.55858   0.98459   0.00000  Uiso   1.00
N363   N     0.92248   0.43910   0.70228   0.00000  Uiso   1.00
N364   N     0.35723   0.10536   0.71395   0.00000  Uiso   1.00
N365   N     0.17888   0.51106   0.89719   0.00000  Uiso   1.00
N366   N     0.87407   0.40571   0.77542   0.00000  Uiso   1.00
N367   N     0.30882   0.07197   0.78709   0.00000  Uiso   1.00
N368   N     0.13047   0.47767   0.97033   0.00000  Uiso   1.00
C369   C     0.02604   0.14017   0.60892   0.00000  Uiso   1.00
C370   C     0.97187   0.11720   0.60361   0.00000  Uiso   1.00
C371   C     0.91387   0.12440   0.64559   0.00000  Uiso   1.00
C372   C     0.87059   0.10010   0.63241   0.00000  Uiso   1.00
C373   C     0.78429   0.06909   0.63227   0.00000  Uiso   1.00
C374   C     0.02364   0.18839   0.56404   0.00000  Uiso   1.00
C375   C     0.00918   0.25546   0.57276   0.00000  Uiso   1.00
C376   C     0.00949   0.29109   0.52627   0.00000  Uiso   1.00
C377   C     0.00361   0.37059   0.46470   0.00000  Uiso   1.00
C378   C     0.10061   0.07656   0.59190   0.00000  Uiso   1.00
C379   C     0.15089   0.04961   0.62403   0.00000  Uiso   1.00
C380   C     0.21602   0.99109   0.60099   0.00000  Uiso   1.00
C381   C     0.32965   0.89697   0.58267   0.00000  Uiso   1.00
C382   C     0.05232   0.08419   0.51087   0.00000  Uiso   1.00
C383   C     0.98615   0.08679   0.55035   0.00000  Uiso   1.00
C384   C     0.94295   0.06247   0.53711   0.00000  Uiso   1.00
C385   C     0.88489   0.06964   0.57906   0.00000  Uiso   1.00
C386   C     0.03791   0.15799   0.51079   0.00000  Uiso   1.00
C387   C     0.03825   0.19353   0.46428   0.00000  Uiso   1.00
C388   C     0.02379   0.26063   0.47292   0.00000  Uiso   1.00
C389   C     0.11489   0.04616   0.53865   0.00000  Uiso   1.00
C390   C     0.17996   0.98768   0.51555   0.00000  Uiso   1.00
C391   C     0.23032   0.96064   0.54764   0.00000  Uiso   1.00
H392   H     0.01492   0.16384   0.65037   0.00000  Uiso   1.00
H393   H     0.90283   0.14794   0.68679   0.00000  Uiso   1.00
H394   H     0.99814   0.27897   0.61397   0.00000  Uiso   1.00
H395   H     0.13982   0.07315   0.66524   0.00000  Uiso   1.00
H396   H     0.78484   0.11693   0.70368   0.00000  Uiso   1.00
H397   H     0.98581   0.39320   0.55013   0.00000  Uiso   1.00
H398   H     0.28458   0.95919   0.65823   0.00000  Uiso   1.00
H399   H     0.06344   0.06052   0.46941   0.00000  Uiso   1.00
H400   H     0.95401   0.03895   0.49590   0.00000  Uiso   1.00
H401   H     0.04931   0.16998   0.42308   0.00000  Uiso   1.00
H402   H     0.19099   0.96416   0.47434   0.00000  Uiso   1.00
H403   H     0.82637   0.02847   0.54874   0.00000  Uiso   1.00
H404   H     0.02735   0.30474   0.39519   0.00000  Uiso   1.00
H405   H     0.32611   0.87073   0.50329   0.00000  Uiso   1.00
O406   O     0.73273   0.06039   0.64690   0.00000  Uiso   1.00
O407   O     0.99641   0.42284   0.44545   0.00000  Uiso   1.00
O408   O     0.38839   0.85344   0.58728   0.00000  Uiso   1.00
N409   N     0.80964   0.09906   0.66358   0.00000  Uiso   1.00
N410   N     0.99753   0.35736   0.52003   0.00000  Uiso   1.00
N411   N     0.27686   0.95161   0.62109   0.00000  Uiso   1.00
N412   N     0.83199   0.05146   0.58021   0.00000  Uiso   1.00
N413   N     0.01988   0.30976   0.43666   0.00000  Uiso   1.00
N414   N     0.29921   0.90401   0.53772   0.00000  Uiso   1.00
C415   C     0.70552   0.76693   0.61269   0.00000  Uiso   1.00
C416   C     0.63567   0.76378   0.63306   0.00000  Uiso   1.00
C417   C     0.63063   0.70768   0.65359   0.00000  Uiso   1.00
C418   C     0.56176   0.71504   0.67009   0.00000  Uiso   1.00
C419   C     0.46267   0.70081   0.70229   0.00000  Uiso   1.00
C420   C     0.70731   0.78630   0.55330   0.00000  Uiso   1.00
C421   C     0.76253   0.74914   0.50678   0.00000  Uiso   1.00
C422   C     0.75397   0.77547   0.45614   0.00000  Uiso   1.00
C423   C     0.76614   0.79622   0.36452   0.00000  Uiso   1.00
C424   C     0.69589   0.82803   0.64675   0.00000  Uiso   1.00
C425   C     0.74150   0.82598   0.67880   0.00000  Uiso   1.00
C426   C     0.72333   0.88744   0.70683   0.00000  Uiso   1.00
C427   C     0.71775   0.97300   0.76031   0.00000  Uiso   1.00
C428   C     0.59215   0.87975   0.60547   0.00000  Uiso   1.00
C429   C     0.57409   0.82506   0.62913   0.00000  Uiso   1.00
C430   C     0.50520   0.83250   0.64561   0.00000  Uiso   1.00
C431   C     0.50007   0.77643   0.66617   0.00000  Uiso   1.00
C432   C     0.64574   0.84757   0.54938   0.00000  Uiso   1.00
C433   C     0.63710   0.87396   0.49879   0.00000  Uiso   1.00
C434   C     0.69228   0.83686   0.45221   0.00000  Uiso   1.00
C435   C     0.63431   0.88931   0.64283   0.00000  Uiso   1.00
C436   C     0.61607   0.95080   0.67081   0.00000  Uiso   1.00
C437   C     0.66164   0.94883   0.70290   0.00000  Uiso   1.00
H438   H     0.75346   0.71923   0.61574   0.00000  Uiso   1.00
H439   H     0.67830   0.66027   0.65662   0.00000  Uiso   1.00
H440   H     0.81018   0.70173   0.50983   0.00000  Uiso   1.00
H441   H     0.78915   0.77855   0.68182   0.00000  Uiso   1.00
H442   H     0.56782   0.62192   0.70019   0.00000  Uiso   1.00
H443   H     0.84590   0.70935   0.39069   0.00000  Uiso   1.00
H444   H     0.80156   0.87134   0.75337   0.00000  Uiso   1.00
H445   H     0.54420   0.92746   0.60241   0.00000  Uiso   1.00
H446   H     0.45756   0.87993   0.64257   0.00000  Uiso   1.00
H447   H     0.58944   0.92139   0.49578   0.00000  Uiso   1.00
H448   H     0.56841   0.99821   0.66777   0.00000  Uiso   1.00
H449   H     0.38866   0.80020   0.68879   0.00000  Uiso   1.00
H450   H     0.66674   0.88763   0.37928   0.00000  Uiso   1.00
H451   H     0.62240   0.04962   0.74196   0.00000  Uiso   1.00
O452   O     0.42502   0.67602   0.72113   0.00000  Uiso   1.00
O453   O     0.78986   0.79074   0.31507   0.00000  Uiso   1.00
O454   O     0.73168   0.00326   0.79090   0.00000  Uiso   1.00
N455   N     0.53755   0.67040   0.69201   0.00000  Uiso   1.00
N456   N     0.79753   0.75214   0.40264   0.00000  Uiso   1.00
N457   N     0.75608   0.90359   0.74170   0.00000  Uiso   1.00
N458   N     0.44114   0.76634   0.68587   0.00000  Uiso   1.00
N459   N     0.70112   0.84807   0.39650   0.00000  Uiso   1.00
N460   N     0.65968   0.99952   0.73556   0.00000  Uiso   1.00
C461   C     0.53814   0.65884   0.19265   0.00000  Uiso   1.00
C462   C     0.47740   0.64585   0.18602   0.00000  Uiso   1.00
C463   C     0.40383   0.69015   0.20634   0.00000  Uiso   1.00
C464   C     0.35691   0.66885   0.19591   0.00000  Uiso   1.00
C465   C     0.25868   0.65830   0.19015   0.00000  Uiso   1.00
C466   C     0.58671   0.59836   0.22044   0.00000  Uiso   1.00
C467   C     0.60506   0.60275   0.26969   0.00000  Uiso   1.00
C468   C     0.65017   0.54148   0.28823   0.00000  Uiso   1.00
C469   C     0.72169   0.45721   0.33588   0.00000  Uiso   1.00
C470   C     0.58285   0.65240   0.13405   0.00000  Uiso   1.00
C471   C     0.59798   0.70220   0.11067   0.00000  Uiso   1.00
C472   C     0.63986   0.68642   0.05647   0.00000  Uiso   1.00
C473   C     0.70538   0.68605   0.96999   0.00000  Uiso   1.00
C474   C     0.58563   0.54224   0.13798   0.00000  Uiso   1.00
C475   C     0.50320   0.58252   0.15632   0.00000  Uiso   1.00
C476   C     0.45638   0.56115   0.14586   0.00000  Uiso   1.00
C477   C     0.38276   0.60541   0.16616   0.00000  Uiso   1.00
C478   C     0.61251   0.53504   0.19074   0.00000  Uiso   1.00
C479   C     0.65761   0.47375   0.20921   0.00000  Uiso   1.00
C480   C     0.67602   0.47803   0.25848   0.00000  Uiso   1.00
C481   C     0.60865   0.58907   0.10435   0.00000  Uiso   1.00
C482   C     0.65052   0.57320   0.05018   0.00000  Uiso   1.00
C483   C     0.66570   0.62298   0.02672   0.00000  Uiso   1.00
H484   H     0.51805   0.70814   0.21577   0.00000  Uiso   1.00
H485   H     0.38389   0.73915   0.22933   0.00000  Uiso   1.00
H486   H     0.58509   0.65176   0.29266   0.00000  Uiso   1.00
H487   H     0.57800   0.75120   0.13366   0.00000  Uiso   1.00
H488   H     0.24652   0.74559   0.23127   0.00000  Uiso   1.00
H489   H     0.67078   0.56133   0.36481   0.00000  Uiso   1.00
H490   H     0.65584   0.77102   0.02952   0.00000  Uiso   1.00
H491   H     0.60572   0.49294   0.11486   0.00000  Uiso   1.00
H492   H     0.47636   0.51214   0.12288   0.00000  Uiso   1.00
H493   H     0.67756   0.42475   0.18622   0.00000  Uiso   1.00
H494   H     0.67048   0.52419   0.02721   0.00000  Uiso   1.00
H495   H     0.32157   0.56134   0.14488   0.00000  Uiso   1.00
H496   H     0.74584   0.37708   0.27842   0.00000  Uiso   1.00
H497   H     0.73090   0.58677   0.94313   0.00000  Uiso   1.00
O498   O     0.19737   0.66997   0.19518   0.00000  Uiso   1.00
O499   O     0.75400   0.42823   0.37037   0.00000  Uiso   1.00
O500   O     0.73439   0.70334   0.93048   0.00000  Uiso   1.00
N501   N     0.28193   0.69960   0.20983   0.00000  Uiso   1.00
N502   N     0.67859   0.52732   0.33468   0.00000  Uiso   1.00
N503   N     0.66464   0.72336   0.02122   0.00000  Uiso   1.00
N504   N     0.32232   0.60045   0.16334   0.00000  Uiso   1.00
N505   N     0.71897   0.42818   0.28820   0.00000  Uiso   1.00
N506   N     0.70502   0.62422   0.97473   0.00000  Uiso   1.00
C507   C     0.14009   0.59482   0.34852   0.00000  Uiso   1.00
C508   C     0.07051   0.59046   0.36324   0.00000  Uiso   1.00
C509   C     0.03306   0.58741   0.32582   0.00000  Uiso   1.00
C510   C     0.97052   0.58363   0.34755   0.00000  Uiso   1.00
C511   C     0.86613   0.57699   0.36173   0.00000  Uiso   1.00
C512   C     0.12413   0.65894   0.38229   0.00000  Uiso   1.00
C513   C     0.13178   0.71347   0.36088   0.00000  Uiso   1.00
C514   C     0.11439   0.76734   0.39864   0.00000  Uiso   1.00
C515   C     0.09331   0.86699   0.44239   0.00000  Uiso   1.00
C516   C     0.19516   0.53419   0.37209   0.00000  Uiso   1.00
C517   C     0.26254   0.48383   0.34210   0.00000  Uiso   1.00
C518   C     0.30496   0.43267   0.37128   0.00000  Uiso   1.00
C519   C     0.39416   0.33863   0.39919   0.00000  Uiso   1.00
C520   C     0.09563   0.59351   0.45367   0.00000  Uiso   1.00
C521   C     0.04636   0.58974   0.42036   0.00000  Uiso   1.00
C522   C     0.98387   0.58596   0.44215   0.00000  Uiso   1.00
C523   C     0.94633   0.58291   0.40477   0.00000  Uiso   1.00
C524   C     0.09998   0.65823   0.43940   0.00000  Uiso   1.00
C525   C     0.08259   0.71202   0.47721   0.00000  Uiso   1.00
C526   C     0.09020   0.76662   0.45586   0.00000  Uiso   1.00
C527   C     0.17101   0.53347   0.42920   0.00000  Uiso   1.00
C528   C     0.21335   0.48238   0.45844   0.00000  Uiso   1.00
C529   C     0.28077   0.43195   0.42850   0.00000  Uiso   1.00
H530   H     0.15889   0.59539   0.30406   0.00000  Uiso   1.00
H531   H     0.05176   0.58798   0.28162   0.00000  Uiso   1.00
H532   H     0.15047   0.71401   0.31668   0.00000  Uiso   1.00
H533   H     0.28121   0.48440   0.29790   0.00000  Uiso   1.00
H534   H     0.92232   0.57947   0.28194   0.00000  Uiso   1.00
H535   H     0.13048   0.84521   0.35585   0.00000  Uiso   1.00
H536   H     0.40617   0.36104   0.31627   0.00000  Uiso   1.00
H537   H     0.07683   0.59295   0.49814   0.00000  Uiso   1.00
H538   H     0.96519   0.58541   0.48635   0.00000  Uiso   1.00
H539   H     0.06391   0.71144   0.52141   0.00000  Uiso   1.00
H540   H     0.19464   0.48184   0.50263   0.00000  Uiso   1.00
H541   H     0.85206   0.57739   0.44810   0.00000  Uiso   1.00
H542   H     0.06023   0.84313   0.52202   0.00000  Uiso   1.00
H543   H     0.33591   0.35896   0.48243   0.00000  Uiso   1.00
O544   O     0.81522   0.57353   0.35377   0.00000  Uiso   1.00
O545   O     0.08834   0.92217   0.45074   0.00000  Uiso   1.00
O546   O     0.45002   0.28695   0.39880   0.00000  Uiso   1.00
N547   N     0.92111   0.58000   0.32266   0.00000  Uiso   1.00
N548   N     0.11572   0.82846   0.39177   0.00000  Uiso   1.00
N549   N     0.37347   0.37581   0.35476   0.00000  Uiso   1.00
N550   N     0.88331   0.57888   0.41207   0.00000  Uiso   1.00
N551   N     0.07792   0.82734   0.48118   0.00000  Uiso   1.00
N552   N     0.33567   0.37469   0.44417   0.00000  Uiso   1.00
