data_job_01837
_audit_creation_date              2018-12-19
_audit_creation_method            'Materials Studio'
_symmetry_space_group_name_H-M    'P1'
_symmetry_Int_Tables_number       1
_symmetry_cell_setting            triclinic
loop_
_symmetry_equiv_pos_as_xyz
  x,y,z
_cell_length_a                    9.4319
_cell_length_b                    18.6151
_cell_length_c                    40.2752
_cell_angle_alpha                 90.0000
_cell_angle_beta                  101.3723
_cell_angle_gamma                 90.0000
loop_
_atom_site_label
_atom_site_type_symbol
_atom_site_fract_x
_atom_site_fract_y
_atom_site_fract_z
_atom_site_U_iso_or_equiv
_atom_site_adp_type
_atom_site_occupancy
C1     C     0.86058   0.26607   0.61205   0.00000  Uiso   1.00
C2     C     0.94473   0.20815   0.59739   0.00000  Uiso   1.00
C3     C     0.09101   0.21044   0.59652   0.00000  Uiso   1.00
C4     C     0.14768   0.15213   0.58203   0.00000  Uiso   1.00
C5     C     0.29150   0.07110   0.56126   0.00000  Uiso   1.00
C6     C     0.73605   0.28753   0.58355   0.00000  Uiso   1.00
C7     C     0.70688   0.35656   0.57104   0.00000  Uiso   1.00
C8     C     0.58787   0.36506   0.54489   0.00000  Uiso   1.00
C9     C     0.40765   0.40729   0.50263   0.00000  Uiso   1.00
C10    C     0.79167   0.22877   0.63864   0.00000  Uiso   1.00
C11    C     0.80923   0.24841   0.67244   0.00000  Uiso   1.00
C12    C     0.73703   0.20746   0.69268   0.00000  Uiso   1.00
C13    C     0.64317   0.15846   0.73595   0.00000  Uiso   1.00
C14    C     0.70109   0.15844   0.58787   0.00000  Uiso   1.00
C15    C     0.85809   0.14969   0.58426   0.00000  Uiso   1.00
C16    C     0.91456   0.09136   0.56977   0.00000  Uiso   1.00
C17    C     0.06090   0.09356   0.56887   0.00000  Uiso   1.00
C18    C     0.64942   0.22907   0.57041   0.00000  Uiso   1.00
C19    C     0.53042   0.23748   0.54428   0.00000  Uiso   1.00
C20    C     0.50108   0.30650   0.53173   0.00000  Uiso   1.00
C21    C     0.70505   0.17031   0.62550   0.00000  Uiso   1.00
C22    C     0.63279   0.12933   0.64569   0.00000  Uiso   1.00
C23    C     0.65024   0.14890   0.67952   0.00000  Uiso   1.00
H24    H     0.92802   0.31158   0.62228   0.00000  Uiso   1.00
H25    H     0.15801   0.25569   0.60669   0.00000  Uiso   1.00
H26    H     0.77392   0.40178   0.58121   0.00000  Uiso   1.00
H27    H     0.87628   0.29365   0.68260   0.00000  Uiso   1.00
H28    H     0.37479   0.16796   0.58360   0.00000  Uiso   1.00
H29    H     0.56490   0.47601   0.52988   0.00000  Uiso   1.00
H30    H     0.78072   0.24799   0.74369   0.00000  Uiso   1.00
H31    H     0.63365   0.11293   0.57764   0.00000  Uiso   1.00
H32    H     0.84749   0.04613   0.55960   0.00000  Uiso   1.00
H33    H     0.46341   0.19223   0.53412   0.00000  Uiso   1.00
H34    H     0.56576   0.08410   0.63551   0.00000  Uiso   1.00
H35    H     0.12276   0.99787   0.54538   0.00000  Uiso   1.00
H36    H     0.31286   0.30593   0.49167   0.00000  Uiso   1.00
H37    H     0.52869   0.07791   0.70547   0.00000  Uiso   1.00
O38    O     0.39475   0.04257   0.55342   0.00000  Uiso   1.00
O39    O     0.33219   0.44673   0.48295   0.00000  Uiso   1.00
O40    O     0.61535   0.14757   0.76345   0.00000  Uiso   1.00
N41    N     0.28613   0.13709   0.57709   0.00000  Uiso   1.00
N42    N     0.52894   0.42510   0.52686   0.00000  Uiso   1.00
N43    N     0.73069   0.21193   0.72675   0.00000  Uiso   1.00
N44    N     0.15052   0.04556   0.55652   0.00000  Uiso   1.00
N45    N     0.39333   0.33358   0.50630   0.00000  Uiso   1.00
N46    N     0.59507   0.12041   0.70618   0.00000  Uiso   1.00
C47    C     0.43328   0.80006   0.07520   0.00000  Uiso   1.00
C48    C     0.52611   0.74238   0.06309   0.00000  Uiso   1.00
C49    C     0.67351   0.74718   0.06381   0.00000  Uiso   1.00
C50    C     0.73866   0.68864   0.05157   0.00000  Uiso   1.00
C51    C     0.89489   0.60840   0.03465   0.00000  Uiso   1.00
C52    C     0.31199   0.81660   0.04511   0.00000  Uiso   1.00
C53    C     0.27935   0.88381   0.03071   0.00000  Uiso   1.00
C54    C     0.16424   0.88775   0.00333   0.00000  Uiso   1.00
C55    C     0.98797   0.92275   0.95852   0.00000  Uiso   1.00
C56    C     0.36139   0.76408   0.10162   0.00000  Uiso   1.00
C57    C     0.37026   0.78715   0.13474   0.00000  Uiso   1.00
C58    C     0.29671   0.74688   0.15494   0.00000  Uiso   1.00
C59    C     0.19715   0.70033   0.19787   0.00000  Uiso   1.00
C60    C     0.28686   0.68754   0.05219   0.00000  Uiso   1.00
C61    C     0.44658   0.68127   0.05059   0.00000  Uiso   1.00
C62    C     0.51152   0.62270   0.03835   0.00000  Uiso   1.00
C63    C     0.65899   0.62742   0.03905   0.00000  Uiso   1.00
C64    C     0.23246   0.75549   0.03261   0.00000  Uiso   1.00
C65    C     0.11736   0.75933   0.00525   0.00000  Uiso   1.00
C66    C     0.08456   0.82653   0.99081   0.00000  Uiso   1.00
C67    C     0.28187   0.70297   0.08913   0.00000  Uiso   1.00
C68    C     0.20828   0.66266   0.10928   0.00000  Uiso   1.00
C69    C     0.21703   0.68566   0.14242   0.00000  Uiso   1.00
H70    H     0.49519   0.84764   0.08492   0.00000  Uiso   1.00
H71    H     0.73502   0.79449   0.07348   0.00000  Uiso   1.00
H72    H     0.34091   0.93110   0.04039   0.00000  Uiso   1.00
H73    H     0.43181   0.83444   0.14440   0.00000  Uiso   1.00
H74    H     0.96583   0.70863   0.05526   0.00000  Uiso   1.00
H75    H     0.13480   0.99668   0.98549   0.00000  Uiso   1.00
H76    H     0.32648   0.79286   0.20482   0.00000  Uiso   1.00
H77    H     0.22494   0.63997   0.04246   0.00000  Uiso   1.00
H78    H     0.44995   0.57542   0.02868   0.00000  Uiso   1.00
H79    H     0.05584   0.71203   0.99559   0.00000  Uiso   1.00
H80    H     0.14674   0.61538   0.09960   0.00000  Uiso   1.00
H81    H     0.73446   0.53082   0.01890   0.00000  Uiso   1.00
H82    H     0.90342   0.81888   0.94914   0.00000  Uiso   1.00
H83    H     0.09511   0.61506   0.16846   0.00000  Uiso   1.00
O84    O     0.00302   0.58102   0.02877   0.00000  Uiso   1.00
O85    O     0.91273   0.95894   0.93725   0.00000  Uiso   1.00
O86    O     0.16422   0.69154   0.22500   0.00000  Uiso   1.00
N87    N     0.88050   0.67563   0.04860   0.00000  Uiso   1.00
N88    N     0.10355   0.94494   0.98337   0.00000  Uiso   1.00
N89    N     0.28273   0.75440   0.18842   0.00000  Uiso   1.00
N90    N     0.75600   0.57996   0.02904   0.00000  Uiso   1.00
N91    N     0.97905   0.84927   0.96381   0.00000  Uiso   1.00
N92    N     0.15823   0.65873   0.16886   0.00000  Uiso   1.00
C93    C     0.13942   0.76607   0.88795   0.00000  Uiso   1.00
C94    C     0.05527   0.70815   0.90261   0.00000  Uiso   1.00
C95    C     0.90899   0.71044   0.90348   0.00000  Uiso   1.00
C96    C     0.85232   0.65213   0.91797   0.00000  Uiso   1.00
C97    C     0.70850   0.57110   0.93874   0.00000  Uiso   1.00
C98    C     0.26395   0.78753   0.91645   0.00000  Uiso   1.00
C99    C     0.29312   0.85656   0.92896   0.00000  Uiso   1.00
C100   C     0.41213   0.86506   0.95511   0.00000  Uiso   1.00
C101   C     0.59235   0.90729   0.99737   0.00000  Uiso   1.00
C102   C     0.20833   0.72877   0.86136   0.00000  Uiso   1.00
C103   C     0.19077   0.74841   0.82756   0.00000  Uiso   1.00
C104   C     0.26297   0.70746   0.80732   0.00000  Uiso   1.00
C105   C     0.35683   0.65846   0.76405   0.00000  Uiso   1.00
C106   C     0.29891   0.65844   0.91213   0.00000  Uiso   1.00
C107   C     0.14191   0.64969   0.91574   0.00000  Uiso   1.00
C108   C     0.08544   0.59136   0.93023   0.00000  Uiso   1.00
C109   C     0.93910   0.59356   0.93113   0.00000  Uiso   1.00
C110   C     0.35058   0.72907   0.92959   0.00000  Uiso   1.00
C111   C     0.46958   0.73748   0.95572   0.00000  Uiso   1.00
C112   C     0.49892   0.80650   0.96827   0.00000  Uiso   1.00
C113   C     0.29495   0.67031   0.87450   0.00000  Uiso   1.00
C114   C     0.36721   0.62933   0.85431   0.00000  Uiso   1.00
C115   C     0.34976   0.64890   0.82048   0.00000  Uiso   1.00
H116   H     0.07198   0.81158   0.87772   0.00000  Uiso   1.00
H117   H     0.84199   0.75569   0.89331   0.00000  Uiso   1.00
H118   H     0.22608   0.90178   0.91879   0.00000  Uiso   1.00
H119   H     0.12372   0.79365   0.81740   0.00000  Uiso   1.00
H120   H     0.62521   0.66796   0.91640   0.00000  Uiso   1.00
H121   H     0.43510   0.97601   0.97012   0.00000  Uiso   1.00
H122   H     0.21928   0.74799   0.75631   0.00000  Uiso   1.00
H123   H     0.36635   0.61293   0.92236   0.00000  Uiso   1.00
H124   H     0.15251   0.54613   0.94040   0.00000  Uiso   1.00
H125   H     0.53659   0.69223   0.96588   0.00000  Uiso   1.00
H126   H     0.43424   0.58410   0.86449   0.00000  Uiso   1.00
H127   H     0.87724   0.49787   0.95462   0.00000  Uiso   1.00
H128   H     0.68714   0.80593   0.00833   0.00000  Uiso   1.00
H129   H     0.47131   0.57791   0.79453   0.00000  Uiso   1.00
O130   O     0.60525   0.54257   0.94658   0.00000  Uiso   1.00
O131   O     0.66781   0.94673   0.01705   0.00000  Uiso   1.00
O132   O     0.38465   0.64757   0.73655   0.00000  Uiso   1.00
N133   N     0.71387   0.63709   0.92291   0.00000  Uiso   1.00
N134   N     0.47106   0.92510   0.97314   0.00000  Uiso   1.00
N135   N     0.26931   0.71193   0.77325   0.00000  Uiso   1.00
N136   N     0.84948   0.54556   0.94348   0.00000  Uiso   1.00
N137   N     0.60667   0.83358   0.99370   0.00000  Uiso   1.00
N138   N     0.40493   0.62041   0.79382   0.00000  Uiso   1.00
C139   C     0.56672   0.30006   0.42480   0.00000  Uiso   1.00
C140   C     0.47389   0.24238   0.43691   0.00000  Uiso   1.00
C141   C     0.32649   0.24718   0.43619   0.00000  Uiso   1.00
C142   C     0.26134   0.18864   0.44843   0.00000  Uiso   1.00
C143   C     0.10511   0.10840   0.46535   0.00000  Uiso   1.00
C144   C     0.68801   0.31660   0.45489   0.00000  Uiso   1.00
C145   C     0.72065   0.38381   0.46929   0.00000  Uiso   1.00
C146   C     0.83576   0.38775   0.49667   0.00000  Uiso   1.00
C147   C     0.01203   0.42275   0.54148   0.00000  Uiso   1.00
C148   C     0.63861   0.26408   0.39838   0.00000  Uiso   1.00
C149   C     0.62974   0.28715   0.36526   0.00000  Uiso   1.00
C150   C     0.70329   0.24688   0.34506   0.00000  Uiso   1.00
C151   C     0.80285   0.20033   0.30213   0.00000  Uiso   1.00
C152   C     0.71314   0.18754   0.44781   0.00000  Uiso   1.00
C153   C     0.55342   0.18127   0.44941   0.00000  Uiso   1.00
C154   C     0.48848   0.12270   0.46165   0.00000  Uiso   1.00
C155   C     0.34101   0.12742   0.46095   0.00000  Uiso   1.00
C156   C     0.76754   0.25549   0.46739   0.00000  Uiso   1.00
C157   C     0.88264   0.25933   0.49475   0.00000  Uiso   1.00
C158   C     0.91544   0.32653   0.50919   0.00000  Uiso   1.00
C159   C     0.71813   0.20297   0.41087   0.00000  Uiso   1.00
C160   C     0.79172   0.16266   0.39072   0.00000  Uiso   1.00
C161   C     0.78297   0.18566   0.35758   0.00000  Uiso   1.00
H162   H     0.50481   0.34764   0.41508   0.00000  Uiso   1.00
H163   H     0.26498   0.29449   0.42652   0.00000  Uiso   1.00
H164   H     0.65909   0.43110   0.45961   0.00000  Uiso   1.00
H165   H     0.56819   0.33444   0.35560   0.00000  Uiso   1.00
H166   H     0.03417   0.20863   0.44474   0.00000  Uiso   1.00
H167   H     0.86520   0.49668   0.51451   0.00000  Uiso   1.00
H168   H     0.67352   0.29286   0.29518   0.00000  Uiso   1.00
H169   H     0.77506   0.13997   0.45754   0.00000  Uiso   1.00
H170   H     0.55005   0.07542   0.47132   0.00000  Uiso   1.00
H171   H     0.94416   0.21203   0.50441   0.00000  Uiso   1.00
H172   H     0.85326   0.11538   0.40040   0.00000  Uiso   1.00
H173   H     0.26554   0.03082   0.48110   0.00000  Uiso   1.00
H174   H     0.09658   0.31888   0.55086   0.00000  Uiso   1.00
H175   H     0.90489   0.11506   0.33154   0.00000  Uiso   1.00
O176   O     0.99698   0.08102   0.47123   0.00000  Uiso   1.00
O177   O     0.08727   0.45894   0.56275   0.00000  Uiso   1.00
O178   O     0.83578   0.19154   0.27500   0.00000  Uiso   1.00
N179   N     0.11950   0.17563   0.45140   0.00000  Uiso   1.00
N180   N     0.89645   0.44494   0.51663   0.00000  Uiso   1.00
N181   N     0.71727   0.25440   0.31158   0.00000  Uiso   1.00
N182   N     0.24400   0.07996   0.47096   0.00000  Uiso   1.00
N183   N     0.02095   0.34927   0.53619   0.00000  Uiso   1.00
N184   N     0.84177   0.15873   0.33114   0.00000  Uiso   1.00
C185   C     0.13942   0.73393   0.38795   0.00000  Uiso   1.00
C186   C     0.05527   0.79185   0.40261   0.00000  Uiso   1.00
C187   C     0.90899   0.78956   0.40348   0.00000  Uiso   1.00
C188   C     0.85232   0.84787   0.41797   0.00000  Uiso   1.00
C189   C     0.70850   0.92890   0.43874   0.00000  Uiso   1.00
C190   C     0.26395   0.71247   0.41645   0.00000  Uiso   1.00
C191   C     0.29312   0.64344   0.42896   0.00000  Uiso   1.00
C192   C     0.41213   0.63494   0.45511   0.00000  Uiso   1.00
C193   C     0.59235   0.59271   0.49737   0.00000  Uiso   1.00
C194   C     0.20833   0.77123   0.36136   0.00000  Uiso   1.00
C195   C     0.19077   0.75159   0.32756   0.00000  Uiso   1.00
C196   C     0.26297   0.79254   0.30732   0.00000  Uiso   1.00
C197   C     0.35683   0.84154   0.26405   0.00000  Uiso   1.00
C198   C     0.29891   0.84156   0.41213   0.00000  Uiso   1.00
C199   C     0.14191   0.85031   0.41574   0.00000  Uiso   1.00
C200   C     0.08544   0.90864   0.43023   0.00000  Uiso   1.00
C201   C     0.93910   0.90644   0.43113   0.00000  Uiso   1.00
C202   C     0.35058   0.77093   0.42959   0.00000  Uiso   1.00
C203   C     0.46958   0.76252   0.45572   0.00000  Uiso   1.00
C204   C     0.49892   0.69350   0.46827   0.00000  Uiso   1.00
C205   C     0.29495   0.82969   0.37450   0.00000  Uiso   1.00
C206   C     0.36721   0.87067   0.35431   0.00000  Uiso   1.00
C207   C     0.34976   0.85110   0.32048   0.00000  Uiso   1.00
H208   H     0.07198   0.68842   0.37772   0.00000  Uiso   1.00
H209   H     0.84199   0.74431   0.39331   0.00000  Uiso   1.00
H210   H     0.22608   0.59822   0.41879   0.00000  Uiso   1.00
H211   H     0.12372   0.70635   0.31740   0.00000  Uiso   1.00
H212   H     0.62521   0.83204   0.41640   0.00000  Uiso   1.00
H213   H     0.43510   0.52399   0.47012   0.00000  Uiso   1.00
H214   H     0.21928   0.75201   0.25631   0.00000  Uiso   1.00
H215   H     0.36635   0.88707   0.42236   0.00000  Uiso   1.00
H216   H     0.15251   0.95387   0.44040   0.00000  Uiso   1.00
H217   H     0.53659   0.80777   0.46588   0.00000  Uiso   1.00
H218   H     0.43424   0.91590   0.36449   0.00000  Uiso   1.00
H219   H     0.87724   0.00213   0.45462   0.00000  Uiso   1.00
H220   H     0.68714   0.69407   0.50833   0.00000  Uiso   1.00
H221   H     0.47131   0.92209   0.29453   0.00000  Uiso   1.00
O222   O     0.60525   0.95743   0.44658   0.00000  Uiso   1.00
O223   O     0.66781   0.55327   0.51705   0.00000  Uiso   1.00
O224   O     0.38465   0.85243   0.23655   0.00000  Uiso   1.00
N225   N     0.71387   0.86291   0.42291   0.00000  Uiso   1.00
N226   N     0.47106   0.57490   0.47314   0.00000  Uiso   1.00
N227   N     0.26931   0.78807   0.27325   0.00000  Uiso   1.00
N228   N     0.84948   0.95444   0.44348   0.00000  Uiso   1.00
N229   N     0.60667   0.66642   0.49370   0.00000  Uiso   1.00
N230   N     0.40493   0.87959   0.29382   0.00000  Uiso   1.00
C231   C     0.56672   0.19994   0.92480   0.00000  Uiso   1.00
C232   C     0.47389   0.25762   0.93691   0.00000  Uiso   1.00
C233   C     0.32649   0.25282   0.93619   0.00000  Uiso   1.00
C234   C     0.26134   0.31136   0.94843   0.00000  Uiso   1.00
C235   C     0.10511   0.39160   0.96535   0.00000  Uiso   1.00
C236   C     0.68801   0.18340   0.95489   0.00000  Uiso   1.00
C237   C     0.72065   0.11619   0.96929   0.00000  Uiso   1.00
C238   C     0.83576   0.11225   0.99667   0.00000  Uiso   1.00
C239   C     0.01203   0.07725   0.04148   0.00000  Uiso   1.00
C240   C     0.63861   0.23592   0.89838   0.00000  Uiso   1.00
C241   C     0.62974   0.21285   0.86526   0.00000  Uiso   1.00
C242   C     0.70329   0.25312   0.84506   0.00000  Uiso   1.00
C243   C     0.80285   0.29967   0.80213   0.00000  Uiso   1.00
C244   C     0.71314   0.31246   0.94781   0.00000  Uiso   1.00
C245   C     0.55342   0.31873   0.94941   0.00000  Uiso   1.00
C246   C     0.48848   0.37730   0.96165   0.00000  Uiso   1.00
C247   C     0.34101   0.37258   0.96095   0.00000  Uiso   1.00
C248   C     0.76754   0.24451   0.96739   0.00000  Uiso   1.00
C249   C     0.88264   0.24067   0.99475   0.00000  Uiso   1.00
C250   C     0.91544   0.17347   0.00919   0.00000  Uiso   1.00
C251   C     0.71813   0.29703   0.91087   0.00000  Uiso   1.00
C252   C     0.79172   0.33734   0.89072   0.00000  Uiso   1.00
C253   C     0.78297   0.31434   0.85758   0.00000  Uiso   1.00
H254   H     0.50481   0.15236   0.91508   0.00000  Uiso   1.00
H255   H     0.26498   0.20551   0.92652   0.00000  Uiso   1.00
H256   H     0.65909   0.06890   0.95961   0.00000  Uiso   1.00
H257   H     0.56819   0.16556   0.85560   0.00000  Uiso   1.00
H258   H     0.03417   0.29137   0.94474   0.00000  Uiso   1.00
H259   H     0.86520   0.00332   0.01451   0.00000  Uiso   1.00
H260   H     0.67352   0.20714   0.79518   0.00000  Uiso   1.00
H261   H     0.77506   0.36003   0.95754   0.00000  Uiso   1.00
H262   H     0.55005   0.42458   0.97132   0.00000  Uiso   1.00
H263   H     0.94416   0.28797   0.00441   0.00000  Uiso   1.00
H264   H     0.85326   0.38462   0.90040   0.00000  Uiso   1.00
H265   H     0.26554   0.46918   0.98110   0.00000  Uiso   1.00
H266   H     0.09658   0.18112   0.05086   0.00000  Uiso   1.00
H267   H     0.90489   0.38494   0.83154   0.00000  Uiso   1.00
O268   O     0.99698   0.41898   0.97123   0.00000  Uiso   1.00
O269   O     0.08727   0.04106   0.06275   0.00000  Uiso   1.00
O270   O     0.83578   0.30846   0.77500   0.00000  Uiso   1.00
N271   N     0.11950   0.32437   0.95140   0.00000  Uiso   1.00
N272   N     0.89645   0.05506   0.01663   0.00000  Uiso   1.00
N273   N     0.71727   0.24560   0.81158   0.00000  Uiso   1.00
N274   N     0.24400   0.42004   0.97096   0.00000  Uiso   1.00
N275   N     0.02095   0.15073   0.03619   0.00000  Uiso   1.00
N276   N     0.84177   0.34127   0.83114   0.00000  Uiso   1.00
C277   C     0.86058   0.23393   0.11205   0.00000  Uiso   1.00
C278   C     0.94473   0.29185   0.09739   0.00000  Uiso   1.00
C279   C     0.09101   0.28956   0.09652   0.00000  Uiso   1.00
C280   C     0.14768   0.34787   0.08203   0.00000  Uiso   1.00
C281   C     0.29150   0.42890   0.06126   0.00000  Uiso   1.00
C282   C     0.73605   0.21247   0.08355   0.00000  Uiso   1.00
C283   C     0.70688   0.14344   0.07104   0.00000  Uiso   1.00
C284   C     0.58787   0.13494   0.04489   0.00000  Uiso   1.00
C285   C     0.40765   0.09271   0.00263   0.00000  Uiso   1.00
C286   C     0.79167   0.27123   0.13864   0.00000  Uiso   1.00
C287   C     0.80923   0.25159   0.17244   0.00000  Uiso   1.00
C288   C     0.73703   0.29254   0.19268   0.00000  Uiso   1.00
C289   C     0.64317   0.34154   0.23595   0.00000  Uiso   1.00
C290   C     0.70109   0.34156   0.08787   0.00000  Uiso   1.00
C291   C     0.85809   0.35031   0.08426   0.00000  Uiso   1.00
C292   C     0.91456   0.40864   0.06977   0.00000  Uiso   1.00
C293   C     0.06090   0.40644   0.06887   0.00000  Uiso   1.00
C294   C     0.64942   0.27093   0.07041   0.00000  Uiso   1.00
C295   C     0.53042   0.26252   0.04428   0.00000  Uiso   1.00
C296   C     0.50108   0.19350   0.03173   0.00000  Uiso   1.00
C297   C     0.70505   0.32969   0.12550   0.00000  Uiso   1.00
C298   C     0.63279   0.37067   0.14569   0.00000  Uiso   1.00
C299   C     0.65024   0.35110   0.17952   0.00000  Uiso   1.00
H300   H     0.92802   0.18842   0.12228   0.00000  Uiso   1.00
H301   H     0.15801   0.24431   0.10669   0.00000  Uiso   1.00
H302   H     0.77392   0.09822   0.08121   0.00000  Uiso   1.00
H303   H     0.87628   0.20635   0.18260   0.00000  Uiso   1.00
H304   H     0.37479   0.33204   0.08360   0.00000  Uiso   1.00
H305   H     0.56490   0.02399   0.02988   0.00000  Uiso   1.00
H306   H     0.78072   0.25201   0.24369   0.00000  Uiso   1.00
H307   H     0.63365   0.38707   0.07764   0.00000  Uiso   1.00
H308   H     0.84749   0.45387   0.05960   0.00000  Uiso   1.00
H309   H     0.46341   0.30777   0.03412   0.00000  Uiso   1.00
H310   H     0.56576   0.41590   0.13551   0.00000  Uiso   1.00
H311   H     0.12276   0.50213   0.04538   0.00000  Uiso   1.00
H312   H     0.31286   0.19407   0.99167   0.00000  Uiso   1.00
H313   H     0.52869   0.42209   0.20547   0.00000  Uiso   1.00
O314   O     0.39475   0.45743   0.05342   0.00000  Uiso   1.00
O315   O     0.33219   0.05327   0.98295   0.00000  Uiso   1.00
O316   O     0.61535   0.35243   0.26345   0.00000  Uiso   1.00
N317   N     0.28613   0.36291   0.07709   0.00000  Uiso   1.00
N318   N     0.52894   0.07490   0.02686   0.00000  Uiso   1.00
N319   N     0.73069   0.28807   0.22675   0.00000  Uiso   1.00
N320   N     0.15052   0.45444   0.05652   0.00000  Uiso   1.00
N321   N     0.39333   0.16642   0.00630   0.00000  Uiso   1.00
N322   N     0.59507   0.37959   0.20618   0.00000  Uiso   1.00
C323   C     0.43328   0.69994   0.57520   0.00000  Uiso   1.00
C324   C     0.52611   0.75762   0.56309   0.00000  Uiso   1.00
C325   C     0.67351   0.75282   0.56381   0.00000  Uiso   1.00
C326   C     0.73866   0.81136   0.55157   0.00000  Uiso   1.00
C327   C     0.89489   0.89160   0.53465   0.00000  Uiso   1.00
C328   C     0.31199   0.68340   0.54511   0.00000  Uiso   1.00
C329   C     0.27935   0.61619   0.53071   0.00000  Uiso   1.00
C330   C     0.16424   0.61225   0.50333   0.00000  Uiso   1.00
C331   C     0.98797   0.57725   0.45852   0.00000  Uiso   1.00
C332   C     0.36139   0.73592   0.60162   0.00000  Uiso   1.00
C333   C     0.37026   0.71285   0.63474   0.00000  Uiso   1.00
C334   C     0.29671   0.75312   0.65494   0.00000  Uiso   1.00
C335   C     0.19715   0.79967   0.69787   0.00000  Uiso   1.00
C336   C     0.28686   0.81246   0.55219   0.00000  Uiso   1.00
C337   C     0.44658   0.81873   0.55059   0.00000  Uiso   1.00
C338   C     0.51152   0.87730   0.53835   0.00000  Uiso   1.00
C339   C     0.65899   0.87258   0.53905   0.00000  Uiso   1.00
C340   C     0.23246   0.74451   0.53261   0.00000  Uiso   1.00
C341   C     0.11736   0.74067   0.50525   0.00000  Uiso   1.00
C342   C     0.08456   0.67347   0.49081   0.00000  Uiso   1.00
C343   C     0.28187   0.79703   0.58913   0.00000  Uiso   1.00
C344   C     0.20828   0.83734   0.60928   0.00000  Uiso   1.00
C345   C     0.21703   0.81434   0.64242   0.00000  Uiso   1.00
H346   H     0.49519   0.65236   0.58492   0.00000  Uiso   1.00
H347   H     0.73502   0.70551   0.57348   0.00000  Uiso   1.00
H348   H     0.34091   0.56890   0.54039   0.00000  Uiso   1.00
H349   H     0.43181   0.66556   0.64440   0.00000  Uiso   1.00
H350   H     0.96583   0.79137   0.55526   0.00000  Uiso   1.00
H351   H     0.13480   0.50332   0.48549   0.00000  Uiso   1.00
H352   H     0.32648   0.70714   0.70482   0.00000  Uiso   1.00
H353   H     0.22494   0.86003   0.54246   0.00000  Uiso   1.00
H354   H     0.44995   0.92458   0.52868   0.00000  Uiso   1.00
H355   H     0.05584   0.78797   0.49559   0.00000  Uiso   1.00
H356   H     0.14674   0.88462   0.59960   0.00000  Uiso   1.00
H357   H     0.73446   0.96918   0.51890   0.00000  Uiso   1.00
H358   H     0.90342   0.68112   0.44914   0.00000  Uiso   1.00
H359   H     0.09511   0.88494   0.66846   0.00000  Uiso   1.00
O360   O     0.00302   0.91898   0.52877   0.00000  Uiso   1.00
O361   O     0.91273   0.54106   0.43725   0.00000  Uiso   1.00
O362   O     0.16422   0.80846   0.72500   0.00000  Uiso   1.00
N363   N     0.88050   0.82437   0.54860   0.00000  Uiso   1.00
N364   N     0.10355   0.55506   0.48337   0.00000  Uiso   1.00
N365   N     0.28273   0.74560   0.68842   0.00000  Uiso   1.00
N366   N     0.75600   0.92004   0.52904   0.00000  Uiso   1.00
N367   N     0.97905   0.65073   0.46381   0.00000  Uiso   1.00
N368   N     0.15823   0.84127   0.66886   0.00000  Uiso   1.00
