data_job_04010
_audit_creation_date              2018-12-19
_audit_creation_method            'Materials Studio'
_symmetry_space_group_name_H-M    'P1'
_symmetry_Int_Tables_number       1
_symmetry_cell_setting            triclinic
loop_
_symmetry_equiv_pos_as_xyz
  x,y,z
_cell_length_a                    28.2549
_cell_length_b                    10.7574
_cell_length_c                    25.7762
_cell_angle_alpha                 90.0000
_cell_angle_beta                  157.8686
_cell_angle_gamma                 90.0000
loop_
_atom_site_label
_atom_site_type_symbol
_atom_site_fract_x
_atom_site_fract_y
_atom_site_fract_z
_atom_site_U_iso_or_equiv
_atom_site_adp_type
_atom_site_occupancy
C1     C     0.07553   0.22122   0.91273   0.00000  Uiso   1.00
C2     C     0.93606   0.24947   0.77770   0.00000  Uiso   1.00
C3     C     0.86666   0.33207   0.67743   0.00000  Uiso   1.00
C4     C     0.74027   0.34484   0.56128   0.00000  Uiso   1.00
C5     C     0.53207   0.39901   0.35396   0.00000  Uiso   1.00
C6     C     0.13626   0.24804   0.02679   0.00000  Uiso   1.00
C7     C     0.23520   0.32943   0.13595   0.00000  Uiso   1.00
C8     C     0.27735   0.34098   0.22949   0.00000  Uiso   1.00
C9     C     0.38002   0.39287   0.40894   0.00000  Uiso   1.00
C10    C     0.08502   0.08103   0.91454   0.00000  Uiso   1.00
C11    C     0.14092   0.02199   0.92936   0.00000  Uiso   1.00
C12    C     0.13996   0.89293   0.92843   0.00000  Uiso   1.00
C13    C     0.16309   0.68551   0.93360   0.00000  Uiso   1.00
C14    C     0.97447   0.09699   0.88477   0.00000  Uiso   1.00
C15    C     0.88117   0.18199   0.76252   0.00000  Uiso   1.00
C16    C     0.75484   0.19462   0.64650   0.00000  Uiso   1.00
C17    C     0.68528   0.27723   0.54606   0.00000  Uiso   1.00
C18    C     0.08137   0.18057   0.01161   0.00000  Uiso   1.00
C19    C     0.12338   0.19199   0.10502   0.00000  Uiso   1.00
C20    C     0.22236   0.27338   0.21428   0.00000  Uiso   1.00
C21    C     0.03013   0.01355   0.89935   0.00000  Uiso   1.00
C22    C     0.02909   0.88455   0.89842   0.00000  Uiso   1.00
C23    C     0.08497   0.82533   0.91322   0.00000  Uiso   1.00
H24    H     0.11827   0.27376   0.92456   0.00000  Uiso   1.00
H25    H     0.90918   0.38428   0.68922   0.00000  Uiso   1.00
H26    H     0.27767   0.38163   0.14768   0.00000  Uiso   1.00
H27    H     0.18339   0.07424   0.94111   0.00000  Uiso   1.00
H28    H     0.65317   0.47710   0.42163   0.00000  Uiso   1.00
H29    H     0.43017   0.47148   0.38834   0.00000  Uiso   1.00
H30    H     0.23138   0.82328   0.95275   0.00000  Uiso   1.00
H31    H     0.93173   0.04445   0.87296   0.00000  Uiso   1.00
H32    H     0.71239   0.14239   0.63478   0.00000  Uiso   1.00
H33    H     0.08088   0.13975   0.09324   0.00000  Uiso   1.00
H34    H     0.98661   0.83236   0.88667   0.00000  Uiso   1.00
H35    H     0.49345   0.28078   0.37745   0.00000  Uiso   1.00
H36    H     0.27046   0.27515   0.34416   0.00000  Uiso   1.00
H37    H     0.07166   0.62696   0.90857   0.00000  Uiso   1.00
O38    O     0.43240   0.44754   0.24381   0.00000  Uiso   1.00
O39    O     0.45181   0.44014   0.51211   0.00000  Uiso   1.00
O40    O     0.19099   0.58974   0.94062   0.00000  Uiso   1.00
N41    N     0.64567   0.41744   0.44391   0.00000  Uiso   1.00
N42    N     0.37211   0.41219   0.34771   0.00000  Uiso   1.00
N43    N     0.18628   0.80619   0.94051   0.00000  Uiso   1.00
N44    N     0.55973   0.31180   0.42013   0.00000  Uiso   1.00
N45    N     0.28617   0.30655   0.32394   0.00000  Uiso   1.00
N46    N     0.10034   0.70055   0.91673   0.00000  Uiso   1.00
C47    C     0.92447   0.22122   0.58727   0.00000  Uiso   1.00
C48    C     0.06394   0.24947   0.72230   0.00000  Uiso   1.00
C49    C     0.13334   0.33207   0.82257   0.00000  Uiso   1.00
C50    C     0.25973   0.34484   0.93872   0.00000  Uiso   1.00
C51    C     0.46793   0.39901   0.14604   0.00000  Uiso   1.00
C52    C     0.86374   0.24804   0.47321   0.00000  Uiso   1.00
C53    C     0.76480   0.32943   0.36405   0.00000  Uiso   1.00
C54    C     0.72265   0.34098   0.27051   0.00000  Uiso   1.00
C55    C     0.61998   0.39287   0.09106   0.00000  Uiso   1.00
C56    C     0.91498   0.08103   0.58546   0.00000  Uiso   1.00
C57    C     0.85908   0.02199   0.57064   0.00000  Uiso   1.00
C58    C     0.86004   0.89293   0.57157   0.00000  Uiso   1.00
C59    C     0.83691   0.68551   0.56640   0.00000  Uiso   1.00
C60    C     0.02553   0.09699   0.61523   0.00000  Uiso   1.00
C61    C     0.11883   0.18199   0.73748   0.00000  Uiso   1.00
C62    C     0.24516   0.19462   0.85350   0.00000  Uiso   1.00
C63    C     0.31472   0.27723   0.95394   0.00000  Uiso   1.00
C64    C     0.91863   0.18057   0.48839   0.00000  Uiso   1.00
C65    C     0.87662   0.19199   0.39498   0.00000  Uiso   1.00
C66    C     0.77764   0.27338   0.28572   0.00000  Uiso   1.00
C67    C     0.96987   0.01355   0.60065   0.00000  Uiso   1.00
C68    C     0.97091   0.88455   0.60158   0.00000  Uiso   1.00
C69    C     0.91503   0.82533   0.58678   0.00000  Uiso   1.00
H70    H     0.88173   0.27376   0.57544   0.00000  Uiso   1.00
H71    H     0.09082   0.38428   0.81078   0.00000  Uiso   1.00
H72    H     0.72233   0.38163   0.35232   0.00000  Uiso   1.00
H73    H     0.81661   0.07424   0.55889   0.00000  Uiso   1.00
H74    H     0.34683   0.47710   0.07837   0.00000  Uiso   1.00
H75    H     0.56983   0.47148   0.11166   0.00000  Uiso   1.00
H76    H     0.76862   0.82328   0.54725   0.00000  Uiso   1.00
H77    H     0.06827   0.04445   0.62704   0.00000  Uiso   1.00
H78    H     0.28761   0.14239   0.86522   0.00000  Uiso   1.00
H79    H     0.91912   0.13975   0.40676   0.00000  Uiso   1.00
H80    H     0.01339   0.83236   0.61333   0.00000  Uiso   1.00
H81    H     0.50655   0.28078   0.12255   0.00000  Uiso   1.00
H82    H     0.72954   0.27515   0.15584   0.00000  Uiso   1.00
H83    H     0.92834   0.62696   0.59143   0.00000  Uiso   1.00
O84    O     0.56760   0.44754   0.25619   0.00000  Uiso   1.00
O85    O     0.54819   0.44014   0.98789   0.00000  Uiso   1.00
O86    O     0.80901   0.58974   0.55938   0.00000  Uiso   1.00
N87    N     0.35433   0.41744   0.05609   0.00000  Uiso   1.00
N88    N     0.62789   0.41219   0.15229   0.00000  Uiso   1.00
N89    N     0.81372   0.80619   0.55949   0.00000  Uiso   1.00
N90    N     0.44027   0.31180   0.07987   0.00000  Uiso   1.00
N91    N     0.71383   0.30655   0.17606   0.00000  Uiso   1.00
N92    N     0.89966   0.70055   0.58327   0.00000  Uiso   1.00
C93    C     0.92447   0.77878   0.08727   0.00000  Uiso   1.00
C94    C     0.06394   0.75053   0.22230   0.00000  Uiso   1.00
C95    C     0.13334   0.66793   0.32257   0.00000  Uiso   1.00
C96    C     0.25973   0.65516   0.43872   0.00000  Uiso   1.00
C97    C     0.46793   0.60099   0.64604   0.00000  Uiso   1.00
C98    C     0.86374   0.75196   0.97321   0.00000  Uiso   1.00
C99    C     0.76480   0.67057   0.86405   0.00000  Uiso   1.00
C100   C     0.72265   0.65902   0.77051   0.00000  Uiso   1.00
C101   C     0.61998   0.60713   0.59106   0.00000  Uiso   1.00
C102   C     0.91498   0.91897   0.08546   0.00000  Uiso   1.00
C103   C     0.85908   0.97801   0.07064   0.00000  Uiso   1.00
C104   C     0.86004   0.10707   0.07157   0.00000  Uiso   1.00
C105   C     0.83691   0.31449   0.06640   0.00000  Uiso   1.00
C106   C     0.02553   0.90301   0.11523   0.00000  Uiso   1.00
C107   C     0.11883   0.81801   0.23748   0.00000  Uiso   1.00
C108   C     0.24516   0.80538   0.35350   0.00000  Uiso   1.00
C109   C     0.31472   0.72277   0.45394   0.00000  Uiso   1.00
C110   C     0.91863   0.81943   0.98839   0.00000  Uiso   1.00
C111   C     0.87662   0.80801   0.89498   0.00000  Uiso   1.00
C112   C     0.77764   0.72662   0.78572   0.00000  Uiso   1.00
C113   C     0.96987   0.98645   0.10065   0.00000  Uiso   1.00
C114   C     0.97091   0.11545   0.10158   0.00000  Uiso   1.00
C115   C     0.91503   0.17467   0.08678   0.00000  Uiso   1.00
H116   H     0.88173   0.72624   0.07544   0.00000  Uiso   1.00
H117   H     0.09082   0.61572   0.31078   0.00000  Uiso   1.00
H118   H     0.72233   0.61837   0.85232   0.00000  Uiso   1.00
H119   H     0.81661   0.92576   0.05889   0.00000  Uiso   1.00
H120   H     0.34683   0.52290   0.57837   0.00000  Uiso   1.00
H121   H     0.56983   0.52852   0.61166   0.00000  Uiso   1.00
H122   H     0.76862   0.17672   0.04725   0.00000  Uiso   1.00
H123   H     0.06827   0.95555   0.12704   0.00000  Uiso   1.00
H124   H     0.28761   0.85761   0.36522   0.00000  Uiso   1.00
H125   H     0.91912   0.86025   0.90676   0.00000  Uiso   1.00
H126   H     0.01339   0.16764   0.11333   0.00000  Uiso   1.00
H127   H     0.50655   0.71922   0.62255   0.00000  Uiso   1.00
H128   H     0.72954   0.72485   0.65584   0.00000  Uiso   1.00
H129   H     0.92834   0.37304   0.09143   0.00000  Uiso   1.00
O130   O     0.56760   0.55246   0.75619   0.00000  Uiso   1.00
O131   O     0.54819   0.55986   0.48789   0.00000  Uiso   1.00
O132   O     0.80901   0.41026   0.05938   0.00000  Uiso   1.00
N133   N     0.35433   0.58256   0.55609   0.00000  Uiso   1.00
N134   N     0.62789   0.58781   0.65229   0.00000  Uiso   1.00
N135   N     0.81372   0.19381   0.05949   0.00000  Uiso   1.00
N136   N     0.44027   0.68820   0.57987   0.00000  Uiso   1.00
N137   N     0.71383   0.69345   0.67606   0.00000  Uiso   1.00
N138   N     0.89966   0.29945   0.08327   0.00000  Uiso   1.00
C139   C     0.07553   0.77878   0.41273   0.00000  Uiso   1.00
C140   C     0.93606   0.75053   0.27770   0.00000  Uiso   1.00
C141   C     0.86666   0.66793   0.17743   0.00000  Uiso   1.00
C142   C     0.74027   0.65516   0.06128   0.00000  Uiso   1.00
C143   C     0.53207   0.60099   0.85396   0.00000  Uiso   1.00
C144   C     0.13626   0.75196   0.52679   0.00000  Uiso   1.00
C145   C     0.23520   0.67057   0.63595   0.00000  Uiso   1.00
C146   C     0.27735   0.65902   0.72949   0.00000  Uiso   1.00
C147   C     0.38002   0.60713   0.90894   0.00000  Uiso   1.00
C148   C     0.08502   0.91897   0.41454   0.00000  Uiso   1.00
C149   C     0.14092   0.97801   0.42936   0.00000  Uiso   1.00
C150   C     0.13996   0.10707   0.42843   0.00000  Uiso   1.00
C151   C     0.16309   0.31449   0.43360   0.00000  Uiso   1.00
C152   C     0.97447   0.90301   0.38477   0.00000  Uiso   1.00
C153   C     0.88117   0.81801   0.26252   0.00000  Uiso   1.00
C154   C     0.75484   0.80538   0.14650   0.00000  Uiso   1.00
C155   C     0.68528   0.72277   0.04606   0.00000  Uiso   1.00
C156   C     0.08137   0.81943   0.51161   0.00000  Uiso   1.00
C157   C     0.12338   0.80801   0.60502   0.00000  Uiso   1.00
C158   C     0.22236   0.72662   0.71428   0.00000  Uiso   1.00
C159   C     0.03013   0.98645   0.39935   0.00000  Uiso   1.00
C160   C     0.02909   0.11545   0.39842   0.00000  Uiso   1.00
C161   C     0.08497   0.17467   0.41322   0.00000  Uiso   1.00
H162   H     0.11827   0.72624   0.42456   0.00000  Uiso   1.00
H163   H     0.90918   0.61572   0.18922   0.00000  Uiso   1.00
H164   H     0.27767   0.61837   0.64768   0.00000  Uiso   1.00
H165   H     0.18339   0.92576   0.44111   0.00000  Uiso   1.00
H166   H     0.65317   0.52290   0.92163   0.00000  Uiso   1.00
H167   H     0.43017   0.52852   0.88834   0.00000  Uiso   1.00
H168   H     0.23138   0.17672   0.45275   0.00000  Uiso   1.00
H169   H     0.93173   0.95555   0.37296   0.00000  Uiso   1.00
H170   H     0.71239   0.85761   0.13478   0.00000  Uiso   1.00
H171   H     0.08088   0.86025   0.59324   0.00000  Uiso   1.00
H172   H     0.98661   0.16764   0.38667   0.00000  Uiso   1.00
H173   H     0.49345   0.71922   0.87745   0.00000  Uiso   1.00
H174   H     0.27046   0.72485   0.84416   0.00000  Uiso   1.00
H175   H     0.07166   0.37304   0.40857   0.00000  Uiso   1.00
O176   O     0.43240   0.55246   0.74381   0.00000  Uiso   1.00
O177   O     0.45181   0.55986   0.01211   0.00000  Uiso   1.00
O178   O     0.19099   0.41026   0.44062   0.00000  Uiso   1.00
N179   N     0.64567   0.58256   0.94391   0.00000  Uiso   1.00
N180   N     0.37211   0.58781   0.84771   0.00000  Uiso   1.00
N181   N     0.18628   0.19381   0.44051   0.00000  Uiso   1.00
N182   N     0.55973   0.68820   0.92013   0.00000  Uiso   1.00
N183   N     0.28617   0.69345   0.82394   0.00000  Uiso   1.00
N184   N     0.10034   0.29945   0.41673   0.00000  Uiso   1.00
