data_job_06322
_audit_creation_date              2018-12-19
_audit_creation_method            'Materials Studio'
_symmetry_space_group_name_H-M    'P1'
_symmetry_Int_Tables_number       1
_symmetry_cell_setting            triclinic
loop_
_symmetry_equiv_pos_as_xyz
  x,y,z
_cell_length_a                    15.8880
_cell_length_b                    16.4974
_cell_length_c                    16.5585
_cell_angle_alpha                 110.0578
_cell_angle_beta                  109.5950
_cell_angle_gamma                 106.1495
loop_
_atom_site_label
_atom_site_type_symbol
_atom_site_fract_x
_atom_site_fract_y
_atom_site_fract_z
_atom_site_U_iso_or_equiv
_atom_site_adp_type
_atom_site_occupancy
C1     C     0.28004   0.88698   0.54545   0.00000  Uiso   1.00
C2     C     0.19733   0.90433   0.56412   0.00000  Uiso   1.00
C3     C     0.20082   0.94226   0.65471   0.00000  Uiso   1.00
C4     C     0.11749   0.95247   0.65638   0.00000  Uiso   1.00
C5     C     0.00177   0.98344   0.69843   0.00000  Uiso   1.00
C6     C     0.23316   0.78053   0.47138   0.00000  Uiso   1.00
C7     C     0.26679   0.71438   0.48399   0.00000  Uiso   1.00
C8     C     0.21362   0.62037   0.40758   0.00000  Uiso   1.00
C9     C     0.15358   0.45915   0.30562   0.00000  Uiso   1.00
C10    C     0.30396   0.94229   0.49250   0.00000  Uiso   1.00
C11    C     0.39713   0.01212   0.52285   0.00000  Uiso   1.00
C12    C     0.40358   0.05430   0.46421   0.00000  Uiso   1.00
C13    C     0.45347   0.14423   0.39503   0.00000  Uiso   1.00
C14    C     0.12584   0.83768   0.38732   0.00000  Uiso   1.00
C15    C     0.11357   0.87755   0.47823   0.00000  Uiso   1.00
C16    C     0.03021   0.88771   0.47976   0.00000  Uiso   1.00
C17    C     0.03358   0.92565   0.57034   0.00000  Uiso   1.00
C18    C     0.14941   0.75375   0.38549   0.00000  Uiso   1.00
C19    C     0.09618   0.65982   0.30904   0.00000  Uiso   1.00
C20    C     0.12971   0.59354   0.32154   0.00000  Uiso   1.00
C21    C     0.22020   0.91551   0.40660   0.00000  Uiso   1.00
C22    C     0.22652   0.95757   0.34790   0.00000  Uiso   1.00
C23    C     0.31967   0.02747   0.37816   0.00000  Uiso   1.00
H24    H     0.34525   0.90783   0.61232   0.00000  Uiso   1.00
H25    H     0.26565   0.96297   0.72116   0.00000  Uiso   1.00
H26    H     0.33161   0.73512   0.55046   0.00000  Uiso   1.00
H27    H     0.46192   0.03283   0.58932   0.00000  Uiso   1.00
H28    H     0.14044   0.01226   0.80396   0.00000  Uiso   1.00
H29    H     0.27955   0.53184   0.44402   0.00000  Uiso   1.00
H30    H     0.55435   0.15961   0.52595   0.00000  Uiso   1.00
H31    H     0.06063   0.81682   0.32045   0.00000  Uiso   1.00
H32    H     0.96541   0.86698   0.41328   0.00000  Uiso   1.00
H33    H     0.03137   0.63913   0.24258   0.00000  Uiso   1.00
H34    H     0.16169   0.93683   0.28144   0.00000  Uiso   1.00
H35    H     0.89676   0.93434   0.55407   0.00000  Uiso   1.00
H36    H     0.03587   0.45393   0.19413   0.00000  Uiso   1.00
H37    H     0.31066   0.08170   0.27606   0.00000  Uiso   1.00
O38    O     0.96108   0.00790   0.74534   0.00000  Uiso   1.00
O39    O     0.14360   0.37762   0.27311   0.00000  Uiso   1.00
O40    O     0.50412   0.20124   0.38061   0.00000  Uiso   1.00
N41    N     0.09617   0.98706   0.73241   0.00000  Uiso   1.00
N42    N     0.22622   0.53789   0.39589   0.00000  Uiso   1.00
N43    N     0.48313   0.12479   0.47248   0.00000  Uiso   1.00
N44    N     0.96504   0.94513   0.59794   0.00000  Uiso   1.00
N45    N     0.09509   0.49597   0.26143   0.00000  Uiso   1.00
N46    N     0.35200   0.08286   0.33802   0.00000  Uiso   1.00
C47    C     0.28172   0.61949   0.73272   0.00000  Uiso   1.00
C48    C     0.37676   0.71217   0.80906   0.00000  Uiso   1.00
C49    C     0.46357   0.74359   0.80244   0.00000  Uiso   1.00
C50    C     0.54230   0.83033   0.87999   0.00000  Uiso   1.00
C51    C     0.69108   0.96611   0.98620   0.00000  Uiso   1.00
C52    C     0.25999   0.56384   0.78604   0.00000  Uiso   1.00
C53    C     0.24863   0.47054   0.76005   0.00000  Uiso   1.00
C54    C     0.22905   0.43241   0.81822   0.00000  Uiso   1.00
C55    C     0.19649   0.33787   0.88864   0.00000  Uiso   1.00
C56    C     0.19841   0.64973   0.70551   0.00000  Uiso   1.00
C57    C     0.13525   0.62862   0.61182   0.00000  Uiso   1.00
C58    C     0.06380   0.66278   0.60218   0.00000  Uiso   1.00
C59    C     0.93563   0.70161   0.54757   0.00000  Uiso   1.00
C60    C     0.26713   0.71767   0.88221   0.00000  Uiso   1.00
C61    C     0.36883   0.76550   0.89026   0.00000  Uiso   1.00
C62    C     0.44744   0.85222   0.96783   0.00000  Uiso   1.00
C63    C     0.53436   0.88376   0.96133   0.00000  Uiso   1.00
C64    C     0.25207   0.61717   0.86723   0.00000  Uiso   1.00
C65    C     0.23249   0.57916   0.92544   0.00000  Uiso   1.00
C66    C     0.22111   0.48583   0.89956   0.00000  Uiso   1.00
C67    C     0.19049   0.70306   0.78671   0.00000  Uiso   1.00
C68    C     0.11912   0.73726   0.77721   0.00000  Uiso   1.00
C69    C     0.05586   0.71621   0.68352   0.00000  Uiso   1.00
H70    H     0.28788   0.57796   0.66951   0.00000  Uiso   1.00
H71    H     0.46968   0.70229   0.73960   0.00000  Uiso   1.00
H72    H     0.25475   0.42928   0.69721   0.00000  Uiso   1.00
H73    H     0.14140   0.58735   0.54900   0.00000  Uiso   1.00
H74    H     0.66775   0.86363   0.85313   0.00000  Uiso   1.00
H75    H     0.21454   0.28796   0.76374   0.00000  Uiso   1.00
H76    H     0.97550   0.62127   0.45120   0.00000  Uiso   1.00
H77    H     0.26096   0.75919   0.94542   0.00000  Uiso   1.00
H78    H     0.44129   0.89347   0.03066   0.00000  Uiso   1.00
H79    H     0.22636   0.62045   0.98827   0.00000  Uiso   1.00
H80    H     0.11301   0.77852   0.84006   0.00000  Uiso   1.00
H81    H     0.64471   0.01880   0.08937   0.00000  Uiso   1.00
H82    H     0.19149   0.44312   0.99997   0.00000  Uiso   1.00
H83    H     0.95246   0.77644   0.68744   0.00000  Uiso   1.00
O84    O     0.77535   0.02626   0.02236   0.00000  Uiso   1.00
O85    O     0.18073   0.27100   0.90506   0.00000  Uiso   1.00
O86    O     0.86713   0.70830   0.49502   0.00000  Uiso   1.00
N87    N     0.63757   0.88173   0.89702   0.00000  Uiso   1.00
N88    N     0.21386   0.34352   0.81345   0.00000  Uiso   1.00
N89    N     0.99037   0.65512   0.52126   0.00000  Uiso   1.00
N90    N     0.62518   0.96523   0.02414   0.00000  Uiso   1.00
N91    N     0.20146   0.42701   0.94057   0.00000  Uiso   1.00
N92    N     0.97797   0.73861   0.64837   0.00000  Uiso   1.00
C93    C     0.46135   0.34523   0.72965   0.00000  Uiso   1.00
C94    C     0.44178   0.34334   0.63219   0.00000  Uiso   1.00
C95    C     0.35023   0.29246   0.54780   0.00000  Uiso   1.00
C96    C     0.34784   0.30009   0.46620   0.00000  Uiso   1.00
C97    C     0.30435   0.28853   0.31444   0.00000  Uiso   1.00
C98    C     0.54301   0.31262   0.75482   0.00000  Uiso   1.00
C99    C     0.53658   0.23592   0.77354   0.00000  Uiso   1.00
C100   C     0.61941   0.21772   0.79519   0.00000  Uiso   1.00
C101   C     0.73312   0.15852   0.83388   0.00000  Uiso   1.00
C102   C     0.50791   0.45101   0.80548   0.00000  Uiso   1.00
C103   C     0.47199   0.49067   0.86681   0.00000  Uiso   1.00
C104   C     0.52528   0.58897   0.93113   0.00000  Uiso   1.00
C105   C     0.58449   0.74463   0.04847   0.00000  Uiso   1.00
C106   C     0.61989   0.44928   0.73483   0.00000  Uiso   1.00
C107   C     0.52789   0.39986   0.63501   0.00000  Uiso   1.00
C108   C     0.52563   0.40759   0.55352   0.00000  Uiso   1.00
C109   C     0.43410   0.35672   0.46902   0.00000  Uiso   1.00
C110   C     0.62912   0.36914   0.75763   0.00000  Uiso   1.00
C111   C     0.71198   0.35105   0.77927   0.00000  Uiso   1.00
C112   C     0.70568   0.27434   0.79801   0.00000  Uiso   1.00
C113   C     0.59402   0.50754   0.80829   0.00000  Uiso   1.00
C114   C     0.64739   0.60580   0.87253   0.00000  Uiso   1.00
C115   C     0.61155   0.64560   0.93395   0.00000  Uiso   1.00
H116   H     0.39432   0.30122   0.72746   0.00000  Uiso   1.00
H117   H     0.28361   0.24871   0.54565   0.00000  Uiso   1.00
H118   H     0.46994   0.19220   0.77137   0.00000  Uiso   1.00
H119   H     0.40535   0.44690   0.86462   0.00000  Uiso   1.00
H120   H     0.19886   0.21540   0.34530   0.00000  Uiso   1.00
H121   H     0.59175   0.09626   0.82128   0.00000  Uiso   1.00
H122   H     0.45555   0.63335   0.01792   0.00000  Uiso   1.00
H123   H     0.68693   0.49329   0.73701   0.00000  Uiso   1.00
H124   H     0.59228   0.45133   0.55572   0.00000  Uiso   1.00
H125   H     0.77861   0.39481   0.78144   0.00000  Uiso   1.00
H126   H     0.71402   0.64951   0.87469   0.00000  Uiso   1.00
H127   H     0.44939   0.37985   0.35347   0.00000  Uiso   1.00
H128   H     0.84228   0.26071   0.82946   0.00000  Uiso   1.00
H129   H     0.70608   0.79780   0.02609   0.00000  Uiso   1.00
O130   O     0.25659   0.26653   0.22994   0.00000  Uiso   1.00
O131   O     0.77205   0.11024   0.85443   0.00000  Uiso   1.00
O132   O     0.59336   0.81488   0.11240   0.00000  Uiso   1.00
N133   N     0.27081   0.25988   0.37211   0.00000  Uiso   1.00
N134   N     0.63813   0.14848   0.81711   0.00000  Uiso   1.00
N135   N     0.51081   0.65061   0.00096   0.00000  Uiso   1.00
N136   N     0.40561   0.34837   0.37651   0.00000  Uiso   1.00
N137   N     0.77293   0.23697   0.82151   0.00000  Uiso   1.00
N138   N     0.64562   0.73910   0.00536   0.00000  Uiso   1.00
C139   C     0.71996   0.11302   0.45455   0.00000  Uiso   1.00
C140   C     0.80267   0.09567   0.43588   0.00000  Uiso   1.00
C141   C     0.79918   0.05774   0.34529   0.00000  Uiso   1.00
C142   C     0.88252   0.04753   0.34362   0.00000  Uiso   1.00
C143   C     0.99823   0.01656   0.30158   0.00000  Uiso   1.00
C144   C     0.76684   0.21947   0.52862   0.00000  Uiso   1.00
C145   C     0.73321   0.28562   0.51601   0.00000  Uiso   1.00
C146   C     0.78638   0.37963   0.59242   0.00000  Uiso   1.00
C147   C     0.84642   0.54085   0.69438   0.00000  Uiso   1.00
C148   C     0.69604   0.05771   0.50750   0.00000  Uiso   1.00
C149   C     0.60287   0.98788   0.47715   0.00000  Uiso   1.00
C150   C     0.59642   0.94570   0.53579   0.00000  Uiso   1.00
C151   C     0.54653   0.85577   0.60497   0.00000  Uiso   1.00
C152   C     0.87416   0.16232   0.61268   0.00000  Uiso   1.00
C153   C     0.88643   0.12245   0.52177   0.00000  Uiso   1.00
C154   C     0.96979   0.11229   0.52024   0.00000  Uiso   1.00
C155   C     0.96642   0.07435   0.42966   0.00000  Uiso   1.00
C156   C     0.85059   0.24625   0.61451   0.00000  Uiso   1.00
C157   C     0.90382   0.34018   0.69096   0.00000  Uiso   1.00
C158   C     0.87029   0.40646   0.67846   0.00000  Uiso   1.00
C159   C     0.77980   0.08449   0.59340   0.00000  Uiso   1.00
C160   C     0.77348   0.04243   0.65210   0.00000  Uiso   1.00
C161   C     0.68033   0.97254   0.62184   0.00000  Uiso   1.00
H162   H     0.65475   0.09217   0.38768   0.00000  Uiso   1.00
H163   H     0.73435   0.03703   0.27884   0.00000  Uiso   1.00
H164   H     0.66839   0.26488   0.44954   0.00000  Uiso   1.00
H165   H     0.53808   0.96717   0.41068   0.00000  Uiso   1.00
H166   H     0.85956   0.98774   0.19605   0.00000  Uiso   1.00
H167   H     0.72045   0.46816   0.55599   0.00000  Uiso   1.00
H168   H     0.44565   0.84039   0.47405   0.00000  Uiso   1.00
H169   H     0.93937   0.18318   0.67955   0.00000  Uiso   1.00
H170   H     0.03459   0.13302   0.58672   0.00000  Uiso   1.00
H171   H     0.96863   0.36087   0.75742   0.00000  Uiso   1.00
H172   H     0.83831   0.06317   0.71856   0.00000  Uiso   1.00
H173   H     0.10324   0.06566   0.44593   0.00000  Uiso   1.00
H174   H     0.96413   0.54607   0.80587   0.00000  Uiso   1.00
H175   H     0.68934   0.91830   0.72394   0.00000  Uiso   1.00
O176   O     0.03892   0.99210   0.25466   0.00000  Uiso   1.00
O177   O     0.85640   0.62238   0.72689   0.00000  Uiso   1.00
O178   O     0.49588   0.79876   0.61939   0.00000  Uiso   1.00
N179   N     0.90383   0.01294   0.26759   0.00000  Uiso   1.00
N180   N     0.77379   0.46211   0.60411   0.00000  Uiso   1.00
N181   N     0.51687   0.87521   0.52752   0.00000  Uiso   1.00
N182   N     0.03496   0.05487   0.40206   0.00000  Uiso   1.00
N183   N     0.90491   0.50403   0.73857   0.00000  Uiso   1.00
N184   N     0.64800   0.91714   0.66198   0.00000  Uiso   1.00
C185   C     0.71828   0.38051   0.26728   0.00000  Uiso   1.00
C186   C     0.62324   0.28783   0.19094   0.00000  Uiso   1.00
C187   C     0.53643   0.25641   0.19756   0.00000  Uiso   1.00
C188   C     0.45770   0.16967   0.12001   0.00000  Uiso   1.00
C189   C     0.30892   0.03389   0.01380   0.00000  Uiso   1.00
C190   C     0.74001   0.43616   0.21396   0.00000  Uiso   1.00
C191   C     0.75137   0.52947   0.23995   0.00000  Uiso   1.00
C192   C     0.77095   0.56759   0.18178   0.00000  Uiso   1.00
C193   C     0.80351   0.66213   0.11136   0.00000  Uiso   1.00
C194   C     0.80159   0.35027   0.29449   0.00000  Uiso   1.00
C195   C     0.86475   0.37138   0.38818   0.00000  Uiso   1.00
C196   C     0.93620   0.33722   0.39782   0.00000  Uiso   1.00
C197   C     0.06437   0.29839   0.45243   0.00000  Uiso   1.00
C198   C     0.73287   0.28233   0.11779   0.00000  Uiso   1.00
C199   C     0.63117   0.23450   0.10974   0.00000  Uiso   1.00
C200   C     0.55256   0.14778   0.03217   0.00000  Uiso   1.00
C201   C     0.46564   0.11624   0.03867   0.00000  Uiso   1.00
C202   C     0.74793   0.38283   0.13277   0.00000  Uiso   1.00
C203   C     0.76751   0.42084   0.07456   0.00000  Uiso   1.00
C204   C     0.77889   0.51417   0.10044   0.00000  Uiso   1.00
C205   C     0.80951   0.29694   0.21329   0.00000  Uiso   1.00
C206   C     0.88088   0.26274   0.22279   0.00000  Uiso   1.00
C207   C     0.94414   0.28379   0.31648   0.00000  Uiso   1.00
H208   H     0.71212   0.42204   0.33049   0.00000  Uiso   1.00
H209   H     0.53032   0.29771   0.26040   0.00000  Uiso   1.00
H210   H     0.74525   0.57072   0.30279   0.00000  Uiso   1.00
H211   H     0.85860   0.41265   0.45100   0.00000  Uiso   1.00
H212   H     0.33225   0.13637   0.14687   0.00000  Uiso   1.00
H213   H     0.78546   0.71204   0.23626   0.00000  Uiso   1.00
H214   H     0.02450   0.37873   0.54880   0.00000  Uiso   1.00
H215   H     0.73904   0.24081   0.05458   0.00000  Uiso   1.00
H216   H     0.55871   0.10653   0.96934   0.00000  Uiso   1.00
H217   H     0.77364   0.37955   0.01173   0.00000  Uiso   1.00
H218   H     0.88699   0.22148   0.15994   0.00000  Uiso   1.00
H219   H     0.35529   0.98120   0.91063   0.00000  Uiso   1.00
H220   H     0.80851   0.55688   0.00003   0.00000  Uiso   1.00
H221   H     0.04754   0.22356   0.31256   0.00000  Uiso   1.00
O222   O     0.22465   0.97374   0.97764   0.00000  Uiso   1.00
O223   O     0.81927   0.72900   0.09494   0.00000  Uiso   1.00
O224   O     0.13287   0.29170   0.50498   0.00000  Uiso   1.00
N225   N     0.36243   0.11827   0.10298   0.00000  Uiso   1.00
N226   N     0.78614   0.65648   0.18655   0.00000  Uiso   1.00
N227   N     0.00963   0.34488   0.47874   0.00000  Uiso   1.00
N228   N     0.37482   0.03477   0.97586   0.00000  Uiso   1.00
N229   N     0.79854   0.57299   0.05943   0.00000  Uiso   1.00
N230   N     0.02203   0.26139   0.35163   0.00000  Uiso   1.00
C231   C     0.53865   0.65477   0.27035   0.00000  Uiso   1.00
C232   C     0.55822   0.65666   0.36781   0.00000  Uiso   1.00
C233   C     0.64977   0.70755   0.45220   0.00000  Uiso   1.00
C234   C     0.65216   0.69991   0.53380   0.00000  Uiso   1.00
C235   C     0.69565   0.71147   0.68556   0.00000  Uiso   1.00
C236   C     0.45699   0.68738   0.24518   0.00000  Uiso   1.00
C237   C     0.46342   0.76408   0.22646   0.00000  Uiso   1.00
C238   C     0.38059   0.78228   0.20481   0.00000  Uiso   1.00
C239   C     0.26688   0.84148   0.16612   0.00000  Uiso   1.00
C240   C     0.49209   0.54899   0.19452   0.00000  Uiso   1.00
C241   C     0.52801   0.50933   0.13319   0.00000  Uiso   1.00
C242   C     0.47472   0.41103   0.06887   0.00000  Uiso   1.00
C243   C     0.41551   0.25537   0.95153   0.00000  Uiso   1.00
C244   C     0.38011   0.55072   0.26518   0.00000  Uiso   1.00
C245   C     0.47211   0.60014   0.36500   0.00000  Uiso   1.00
C246   C     0.47437   0.59241   0.44648   0.00000  Uiso   1.00
C247   C     0.56590   0.64328   0.53098   0.00000  Uiso   1.00
C248   C     0.37088   0.63086   0.24237   0.00000  Uiso   1.00
C249   C     0.28802   0.64895   0.22073   0.00000  Uiso   1.00
C250   C     0.29432   0.72566   0.20199   0.00000  Uiso   1.00
C251   C     0.40598   0.49247   0.19171   0.00000  Uiso   1.00
C252   C     0.35262   0.39420   0.12747   0.00000  Uiso   1.00
C253   C     0.38845   0.35441   0.06605   0.00000  Uiso   1.00
H254   H     0.60568   0.69878   0.27254   0.00000  Uiso   1.00
H255   H     0.71639   0.75129   0.45435   0.00000  Uiso   1.00
H256   H     0.53006   0.80780   0.22863   0.00000  Uiso   1.00
H257   H     0.59465   0.55310   0.13538   0.00000  Uiso   1.00
H258   H     0.80114   0.78460   0.65470   0.00000  Uiso   1.00
H259   H     0.40825   0.90374   0.17872   0.00000  Uiso   1.00
H260   H     0.54445   0.36665   0.98208   0.00000  Uiso   1.00
H261   H     0.31307   0.50671   0.26299   0.00000  Uiso   1.00
H262   H     0.40772   0.54867   0.44428   0.00000  Uiso   1.00
H263   H     0.22139   0.60519   0.21856   0.00000  Uiso   1.00
H264   H     0.28598   0.35049   0.12531   0.00000  Uiso   1.00
H265   H     0.55061   0.62015   0.64653   0.00000  Uiso   1.00
H266   H     0.15772   0.73929   0.17054   0.00000  Uiso   1.00
H267   H     0.29392   0.20220   0.97391   0.00000  Uiso   1.00
O268   O     0.74341   0.73347   0.77006   0.00000  Uiso   1.00
O269   O     0.22795   0.88976   0.14557   0.00000  Uiso   1.00
O270   O     0.40664   0.18512   0.88760   0.00000  Uiso   1.00
N271   N     0.72919   0.74012   0.62789   0.00000  Uiso   1.00
N272   N     0.36187   0.85152   0.18289   0.00000  Uiso   1.00
N273   N     0.48919   0.34939   0.99904   0.00000  Uiso   1.00
N274   N     0.59439   0.65163   0.62349   0.00000  Uiso   1.00
N275   N     0.22707   0.76303   0.17849   0.00000  Uiso   1.00
N276   N     0.35438   0.26090   0.99464   0.00000  Uiso   1.00
