data_job_04166
_audit_creation_date              2018-12-19
_audit_creation_method            'Materials Studio'
_symmetry_space_group_name_H-M    'P1'
_symmetry_Int_Tables_number       1
_symmetry_cell_setting            triclinic
loop_
_symmetry_equiv_pos_as_xyz
  x,y,z
_cell_length_a                    20.2504
_cell_length_b                    10.9160
_cell_length_c                    36.5738
_cell_angle_alpha                 90.0000
_cell_angle_beta                  38.8639
_cell_angle_gamma                 90.0000
loop_
_atom_site_label
_atom_site_type_symbol
_atom_site_fract_x
_atom_site_fract_y
_atom_site_fract_z
_atom_site_U_iso_or_equiv
_atom_site_adp_type
_atom_site_occupancy
C1     C     0.73514   0.32623   0.74147   0.00000  Uiso   1.00
C2     C     0.65126   0.41702   0.76519   0.00000  Uiso   1.00
C3     C     0.66486   0.54254   0.75558   0.00000  Uiso   1.00
C4     C     0.57846   0.60975   0.78110   0.00000  Uiso   1.00
C5     C     0.46287   0.75931   0.81280   0.00000  Uiso   1.00
C6     C     0.68899   0.25987   0.79436   0.00000  Uiso   1.00
C7     C     0.73434   0.25324   0.80928   0.00000  Uiso   1.00
C8     C     0.67971   0.18815   0.85936   0.00000  Uiso   1.00
C9     C     0.62274   0.09365   0.93633   0.00000  Uiso   1.00
C10    C     0.74345   0.23066   0.70762   0.00000  Uiso   1.00
C11    C     0.83458   0.19944   0.64960   0.00000  Uiso   1.00
C12    C     0.82580   0.10973   0.62665   0.00000  Uiso   1.00
C13    C     0.85338   0.96987   0.56893   0.00000  Uiso   1.00
C14    C     0.55752   0.22240   0.80386   0.00000  Uiso   1.00
C15    C     0.55478   0.36062   0.79908   0.00000  Uiso   1.00
C16    C     0.46834   0.42766   0.82462   0.00000  Uiso   1.00
C17    C     0.48181   0.55326   0.81505   0.00000  Uiso   1.00
C18    C     0.59252   0.20347   0.82825   0.00000  Uiso   1.00
C19    C     0.53782   0.13837   0.87832   0.00000  Uiso   1.00
C20    C     0.58306   0.13165   0.89331   0.00000  Uiso   1.00
C21    C     0.64697   0.17426   0.74151   0.00000  Uiso   1.00
C22    C     0.63805   0.08457   0.71864   0.00000  Uiso   1.00
C23    C     0.72915   0.05323   0.66060   0.00000  Uiso   1.00
H24    H     0.81025   0.37014   0.71508   0.00000  Uiso   1.00
H25    H     0.73953   0.58615   0.72935   0.00000  Uiso   1.00
H26    H     0.80900   0.29689   0.78304   0.00000  Uiso   1.00
H27    H     0.90922   0.24310   0.62339   0.00000  Uiso   1.00
H28    H     0.61857   0.80078   0.76014   0.00000  Uiso   1.00
H29    H     0.76506   0.19082   0.87333   0.00000  Uiso   1.00
H30    H     0.97640   0.07739   0.53667   0.00000  Uiso   1.00
H31    H     0.48240   0.17849   0.83025   0.00000  Uiso   1.00
H32    H     0.39369   0.38399   0.85084   0.00000  Uiso   1.00
H33    H     0.46316   0.09473   0.90453   0.00000  Uiso   1.00
H34    H     0.56338   0.04094   0.74488   0.00000  Uiso   1.00
H35    H     0.33787   0.63670   0.85875   0.00000  Uiso   1.00
H36    H     0.48437   0.02673   0.97194   0.00000  Uiso   1.00
H37    H     0.69570   0.91331   0.63528   0.00000  Uiso   1.00
O38    O     0.42576   0.85739   0.82092   0.00000  Uiso   1.00
O39    O     0.61797   0.05713   0.96943   0.00000  Uiso   1.00
O40    O     0.89524   0.90832   0.52774   0.00000  Uiso   1.00
N41    N     0.56468   0.73396   0.78051   0.00000  Uiso   1.00
N42    N     0.70164   0.16370   0.88635   0.00000  Uiso   1.00
N43    N     0.89923   0.05763   0.57160   0.00000  Uiso   1.00
N44    N     0.41364   0.64567   0.83357   0.00000  Uiso   1.00
N45    N     0.55060   0.07541   0.93941   0.00000  Uiso   1.00
N46    N     0.74819   0.96934   0.62466   0.00000  Uiso   1.00
C47    C     0.26486   0.32623   0.75853   0.00000  Uiso   1.00
C48    C     0.34874   0.41702   0.73481   0.00000  Uiso   1.00
C49    C     0.33514   0.54254   0.74442   0.00000  Uiso   1.00
C50    C     0.42154   0.60975   0.71890   0.00000  Uiso   1.00
C51    C     0.53713   0.75931   0.68720   0.00000  Uiso   1.00
C52    C     0.31101   0.25987   0.70564   0.00000  Uiso   1.00
C53    C     0.26566   0.25324   0.69072   0.00000  Uiso   1.00
C54    C     0.32029   0.18815   0.64064   0.00000  Uiso   1.00
C55    C     0.37726   0.09365   0.56367   0.00000  Uiso   1.00
C56    C     0.25655   0.23066   0.79238   0.00000  Uiso   1.00
C57    C     0.16542   0.19944   0.85040   0.00000  Uiso   1.00
C58    C     0.17420   0.10973   0.87335   0.00000  Uiso   1.00
C59    C     0.14662   0.96987   0.93107   0.00000  Uiso   1.00
C60    C     0.44248   0.22240   0.69614   0.00000  Uiso   1.00
C61    C     0.44522   0.36062   0.70092   0.00000  Uiso   1.00
C62    C     0.53166   0.42766   0.67538   0.00000  Uiso   1.00
C63    C     0.51819   0.55326   0.68495   0.00000  Uiso   1.00
C64    C     0.40748   0.20347   0.67175   0.00000  Uiso   1.00
C65    C     0.46218   0.13837   0.62168   0.00000  Uiso   1.00
C66    C     0.41694   0.13165   0.60669   0.00000  Uiso   1.00
C67    C     0.35303   0.17426   0.75849   0.00000  Uiso   1.00
C68    C     0.36195   0.08457   0.78136   0.00000  Uiso   1.00
C69    C     0.27085   0.05323   0.83940   0.00000  Uiso   1.00
H70    H     0.18975   0.37014   0.78492   0.00000  Uiso   1.00
H71    H     0.26047   0.58615   0.77065   0.00000  Uiso   1.00
H72    H     0.19100   0.29689   0.71696   0.00000  Uiso   1.00
H73    H     0.09078   0.24310   0.87661   0.00000  Uiso   1.00
H74    H     0.38143   0.80078   0.73986   0.00000  Uiso   1.00
H75    H     0.23494   0.19082   0.62667   0.00000  Uiso   1.00
H76    H     0.02360   0.07739   0.96333   0.00000  Uiso   1.00
H77    H     0.51760   0.17849   0.66975   0.00000  Uiso   1.00
H78    H     0.60631   0.38399   0.64916   0.00000  Uiso   1.00
H79    H     0.53684   0.09473   0.59547   0.00000  Uiso   1.00
H80    H     0.43662   0.04094   0.75512   0.00000  Uiso   1.00
H81    H     0.66213   0.63670   0.64125   0.00000  Uiso   1.00
H82    H     0.51563   0.02673   0.52806   0.00000  Uiso   1.00
H83    H     0.30430   0.91331   0.86472   0.00000  Uiso   1.00
O84    O     0.57424   0.85739   0.67908   0.00000  Uiso   1.00
O85    O     0.38203   0.05713   0.53057   0.00000  Uiso   1.00
O86    O     0.10476   0.90832   0.97226   0.00000  Uiso   1.00
N87    N     0.43532   0.73396   0.71949   0.00000  Uiso   1.00
N88    N     0.29836   0.16370   0.61365   0.00000  Uiso   1.00
N89    N     0.10077   0.05763   0.92840   0.00000  Uiso   1.00
N90    N     0.58636   0.64567   0.66643   0.00000  Uiso   1.00
N91    N     0.44940   0.07541   0.56059   0.00000  Uiso   1.00
N92    N     0.25181   0.96934   0.87534   0.00000  Uiso   1.00
C93    C     0.26486   0.67377   0.25853   0.00000  Uiso   1.00
C94    C     0.34874   0.58298   0.23481   0.00000  Uiso   1.00
C95    C     0.33514   0.45746   0.24442   0.00000  Uiso   1.00
C96    C     0.42154   0.39025   0.21890   0.00000  Uiso   1.00
C97    C     0.53713   0.24069   0.18720   0.00000  Uiso   1.00
C98    C     0.31101   0.74013   0.20564   0.00000  Uiso   1.00
C99    C     0.26566   0.74676   0.19072   0.00000  Uiso   1.00
C100   C     0.32029   0.81185   0.14064   0.00000  Uiso   1.00
C101   C     0.37726   0.90635   0.06367   0.00000  Uiso   1.00
C102   C     0.25655   0.76934   0.29238   0.00000  Uiso   1.00
C103   C     0.16542   0.80056   0.35040   0.00000  Uiso   1.00
C104   C     0.17420   0.89027   0.37335   0.00000  Uiso   1.00
C105   C     0.14662   0.03013   0.43107   0.00000  Uiso   1.00
C106   C     0.44248   0.77760   0.19614   0.00000  Uiso   1.00
C107   C     0.44522   0.63938   0.20092   0.00000  Uiso   1.00
C108   C     0.53166   0.57234   0.17538   0.00000  Uiso   1.00
C109   C     0.51819   0.44674   0.18495   0.00000  Uiso   1.00
C110   C     0.40748   0.79653   0.17175   0.00000  Uiso   1.00
C111   C     0.46218   0.86163   0.12168   0.00000  Uiso   1.00
C112   C     0.41694   0.86835   0.10669   0.00000  Uiso   1.00
C113   C     0.35303   0.82574   0.25849   0.00000  Uiso   1.00
C114   C     0.36195   0.91543   0.28136   0.00000  Uiso   1.00
C115   C     0.27085   0.94677   0.33940   0.00000  Uiso   1.00
H116   H     0.18975   0.62986   0.28492   0.00000  Uiso   1.00
H117   H     0.26047   0.41385   0.27065   0.00000  Uiso   1.00
H118   H     0.19100   0.70311   0.21696   0.00000  Uiso   1.00
H119   H     0.09078   0.75690   0.37661   0.00000  Uiso   1.00
H120   H     0.38143   0.19922   0.23986   0.00000  Uiso   1.00
H121   H     0.23494   0.80918   0.12667   0.00000  Uiso   1.00
H122   H     0.02360   0.92261   0.46333   0.00000  Uiso   1.00
H123   H     0.51760   0.82151   0.16975   0.00000  Uiso   1.00
H124   H     0.60631   0.61601   0.14916   0.00000  Uiso   1.00
H125   H     0.53684   0.90527   0.09547   0.00000  Uiso   1.00
H126   H     0.43662   0.95906   0.25512   0.00000  Uiso   1.00
H127   H     0.66213   0.36330   0.14125   0.00000  Uiso   1.00
H128   H     0.51563   0.97327   0.02806   0.00000  Uiso   1.00
H129   H     0.30430   0.08669   0.36472   0.00000  Uiso   1.00
O130   O     0.57424   0.14261   0.17908   0.00000  Uiso   1.00
O131   O     0.38203   0.94287   0.03057   0.00000  Uiso   1.00
O132   O     0.10476   0.09168   0.47226   0.00000  Uiso   1.00
N133   N     0.43532   0.26604   0.21949   0.00000  Uiso   1.00
N134   N     0.29836   0.83630   0.11365   0.00000  Uiso   1.00
N135   N     0.10077   0.94237   0.42840   0.00000  Uiso   1.00
N136   N     0.58636   0.35433   0.16643   0.00000  Uiso   1.00
N137   N     0.44940   0.92459   0.06059   0.00000  Uiso   1.00
N138   N     0.25181   0.03066   0.37534   0.00000  Uiso   1.00
C139   C     0.73514   0.67377   0.24147   0.00000  Uiso   1.00
C140   C     0.65126   0.58298   0.26519   0.00000  Uiso   1.00
C141   C     0.66486   0.45746   0.25558   0.00000  Uiso   1.00
C142   C     0.57846   0.39025   0.28110   0.00000  Uiso   1.00
C143   C     0.46287   0.24069   0.31280   0.00000  Uiso   1.00
C144   C     0.68899   0.74013   0.29436   0.00000  Uiso   1.00
C145   C     0.73434   0.74676   0.30928   0.00000  Uiso   1.00
C146   C     0.67971   0.81185   0.35936   0.00000  Uiso   1.00
C147   C     0.62274   0.90635   0.43633   0.00000  Uiso   1.00
C148   C     0.74345   0.76934   0.20762   0.00000  Uiso   1.00
C149   C     0.83458   0.80056   0.14960   0.00000  Uiso   1.00
C150   C     0.82580   0.89027   0.12665   0.00000  Uiso   1.00
C151   C     0.85338   0.03013   0.06893   0.00000  Uiso   1.00
C152   C     0.55752   0.77760   0.30386   0.00000  Uiso   1.00
C153   C     0.55478   0.63938   0.29908   0.00000  Uiso   1.00
C154   C     0.46834   0.57234   0.32462   0.00000  Uiso   1.00
C155   C     0.48181   0.44674   0.31505   0.00000  Uiso   1.00
C156   C     0.59252   0.79653   0.32825   0.00000  Uiso   1.00
C157   C     0.53782   0.86163   0.37832   0.00000  Uiso   1.00
C158   C     0.58306   0.86835   0.39331   0.00000  Uiso   1.00
C159   C     0.64697   0.82574   0.24151   0.00000  Uiso   1.00
C160   C     0.63805   0.91543   0.21864   0.00000  Uiso   1.00
C161   C     0.72915   0.94677   0.16060   0.00000  Uiso   1.00
H162   H     0.81025   0.62986   0.21508   0.00000  Uiso   1.00
H163   H     0.73953   0.41385   0.22935   0.00000  Uiso   1.00
H164   H     0.80900   0.70311   0.28304   0.00000  Uiso   1.00
H165   H     0.90922   0.75690   0.12339   0.00000  Uiso   1.00
H166   H     0.61857   0.19922   0.26014   0.00000  Uiso   1.00
H167   H     0.76506   0.80918   0.37333   0.00000  Uiso   1.00
H168   H     0.97640   0.92261   0.03667   0.00000  Uiso   1.00
H169   H     0.48240   0.82151   0.33025   0.00000  Uiso   1.00
H170   H     0.39369   0.61601   0.35084   0.00000  Uiso   1.00
H171   H     0.46316   0.90527   0.40453   0.00000  Uiso   1.00
H172   H     0.56338   0.95906   0.24488   0.00000  Uiso   1.00
H173   H     0.33787   0.36330   0.35875   0.00000  Uiso   1.00
H174   H     0.48437   0.97327   0.47194   0.00000  Uiso   1.00
H175   H     0.69570   0.08669   0.13528   0.00000  Uiso   1.00
O176   O     0.42576   0.14261   0.32092   0.00000  Uiso   1.00
O177   O     0.61797   0.94287   0.46943   0.00000  Uiso   1.00
O178   O     0.89524   0.09168   0.02774   0.00000  Uiso   1.00
N179   N     0.56468   0.26604   0.28051   0.00000  Uiso   1.00
N180   N     0.70164   0.83630   0.38635   0.00000  Uiso   1.00
N181   N     0.89923   0.94237   0.07160   0.00000  Uiso   1.00
N182   N     0.41364   0.35433   0.33357   0.00000  Uiso   1.00
N183   N     0.55060   0.92459   0.43941   0.00000  Uiso   1.00
N184   N     0.74819   0.03066   0.12466   0.00000  Uiso   1.00
