data_job_06485
_audit_creation_date              2018-12-19
_audit_creation_method            'Materials Studio'
_symmetry_space_group_name_H-M    'P1'
_symmetry_Int_Tables_number       1
_symmetry_cell_setting            triclinic
loop_
_symmetry_equiv_pos_as_xyz
  x,y,z
_cell_length_a                    19.2753
_cell_length_b                    20.6220
_cell_length_c                    21.6590
_cell_angle_alpha                 90.0153
_cell_angle_beta                  66.1730
_cell_angle_gamma                 117.0010
loop_
_atom_site_label
_atom_site_type_symbol
_atom_site_fract_x
_atom_site_fract_y
_atom_site_fract_z
_atom_site_U_iso_or_equiv
_atom_site_adp_type
_atom_site_occupancy
C1     C     0.08388   0.54463   0.79722   0.00000  Uiso   1.00
C2     C     0.15767   0.61491   0.80003   0.00000  Uiso   1.00
C3     C     0.22374   0.61798   0.81316   0.00000  Uiso   1.00
C4     C     0.28509   0.68765   0.81352   0.00000  Uiso   1.00
C5     C     0.40035   0.78700   0.81979   0.00000  Uiso   1.00
C6     C     0.99919   0.53991   0.84983   0.00000  Uiso   1.00
C7     C     0.93201   0.47991   0.90482   0.00000  Uiso   1.00
C8     C     0.85996   0.48644   0.94710   0.00000  Uiso   1.00
C9     C     0.72915   0.46933   0.03065   0.00000  Uiso   1.00
C10    C     0.08893   0.56012   0.72625   0.00000  Uiso   1.00
C11    C     0.09718   0.51710   0.67734   0.00000  Uiso   1.00
C12    C     0.10067   0.54064   0.61558   0.00000  Uiso   1.00
C13    C     0.10919   0.55491   0.50726   0.00000  Uiso   1.00
C14    C     0.07536   0.66291   0.77452   0.00000  Uiso   1.00
C15    C     0.15304   0.67916   0.78770   0.00000  Uiso   1.00
C16    C     0.21432   0.74884   0.78804   0.00000  Uiso   1.00
C17    C     0.28046   0.75201   0.80116   0.00000  Uiso   1.00
C18    C     0.99457   0.60415   0.83750   0.00000  Uiso   1.00
C19    C     0.92259   0.61077   0.87970   0.00000  Uiso   1.00
C20    C     0.85533   0.55080   0.93474   0.00000  Uiso   1.00
C21    C     0.08431   0.62437   0.71392   0.00000  Uiso   1.00
C22    C     0.08777   0.64797   0.65222   0.00000  Uiso   1.00
C23    C     0.09603   0.60500   0.60323   0.00000  Uiso   1.00
H24    H     0.08747   0.49461   0.80682   0.00000  Uiso   1.00
H25    H     0.22729   0.56825   0.82270   0.00000  Uiso   1.00
H26    H     0.93561   0.43020   0.91434   0.00000  Uiso   1.00
H27    H     0.10076   0.46739   0.68690   0.00000  Uiso   1.00
H28    H     0.38024   0.67821   0.83489   0.00000  Uiso   1.00
H29    H     0.76520   0.38712   0.02811   0.00000  Uiso   1.00
H30    H     0.11346   0.46554   0.54850   0.00000  Uiso   1.00
H31    H     0.07176   0.71293   0.76492   0.00000  Uiso   1.00
H32    H     0.21072   0.79855   0.77850   0.00000  Uiso   1.00
H33    H     0.91904   0.66050   0.87014   0.00000  Uiso   1.00
H34    H     0.08419   0.69769   0.64270   0.00000  Uiso   1.00
H35    H     0.36679   0.86514   0.79902   0.00000  Uiso   1.00
H36    H     0.75175   0.57404   0.99224   0.00000  Uiso   1.00
H37    H     0.10001   0.65247   0.51263   0.00000  Uiso   1.00
O38    O     0.46519   0.82406   0.82667   0.00000  Uiso   1.00
O39    O     0.65828   0.44215   0.08015   0.00000  Uiso   1.00
O40    O     0.11519   0.54504   0.45092   0.00000  Uiso   1.00
N41    N     0.35801   0.71046   0.82457   0.00000  Uiso   1.00
N42    N     0.78300   0.43831   0.00523   0.00000  Uiso   1.00
N43    N     0.10856   0.51162   0.55684   0.00000  Uiso   1.00
N44    N     0.35078   0.81104   0.80527   0.00000  Uiso   1.00
N45    N     0.77576   0.53889   0.98593   0.00000  Uiso   1.00
N46    N     0.10132   0.61220   0.53754   0.00000  Uiso   1.00
C47    C     0.30138   0.87574   0.20090   0.00000  Uiso   1.00
C48    C     0.29209   0.88045   0.13462   0.00000  Uiso   1.00
C49    C     0.35856   0.92599   0.07042   0.00000  Uiso   1.00
C50    C     0.33682   0.92218   0.01621   0.00000  Uiso   1.00
C51    C     0.33534   0.93677   0.91183   0.00000  Uiso   1.00
C52    C     0.23455   0.89282   0.25417   0.00000  Uiso   1.00
C53    C     0.25263   0.94874   0.29048   0.00000  Uiso   1.00
C54    C     0.18244   0.95533   0.33692   0.00000  Uiso   1.00
C55    C     0.09162   0.98908   0.41817   0.00000  Uiso   1.00
C56    C     0.27003   0.79382   0.22618   0.00000  Uiso   1.00
C57    C     0.31794   0.76651   0.23898   0.00000  Uiso   1.00
C58    C     0.27761   0.68974   0.26187   0.00000  Uiso   1.00
C59    C     0.24189   0.56979   0.29967   0.00000  Uiso   1.00
C60    C     0.14457   0.78798   0.21881   0.00000  Uiso   1.00
C61    C     0.20692   0.83279   0.14435   0.00000  Uiso   1.00
C62    C     0.18507   0.82890   0.09023   0.00000  Uiso   1.00
C63    C     0.25149   0.87442   0.02596   0.00000  Uiso   1.00
C64    C     0.14938   0.84515   0.26390   0.00000  Uiso   1.00
C65    C     0.07914   0.85165   0.31030   0.00000  Uiso   1.00
C66    C     0.09711   0.90757   0.34667   0.00000  Uiso   1.00
C67    C     0.18486   0.74615   0.23591   0.00000  Uiso   1.00
C68    C     0.14445   0.66942   0.25879   0.00000  Uiso   1.00
C69    C     0.19228   0.64199   0.27162   0.00000  Uiso   1.00
H70    H     0.36769   0.91285   0.19332   0.00000  Uiso   1.00
H71    H     0.42446   0.96288   0.06291   0.00000  Uiso   1.00
H72    H     0.31855   0.98562   0.28294   0.00000  Uiso   1.00
H73    H     0.38385   0.80341   0.23144   0.00000  Uiso   1.00
H74    H     0.44984   0.99734   0.92261   0.00000  Uiso   1.00
H75    H     0.22652   0.04527   0.38658   0.00000  Uiso   1.00
H76    H     0.36421   0.66105   0.27800   0.00000  Uiso   1.00
H77    H     0.07825   0.75087   0.22639   0.00000  Uiso   1.00
H78    H     0.11915   0.79201   0.09778   0.00000  Uiso   1.00
H79    H     0.01324   0.81475   0.31782   0.00000  Uiso   1.00
H80    H     0.07853   0.63254   0.26632   0.00000  Uiso   1.00
H81    H     0.20204   0.85866   0.95092   0.00000  Uiso   1.00
H82    H     0.97871   0.90659   0.41489   0.00000  Uiso   1.00
H83    H     0.11640   0.52237   0.30630   0.00000  Uiso   1.00
O84    O     0.35806   0.95800   0.85157   0.00000  Uiso   1.00
O85    O     0.06506   0.02087   0.46029   0.00000  Uiso   1.00
O86    O     0.24571   0.51679   0.31782   0.00000  Uiso   1.00
N87    N     0.38591   0.95904   0.94692   0.00000  Uiso   1.00
N88    N     0.17712   0.00387   0.38070   0.00000  Uiso   1.00
N89    N     0.30584   0.64466   0.27919   0.00000  Uiso   1.00
N90    N     0.25257   0.88442   0.96215   0.00000  Uiso   1.00
N91    N     0.04378   0.92924   0.39593   0.00000  Uiso   1.00
N92    N     0.17250   0.57003   0.29442   0.00000  Uiso   1.00
C93    C     0.62218   0.20905   0.53732   0.00000  Uiso   1.00
C94    C     0.53656   0.16092   0.60227   0.00000  Uiso   1.00
C95    C     0.48044   0.08520   0.61301   0.00000  Uiso   1.00
C96    C     0.40537   0.05128   0.67591   0.00000  Uiso   1.00
C97    C     0.27517   0.97040   0.76910   0.00000  Uiso   1.00
C98    C     0.61450   0.27313   0.51152   0.00000  Uiso   1.00
C99    C     0.62391   0.29176   0.44595   0.00000  Uiso   1.00
C100   C     0.61446   0.35232   0.43246   0.00000  Uiso   1.00
C101   C     0.60532   0.44568   0.38473   0.00000  Uiso   1.00
C102   C     0.69253   0.24412   0.56164   0.00000  Uiso   1.00
C103   C     0.76757   0.23837   0.53819   0.00000  Uiso   1.00
C104   C     0.82383   0.27452   0.56688   0.00000  Uiso   1.00
C105   C     0.93585   0.32283   0.59697   0.00000  Uiso   1.00
C106   C     0.58869   0.28348   0.62993   0.00000  Uiso   1.00
C107   C     0.51837   0.20135   0.65257   0.00000  Uiso   1.00
C108   C     0.44337   0.16754   0.71548   0.00000  Uiso   1.00
C109   C     0.38714   0.09178   0.72631   0.00000  Uiso   1.00
C110   C     0.59630   0.31356   0.56182   0.00000  Uiso   1.00
C111   C     0.58685   0.37410   0.54842   0.00000  Uiso   1.00
C112   C     0.59623   0.39281   0.48285   0.00000  Uiso   1.00
C113   C     0.67434   0.28454   0.61194   0.00000  Uiso   1.00
C114   C     0.73050   0.32071   0.64066   0.00000  Uiso   1.00
C115   C     0.80561   0.31502   0.61727   0.00000  Uiso   1.00
H116   H     0.63635   0.17759   0.49816   0.00000  Uiso   1.00
H117   H     0.49454   0.05393   0.57407   0.00000  Uiso   1.00
H118   H     0.63800   0.26047   0.40704   0.00000  Uiso   1.00
H119   H     0.78163   0.20709   0.49927   0.00000  Uiso   1.00
H120   H     0.32927   0.93467   0.68040   0.00000  Uiso   1.00
H121   H     0.63179   0.37019   0.32820   0.00000  Uiso   1.00
H122   H     0.93467   0.25762   0.52268   0.00000  Uiso   1.00
H123   H     0.57452   0.31495   0.66910   0.00000  Uiso   1.00
H124   H     0.42931   0.19883   0.75439   0.00000  Uiso   1.00
H125   H     0.57277   0.40537   0.58736   0.00000  Uiso   1.00
H126   H     0.71640   0.35199   0.67959   0.00000  Uiso   1.00
H127   H     0.27633   0.05228   0.82676   0.00000  Uiso   1.00
H128   H     0.57885   0.48780   0.47455   0.00000  Uiso   1.00
H129   H     0.88173   0.37523   0.66904   0.00000  Uiso   1.00
O130   O     0.20837   0.91462   0.80659   0.00000  Uiso   1.00
O131   O     0.60529   0.48600   0.34451   0.00000  Uiso   1.00
O132   O     0.00265   0.33831   0.59967   0.00000  Uiso   1.00
N133   N     0.33675   0.97828   0.70315   0.00000  Uiso   1.00
N134   N     0.61957   0.38546   0.37386   0.00000  Uiso   1.00
N135   N     0.90275   0.28023   0.55567   0.00000  Uiso   1.00
N136   N     0.30826   0.04157   0.78190   0.00000  Uiso   1.00
N137   N     0.59108   0.44874   0.45261   0.00000  Uiso   1.00
N138   N     0.87426   0.34351   0.63443   0.00000  Uiso   1.00
C139   C     0.89813   0.97686   0.75170   0.00000  Uiso   1.00
C140   C     0.93845   0.04350   0.69341   0.00000  Uiso   1.00
C141   C     0.96766   0.04342   0.62342   0.00000  Uiso   1.00
C142   C     0.00246   0.11005   0.57828   0.00000  Uiso   1.00
C143   C     0.06420   0.20373   0.48411   0.00000  Uiso   1.00
C144   C     0.80908   0.96620   0.80184   0.00000  Uiso   1.00
C145   C     0.72953   0.90112   0.82302   0.00000  Uiso   1.00
C146   C     0.65543   0.90268   0.86916   0.00000  Uiso   1.00
C147   C     0.51634   0.87634   0.94336   0.00000  Uiso   1.00
C148   C     0.95362   0.00204   0.79021   0.00000  Uiso   1.00
C149   C     0.99558   0.96709   0.80163   0.00000  Uiso   1.00
C150   C     0.04316   0.99880   0.83800   0.00000  Uiso   1.00
C151   C     0.12849   0.02811   0.89414   0.00000  Uiso   1.00
C152   C     0.90800   0.09531   0.79598   0.00000  Uiso   1.00
C153   C     0.94380   0.10784   0.71746   0.00000  Uiso   1.00
C154   C     0.97857   0.17449   0.67241   0.00000  Uiso   1.00
C155   C     0.00783   0.17451   0.60237   0.00000  Uiso   1.00
C156   C     0.81444   0.03054   0.82588   0.00000  Uiso   1.00
C157   C     0.74044   0.03219   0.87201   0.00000  Uiso   1.00
C158   C     0.66080   0.96713   0.89325   0.00000  Uiso   1.00
C159   C     0.95898   0.06638   0.81425   0.00000  Uiso   1.00
C160   C     0.00650   0.09815   0.85061   0.00000  Uiso   1.00
C161   C     0.04853   0.06326   0.86209   0.00000  Uiso   1.00
H162   H     0.89396   0.92676   0.73298   0.00000  Uiso   1.00
H163   H     0.96349   0.99362   0.60483   0.00000  Uiso   1.00
H164   H     0.72541   0.85134   0.80441   0.00000  Uiso   1.00
H165   H     0.99142   0.91730   0.78302   0.00000  Uiso   1.00
H166   H     0.04292   0.09611   0.47336   0.00000  Uiso   1.00
H167   H     0.54090   0.79610   0.89419   0.00000  Uiso   1.00
H168   H     0.10184   0.93518   0.84909   0.00000  Uiso   1.00
H169   H     0.91217   0.14541   0.81470   0.00000  Uiso   1.00
H170   H     0.98271   0.22427   0.69103   0.00000  Uiso   1.00
H171   H     0.74462   0.08199   0.89061   0.00000  Uiso   1.00
H172   H     0.01063   0.14794   0.86922   0.00000  Uiso   1.00
H173   H     0.05851   0.28331   0.54333   0.00000  Uiso   1.00
H174   H     0.55649   0.98330   0.96416   0.00000  Uiso   1.00
H175   H     0.11744   0.12238   0.91905   0.00000  Uiso   1.00
O176   O     0.09676   0.23763   0.42552   0.00000  Uiso   1.00
O177   O     0.43814   0.84403   0.97764   0.00000  Uiso   1.00
O178   O     0.17408   0.02650   0.91846   0.00000  Uiso   1.00
N179   N     0.03693   0.12935   0.50680   0.00000  Uiso   1.00
N180   N     0.56757   0.84886   0.90024   0.00000  Uiso   1.00
N181   N     0.09198   0.97888   0.85809   0.00000  Uiso   1.00
N182   N     0.04532   0.23008   0.54445   0.00000  Uiso   1.00
N183   N     0.57596   0.94960   0.93789   0.00000  Uiso   1.00
N184   N     0.10037   0.07961   0.89574   0.00000  Uiso   1.00
C185   C     0.32482   0.25974   0.02889   0.00000  Uiso   1.00
C186   C     0.34361   0.27211   0.09115   0.00000  Uiso   1.00
C187   C     0.41131   0.26984   0.09757   0.00000  Uiso   1.00
C188   C     0.41741   0.28264   0.15859   0.00000  Uiso   1.00
C189   C     0.45567   0.29967   0.24724   0.00000  Uiso   1.00
C190   C     0.32494   0.32936   0.00499   0.00000  Uiso   1.00
C191   C     0.37692   0.37522   0.93897   0.00000  Uiso   1.00
C192   C     0.36729   0.43621   0.92746   0.00000  Uiso   1.00
C193   C     0.37652   0.54209   0.88234   0.00000  Uiso   1.00
C194   C     0.23084   0.19610   0.05697   0.00000  Uiso   1.00
C195   C     0.20370   0.12992   0.03463   0.00000  Uiso   1.00
C196   C     0.11485   0.07872   0.06687   0.00000  Uiso   1.00
C197   C     0.97798   0.97769   0.10245   0.00000  Uiso   1.00
C198   C     0.21528   0.28649   0.12585   0.00000  Uiso   1.00
C199   C     0.28411   0.28664   0.14382   0.00000  Uiso   1.00
C200   C     0.29011   0.29944   0.20485   0.00000  Uiso   1.00
C201   C     0.35781   0.29720   0.21135   0.00000  Uiso   1.00
C202   C     0.26544   0.34389   0.05766   0.00000  Uiso   1.00
C203   C     0.25573   0.40482   0.04625   0.00000  Uiso   1.00
C204   C     0.30769   0.45077   0.98023   0.00000  Uiso   1.00
C205   C     0.17134   0.21063   0.10964   0.00000  Uiso   1.00
C206   C     0.08251   0.15952   0.14192   0.00000  Uiso   1.00
C207   C     0.05525   0.09328   0.11963   0.00000  Uiso   1.00
H208   H     0.37114   0.24843   0.98788   0.00000  Uiso   1.00
H209   H     0.45734   0.25860   0.05679   0.00000  Uiso   1.00
H210   H     0.42295   0.36396   0.89822   0.00000  Uiso   1.00
H211   H     0.24977   0.11870   0.99387   0.00000  Uiso   1.00
H212   H     0.52670   0.27631   0.15641   0.00000  Uiso   1.00
H213   H     0.45417   0.49845   0.82204   0.00000  Uiso   1.00
H214   H     0.08896   0.98126   0.02374   0.00000  Uiso   1.00
H215   H     0.16895   0.29781   0.16686   0.00000  Uiso   1.00
H216   H     0.24406   0.31069   0.24560   0.00000  Uiso   1.00
H217   H     0.20968   0.41605   0.08702   0.00000  Uiso   1.00
H218   H     0.03649   0.17078   0.18267   0.00000  Uiso   1.00
H219   H     0.35359   0.31859   0.30965   0.00000  Uiso   1.00
H220   H     0.28106   0.54073   0.97528   0.00000  Uiso   1.00
H221   H     0.91586   0.02354   0.17698   0.00000  Uiso   1.00
O222   O     0.49322   0.30506   0.28158   0.00000  Uiso   1.00
O223   O     0.39805   0.59648   0.84290   0.00000  Uiso   1.00
O224   O     0.91891   0.91795   0.10753   0.00000  Uiso   1.00
N225   N     0.47564   0.28448   0.18167   0.00000  Uiso   1.00
N226   N     0.40784   0.49217   0.86906   0.00000  Uiso   1.00
N227   N     0.06640   0.00866   0.05762   0.00000  Uiso   1.00
N228   N     0.38249   0.30723   0.26413   0.00000  Uiso   1.00
N229   N     0.31469   0.51492   0.95152   0.00000  Uiso   1.00
N230   N     0.97325   0.03140   0.14008   0.00000  Uiso   1.00
C231   C     0.60385   0.70773   0.41555   0.00000  Uiso   1.00
C232   C     0.51625   0.64595   0.42308   0.00000  Uiso   1.00
C233   C     0.46021   0.58059   0.47434   0.00000  Uiso   1.00
C234   C     0.38315   0.53110   0.47225   0.00000  Uiso   1.00
C235   C     0.25018   0.43284   0.49179   0.00000  Uiso   1.00
C236   C     0.59844   0.77925   0.41580   0.00000  Uiso   1.00
C237   C     0.61151   0.82597   0.46095   0.00000  Uiso   1.00
C238   C     0.60364   0.88870   0.45273   0.00000  Uiso   1.00
C239   C     0.59833   0.99742   0.46094   0.00000  Uiso   1.00
C240   C     0.67138   0.71741   0.34278   0.00000  Uiso   1.00
C241   C     0.74580   0.71216   0.32652   0.00000  Uiso   1.00
C242   C     0.79936   0.72283   0.25682   0.00000  Uiso   1.00
C243   C     0.90730   0.73554   0.15165   0.00000  Uiso   1.00
C244   C     0.56666   0.73605   0.32069   0.00000  Uiso   1.00
C245   C     0.49605   0.66133   0.37155   0.00000  Uiso   1.00
C246   C     0.41906   0.61192   0.36938   0.00000  Uiso   1.00
C247   C     0.36291   0.54650   0.42063   0.00000  Uiso   1.00
C248   C     0.57824   0.79463   0.36428   0.00000  Uiso   1.00
C249   C     0.57036   0.85730   0.35599   0.00000  Uiso   1.00
C250   C     0.58341   0.90411   0.40111   0.00000  Uiso   1.00
C251   C     0.65118   0.73278   0.29125   0.00000  Uiso   1.00
C252   C     0.70464   0.74348   0.22156   0.00000  Uiso   1.00
C253   C     0.77912   0.73824   0.20520   0.00000  Uiso   1.00
H254   H     0.61958   0.69576   0.45567   0.00000  Uiso   1.00
H255   H     0.47587   0.56871   0.51421   0.00000  Uiso   1.00
H256   H     0.62715   0.81406   0.50081   0.00000  Uiso   1.00
H257   H     0.76141   0.70025   0.36641   0.00000  Uiso   1.00
H258   H     0.30760   0.43465   0.55640   0.00000  Uiso   1.00
H259   H     0.62662   0.95199   0.52814   0.00000  Uiso   1.00
H260   H     0.90974   0.71201   0.24472   0.00000  Uiso   1.00
H261   H     0.55093   0.74802   0.28057   0.00000  Uiso   1.00
H262   H     0.40345   0.62384   0.32950   0.00000  Uiso   1.00
H263   H     0.55473   0.86919   0.31611   0.00000  Uiso   1.00
H264   H     0.68899   0.75538   0.18170   0.00000  Uiso   1.00
H265   H     0.24882   0.47940   0.40649   0.00000  Uiso   1.00
H266   H     0.56784   0.99674   0.37822   0.00000  Uiso   1.00
H267   H     0.85096   0.75676   0.09480   0.00000  Uiso   1.00
O268   O     0.18241   0.37440   0.51681   0.00000  Uiso   1.00
O269   O     0.60097   0.05314   0.47972   0.00000  Uiso   1.00
O270   O     0.97241   0.73828   0.10788   0.00000  Uiso   1.00
N271   N     0.31402   0.46222   0.51440   0.00000  Uiso   1.00
N272   N     0.61227   0.94590   0.48798   0.00000  Uiso   1.00
N273   N     0.87697   0.72155   0.22300   0.00000  Uiso   1.00
N274   N     0.28239   0.48629   0.43373   0.00000  Uiso   1.00
N275   N     0.58064   0.96997   0.40731   0.00000  Uiso   1.00
N276   N     0.84534   0.74563   0.14233   0.00000  Uiso   1.00
C277   C     0.91302   0.53565   0.23081   0.00000  Uiso   1.00
C278   C     0.85522   0.46399   0.21587   0.00000  Uiso   1.00
C279   C     0.79855   0.45629   0.18872   0.00000  Uiso   1.00
C280   C     0.75142   0.38611   0.17887   0.00000  Uiso   1.00
C281   C     0.66029   0.28402   0.15311   0.00000  Uiso   1.00
C282   C     0.00617   0.54999   0.19046   0.00000  Uiso   1.00
C283   C     0.07643   0.61461   0.14194   0.00000  Uiso   1.00
C284   C     0.15637   0.61683   0.11070   0.00000  Uiso   1.00
C285   C     0.29962   0.64829   0.04551   0.00000  Uiso   1.00
C286   C     0.88936   0.51694   0.30720   0.00000  Uiso   1.00
C287   C     0.86141   0.55378   0.35683   0.00000  Uiso   1.00
C288   C     0.84303   0.52819   0.42388   0.00000  Uiso   1.00
C289   C     0.80491   0.50833   0.53995   0.00000  Uiso   1.00
C290   C     0.93008   0.42472   0.26162   0.00000  Uiso   1.00
C291   C     0.86449   0.40374   0.23261   0.00000  Uiso   1.00
C292   C     0.81743   0.33356   0.22281   0.00000  Uiso   1.00
C293   C     0.76070   0.32575   0.19564   0.00000  Uiso   1.00
C294   C     0.01544   0.48975   0.20719   0.00000  Uiso   1.00
C295   C     0.09530   0.49188   0.17603   0.00000  Uiso   1.00
C296   C     0.16566   0.55648   0.12747   0.00000  Uiso   1.00
C297   C     0.89863   0.45669   0.32393   0.00000  Uiso   1.00
C298   C     0.88029   0.43105   0.39092   0.00000  Uiso   1.00
C299   C     0.85232   0.46783   0.44065   0.00000  Uiso   1.00
H300   H     0.90581   0.58256   0.21777   0.00000  Uiso   1.00
H301   H     0.79140   0.50293   0.17576   0.00000  Uiso   1.00
H302   H     0.06923   0.66123   0.12900   0.00000  Uiso   1.00
H303   H     0.85425   0.60040   0.34386   0.00000  Uiso   1.00
H304   H     0.66867   0.38808   0.13655   0.00000  Uiso   1.00
H305   H     0.25450   0.72187   0.03796   0.00000  Uiso   1.00
H306   H     0.80117   0.59361   0.49103   0.00000  Uiso   1.00
H307   H     0.93730   0.37781   0.27465   0.00000  Uiso   1.00
H308   H     0.82461   0.28694   0.23576   0.00000  Uiso   1.00
H309   H     0.10245   0.44525   0.18899   0.00000  Uiso   1.00
H310   H     0.88747   0.38442   0.40385   0.00000  Uiso   1.00
H311   H     0.69563   0.21278   0.18524   0.00000  Uiso   1.00
H312   H     0.28147   0.54657   0.08665   0.00000  Uiso   1.00
H313   H     0.82813   0.41831   0.53972   0.00000  Uiso   1.00
O314   O     0.60748   0.24436   0.13426   0.00000  Uiso   1.00
O315   O     0.37607   0.68228   0.00493   0.00000  Uiso   1.00
O316   O     0.78131   0.51401   0.59935   0.00000  Uiso   1.00
N317   N     0.69047   0.35929   0.15336   0.00000  Uiso   1.00
N318   N     0.23819   0.67136   0.06117   0.00000  Uiso   1.00
N319   N     0.81438   0.55146   0.48476   0.00000  Uiso   1.00
N320   N     0.70498   0.26496   0.17956   0.00000  Uiso   1.00
N321   N     0.25269   0.57703   0.08737   0.00000  Uiso   1.00
N322   N     0.82889   0.45714   0.51096   0.00000  Uiso   1.00
C323   C     0.60652   0.21398   0.85413   0.00000  Uiso   1.00
C324   C     0.60898   0.18515   0.91761   0.00000  Uiso   1.00
C325   C     0.53872   0.15049   0.98309   0.00000  Uiso   1.00
C326   C     0.55435   0.12816   0.03427   0.00000  Uiso   1.00
C327   C     0.54556   0.08154   0.13495   0.00000  Uiso   1.00
C328   C     0.63920   0.17542   0.79842   0.00000  Uiso   1.00
C329   C     0.59436   0.13258   0.76367   0.00000  Uiso   1.00
C330   C     0.63544   0.10206   0.71450   0.00000  Uiso   1.00
C331   C     0.67358   0.04038   0.63009   0.00000  Uiso   1.00
C332   C     0.67601   0.29644   0.82884   0.00000  Uiso   1.00
C333   C     0.66212   0.35535   0.81965   0.00000  Uiso   1.00
C334   C     0.73419   0.42673   0.79608   0.00000  Uiso   1.00
C335   C     0.82948   0.55295   0.75892   0.00000  Uiso   1.00
C336   C     0.75922   0.23598   0.82859   0.00000  Uiso   1.00
C337   C     0.69193   0.19710   0.90374   0.00000  Uiso   1.00
C338   C     0.70767   0.17482   0.95483   0.00000  Uiso   1.00
C339   C     0.63745   0.14013   0.02037   0.00000  Uiso   1.00
C340   C     0.72214   0.18736   0.78455   0.00000  Uiso   1.00
C341   C     0.76330   0.15691   0.73541   0.00000  Uiso   1.00
C342   C     0.71853   0.11403   0.70060   0.00000  Uiso   1.00
C343   C     0.75895   0.30839   0.81497   0.00000  Uiso   1.00
C344   C     0.83106   0.37969   0.79140   0.00000  Uiso   1.00
C345   C     0.81728   0.43870   0.78219   0.00000  Uiso   1.00
H346   H     0.54195   0.20468   0.86492   0.00000  Uiso   1.00
H347   H     0.47454   0.14124   0.99380   0.00000  Uiso   1.00
H348   H     0.53017   0.12335   0.77441   0.00000  Uiso   1.00
H349   H     0.59792   0.34609   0.83039   0.00000  Uiso   1.00
H350   H     0.43639   0.07616   0.13056   0.00000  Uiso   1.00
H351   H     0.55370   0.03844   0.66795   0.00000  Uiso   1.00
H352   H     0.69656   0.50814   0.78600   0.00000  Uiso   1.00
H353   H     0.82380   0.24528   0.81779   0.00000  Uiso   1.00
H354   H     0.77186   0.18407   0.94408   0.00000  Uiso   1.00
H355   H     0.82749   0.16617   0.72469   0.00000  Uiso   1.00
H356   H     0.89524   0.38891   0.78067   0.00000  Uiso   1.00
H357   H     0.67770   0.11092   0.09021   0.00000  Uiso   1.00
H358   H     0.79501   0.07320   0.62759   0.00000  Uiso   1.00
H359   H     0.93787   0.54289   0.74565   0.00000  Uiso   1.00
O360   O     0.51779   0.05252   0.19431   0.00000  Uiso   1.00
O361   O     0.67170   0.00305   0.58737   0.00000  Uiso   1.00
O362   O     0.85913   0.61927   0.74226   0.00000  Uiso   1.00
N363   N     0.50031   0.09275   0.10374   0.00000  Uiso   1.00
N364   N     0.60998   0.05748   0.67123   0.00000  Uiso   1.00
N365   N     0.74355   0.49660   0.78158   0.00000  Uiso   1.00
N366   N     0.63016   0.11146   0.08202   0.00000  Uiso   1.00
N367   N     0.73983   0.07618   0.64952   0.00000  Uiso   1.00
N368   N     0.87340   0.51531   0.75986   0.00000  Uiso   1.00
C369   C     0.23871   0.87529   0.54000   0.00000  Uiso   1.00
C370   C     0.31293   0.94283   0.48128   0.00000  Uiso   1.00
C371   C     0.34810   0.01664   0.48720   0.00000  Uiso   1.00
C372   C     0.41570   0.07031   0.42741   0.00000  Uiso   1.00
C373   C     0.52621   0.17815   0.34589   0.00000  Uiso   1.00
C374   C     0.27419   0.82310   0.54242   0.00000  Uiso   1.00
C375   C     0.27678   0.79625   0.59973   0.00000  Uiso   1.00
C376   C     0.31175   0.74912   0.59141   0.00000  Uiso   1.00
C377   C     0.36206   0.67104   0.60482   0.00000  Uiso   1.00
C378   C     0.16843   0.83530   0.51632   0.00000  Uiso   1.00
C379   C     0.08209   0.81868   0.55170   0.00000  Uiso   1.00
C380   C     0.02801   0.78180   0.52141   0.00000  Uiso   1.00
C381   C     0.91411   0.72266   0.49430   0.00000  Uiso   1.00
C382   C     0.29619   0.83935   0.42330   0.00000  Uiso   1.00
C383   C     0.34415   0.92330   0.41790   0.00000  Uiso   1.00
C384   C     0.41170   0.97687   0.35808   0.00000  Uiso   1.00
C385   C     0.44697   0.05075   0.36390   0.00000  Uiso   1.00
C386   C     0.30541   0.80358   0.47903   0.00000  Uiso   1.00
C387   C     0.34037   0.75648   0.47062   0.00000  Uiso   1.00
C388   C     0.34303   0.72956   0.52791   0.00000  Uiso   1.00
C389   C     0.19964   0.81578   0.45293   0.00000  Uiso   1.00
C390   C     0.14569   0.77892   0.42258   0.00000  Uiso   1.00
C391   C     0.05928   0.76224   0.45791   0.00000  Uiso   1.00
H392   H     0.21441   0.89048   0.58935   0.00000  Uiso   1.00
H393   H     0.32393   0.03172   0.53626   0.00000  Uiso   1.00
H394   H     0.25261   0.81136   0.64878   0.00000  Uiso   1.00
H395   H     0.05795   0.83379   0.60075   0.00000  Uiso   1.00
H396   H     0.45915   0.17970   0.44946   0.00000  Uiso   1.00
H397   H     0.30873   0.71503   0.68672   0.00000  Uiso   1.00
H398   H     0.89825   0.76233   0.58544   0.00000  Uiso   1.00
H399   H     0.32050   0.82415   0.37395   0.00000  Uiso   1.00
H400   H     0.43585   0.96175   0.30904   0.00000  Uiso   1.00
H401   H     0.36452   0.74138   0.42156   0.00000  Uiso   1.00
H402   H     0.16987   0.76382   0.37353   0.00000  Uiso   1.00
H403   H     0.54998   0.12291   0.26503   0.00000  Uiso   1.00
H404   H     0.39956   0.65823   0.50230   0.00000  Uiso   1.00
H405   H     0.98909   0.70554   0.40102   0.00000  Uiso   1.00
O406   O     0.57855   0.24302   0.31844   0.00000  Uiso   1.00
O407   O     0.38119   0.63338   0.62972   0.00000  Uiso   1.00
O408   O     0.84266   0.69544   0.49685   0.00000  Uiso   1.00
N409   N     0.46468   0.14745   0.41496   0.00000  Uiso   1.00
N410   N     0.32407   0.71302   0.63678   0.00000  Uiso   1.00
N411   N     0.94030   0.75723   0.54211   0.00000  Uiso   1.00
N412   N     0.51356   0.11689   0.31572   0.00000  Uiso   1.00
N413   N     0.37295   0.68246   0.53755   0.00000  Uiso   1.00
N414   N     0.98918   0.72667   0.44287   0.00000  Uiso   1.00
C415   C     0.94005   0.06039   0.35875   0.00000  Uiso   1.00
C416   C     0.88460   0.99382   0.42040   0.00000  Uiso   1.00
C417   C     0.86822   0.99750   0.48849   0.00000  Uiso   1.00
C418   C     0.81588   0.93027   0.53734   0.00000  Uiso   1.00
C419   C     0.73510   0.83731   0.63589   0.00000  Uiso   1.00
C420   C     0.01049   0.04640   0.30634   0.00000  Uiso   1.00
C421   C     0.09994   0.09430   0.27853   0.00000  Uiso   1.00
C422   C     0.15357   0.07133   0.23135   0.00000  Uiso   1.00
C423   C     0.26822   0.06003   0.15279   0.00000  Uiso   1.00
C424   C     0.88134   0.05465   0.32598   0.00000  Uiso   1.00
C425   C     0.86223   0.10949   0.31467   0.00000  Uiso   1.00
C426   C     0.80715   0.09347   0.28402   0.00000  Uiso   1.00
C427   C     0.72128   0.09498   0.23596   0.00000  Uiso   1.00
C428   C     0.87625   0.93446   0.32442   0.00000  Uiso   1.00
C429   C     0.84995   0.92542   0.40174   0.00000  Uiso   1.00
C430   C     0.79762   0.85817   0.45050   0.00000  Uiso   1.00
C431   C     0.78116   0.86175   0.51866   0.00000  Uiso   1.00
C432   C     0.97583   0.97800   0.28769   0.00000  Uiso   1.00
C433   C     0.02935   0.95496   0.24054   0.00000  Uiso   1.00
C434   C     0.11886   0.00281   0.21267   0.00000  Uiso   1.00
C435   C     0.84668   0.98625   0.30733   0.00000  Uiso   1.00
C436   C     0.79163   0.97015   0.27669   0.00000  Uiso   1.00
C437   C     0.77243   0.02495   0.26534   0.00000  Uiso   1.00
H438   H     0.96703   0.11365   0.37326   0.00000  Uiso   1.00
H439   H     0.89505   0.05045   0.50290   0.00000  Uiso   1.00
H440   H     0.12674   0.14723   0.29296   0.00000  Uiso   1.00
H441   H     0.88906   0.16241   0.32911   0.00000  Uiso   1.00
H442   H     0.79999   0.95021   0.63839   0.00000  Uiso   1.00
H443   H     0.28851   0.15429   0.19572   0.00000  Uiso   1.00
H444   H     0.78732   0.18632   0.27193   0.00000  Uiso   1.00
H445   H     0.84927   0.88120   0.30990   0.00000  Uiso   1.00
H446   H     0.77082   0.80524   0.43606   0.00000  Uiso   1.00
H447   H     0.00251   0.90203   0.22612   0.00000  Uiso   1.00
H448   H     0.76483   0.91721   0.26227   0.00000  Uiso   1.00
H449   H     0.69916   0.75119   0.58414   0.00000  Uiso   1.00
H450   H     0.18768   0.95528   0.14147   0.00000  Uiso   1.00
H451   H     0.68649   0.98730   0.21768   0.00000  Uiso   1.00
O452   O     0.70012   0.80493   0.69540   0.00000  Uiso   1.00
O453   O     0.34104   0.07268   0.11462   0.00000  Uiso   1.00
O454   O     0.68348   0.11469   0.21461   0.00000  Uiso   1.00
N455   N     0.78701   0.91380   0.60831   0.00000  Uiso   1.00
N456   N     0.24375   0.10460   0.19445   0.00000  Uiso   1.00
N457   N     0.77520   0.13454   0.26568   0.00000  Uiso   1.00
N458   N     0.73276   0.80671   0.57912   0.00000  Uiso   1.00
N459   N     0.18949   0.99751   0.16526   0.00000  Uiso   1.00
N460   N     0.72094   0.02745   0.23649   0.00000  Uiso   1.00
C461   C     0.54548   0.70403   0.04486   0.00000  Uiso   1.00
C462   C     0.59201   0.68839   0.97578   0.00000  Uiso   1.00
C463   C     0.56192   0.66993   0.92639   0.00000  Uiso   1.00
C464   C     0.61406   0.65773   0.86661   0.00000  Uiso   1.00
C465   C     0.67421   0.63248   0.76088   0.00000  Uiso   1.00
C466   C     0.53435   0.64971   0.10046   0.00000  Uiso   1.00
C467   C     0.45580   0.59874   0.15591   0.00000  Uiso   1.00
C468   C     0.45941   0.55399   0.20109   0.00000  Uiso   1.00
C469   C     0.43007   0.46873   0.28896   0.00000  Uiso   1.00
C470   C     0.61018   0.78166   0.04577   0.00000  Uiso   1.00
C471   C     0.59538   0.84163   0.05525   0.00000  Uiso   1.00
C472   C     0.66282   0.90797   0.05440   0.00000  Uiso   1.00
C473   C     0.75121   0.02757   0.05734   0.00000  Uiso   1.00
C474   C     0.69157   0.71521   0.02651   0.00000  Uiso   1.00
C475   C     0.67136   0.69445   0.96582   0.00000  Uiso   1.00
C476   C     0.72356   0.68229   0.90609   0.00000  Uiso   1.00
C477   C     0.69355   0.66382   0.85663   0.00000  Uiso   1.00
C478   C     0.61370   0.65577   0.09050   0.00000  Uiso   1.00
C479   C     0.61743   0.61110   0.13561   0.00000  Uiso   1.00
C480   C     0.53890   0.56007   0.19111   0.00000  Uiso   1.00
C481   C     0.68954   0.78773   0.03580   0.00000  Uiso   1.00
C482   C     0.75701   0.85399   0.03494   0.00000  Uiso   1.00
C483   C     0.74232   0.91405   0.04442   0.00000  Uiso   1.00
H484   H     0.48370   0.69931   0.05262   0.00000  Uiso   1.00
H485   H     0.50050   0.66523   0.93412   0.00000  Uiso   1.00
H486   H     0.39440   0.59406   0.16361   0.00000  Uiso   1.00
H487   H     0.53396   0.83691   0.06296   0.00000  Uiso   1.00
H488   H     0.55412   0.63010   0.79837   0.00000  Uiso   1.00
H489   H     0.33040   0.48005   0.28226   0.00000  Uiso   1.00
H490   H     0.62468   0.99215   0.07002   0.00000  Uiso   1.00
H491   H     0.75335   0.71993   0.01876   0.00000  Uiso   1.00
H492   H     0.78496   0.68699   0.89840   0.00000  Uiso   1.00
H493   H     0.67885   0.61581   0.12789   0.00000  Uiso   1.00
H494   H     0.81841   0.85866   0.02723   0.00000  Uiso   1.00
H495   H     0.78499   0.64775   0.76937   0.00000  Uiso   1.00
H496   H     0.56127   0.49770   0.25327   0.00000  Uiso   1.00
H497   H     0.85556   0.00980   0.04103   0.00000  Uiso   1.00
O498   O     0.68547   0.61686   0.70532   0.00000  Uiso   1.00
O499   O     0.39196   0.42001   0.34017   0.00000  Uiso   1.00
O500   O     0.77805   0.09187   0.06171   0.00000  Uiso   1.00
N501   N     0.60412   0.63879   0.80805   0.00000  Uiso   1.00
N502   N     0.39496   0.49849   0.26046   0.00000  Uiso   1.00
N503   N     0.67008   0.97725   0.06205   0.00000  Uiso   1.00
N504   N     0.72835   0.64829   0.79245   0.00000  Uiso   1.00
N505   N     0.51919   0.50799   0.24486   0.00000  Uiso   1.00
N506   N     0.79431   0.98675   0.04645   0.00000  Uiso   1.00
C507   C     0.20290   0.33059   0.74998   0.00000  Uiso   1.00
C508   C     0.29765   0.39121   0.72562   0.00000  Uiso   1.00
C509   C     0.33797   0.46158   0.68429   0.00000  Uiso   1.00
C510   C     0.42512   0.50898   0.66768   0.00000  Uiso   1.00
C511   C     0.56539   0.60649   0.62620   0.00000  Uiso   1.00
C512   C     0.20603   0.26213   0.72565   0.00000  Uiso   1.00
C513   C     0.16930   0.22397   0.68435   0.00000  Uiso   1.00
C514   C     0.17930   0.16270   0.66777   0.00000  Uiso   1.00
C515   C     0.17727   0.05977   0.62637   0.00000  Uiso   1.00
C516   C     0.16197   0.31034   0.82882   0.00000  Uiso   1.00
C517   C     0.08817   0.31269   0.87427   0.00000  Uiso   1.00
C518   C     0.06107   0.29200   0.94456   0.00000  Uiso   1.00
C519   C     0.99062   0.26392   0.06334   0.00000  Uiso   1.00
C520   C     0.28598   0.28962   0.79398   0.00000  Uiso   1.00
C521   C     0.34278   0.36896   0.74952   0.00000  Uiso   1.00
C522   C     0.42989   0.41626   0.73298   0.00000  Uiso   1.00
C523   C     0.47032   0.48670   0.69163   0.00000  Uiso   1.00
C524   C     0.25115   0.23988   0.74955   0.00000  Uiso   1.00
C525   C     0.26121   0.17865   0.73303   0.00000  Uiso   1.00
C526   C     0.22451   0.14041   0.69172   0.00000  Uiso   1.00
C527   C     0.20709   0.28809   0.85272   0.00000  Uiso   1.00
C528   C     0.18009   0.26738   0.92295   0.00000  Uiso   1.00
C529   C     0.10627   0.26970   0.96850   0.00000  Uiso   1.00
H530   H     0.16777   0.34790   0.73138   0.00000  Uiso   1.00
H531   H     0.30303   0.47878   0.66580   0.00000  Uiso   1.00
H532   H     0.13437   0.24119   0.66587   0.00000  Uiso   1.00
H533   H     0.05327   0.32991   0.85576   0.00000  Uiso   1.00
H534   H     0.47290   0.61406   0.60363   0.00000  Uiso   1.00
H535   H     0.11725   0.11308   0.60378   0.00000  Uiso   1.00
H536   H     0.94622   0.30016   0.00420   0.00000  Uiso   1.00
H537   H     0.32111   0.27230   0.81259   0.00000  Uiso   1.00
H538   H     0.46479   0.39903   0.75148   0.00000  Uiso   1.00
H539   H     0.29613   0.16144   0.75154   0.00000  Uiso   1.00
H540   H     0.21502   0.25016   0.94143   0.00000  Uiso   1.00
H541   H     0.60419   0.54933   0.67316   0.00000  Uiso   1.00
H542   H     0.24853   0.04835   0.67332   0.00000  Uiso   1.00
H543   H     0.07751   0.23543   0.07373   0.00000  Uiso   1.00
O544   O     0.63030   0.66642   0.59670   0.00000  Uiso   1.00
O545   O     0.16368   0.00915   0.59692   0.00000  Uiso   1.00
O546   O     0.93930   0.25460   0.12225   0.00000  Uiso   1.00
N547   N     0.48407   0.58144   0.62839   0.00000  Uiso   1.00
N548   N     0.15158   0.11306   0.62853   0.00000  Uiso   1.00
N549   N     0.99166   0.28795   0.00288   0.00000  Uiso   1.00
N550   N     0.55472   0.54661   0.66580   0.00000  Uiso   1.00
N551   N     0.22222   0.07823   0.66594   0.00000  Uiso   1.00
N552   N     0.06231   0.25312   0.04030   0.00000  Uiso   1.00
