data_job_07087
_audit_creation_date              2018-12-19
_audit_creation_method            'Materials Studio'
_symmetry_space_group_name_H-M    'P1'
_symmetry_Int_Tables_number       1
_symmetry_cell_setting            triclinic
loop_
_symmetry_equiv_pos_as_xyz
  x,y,z
_cell_length_a                    21.7907
_cell_length_b                    23.5433
_cell_length_c                    24.0235
_cell_angle_alpha                 74.5900
_cell_angle_beta                  75.9087
_cell_angle_gamma                 103.7062
loop_
_atom_site_label
_atom_site_type_symbol
_atom_site_fract_x
_atom_site_fract_y
_atom_site_fract_z
_atom_site_U_iso_or_equiv
_atom_site_adp_type
_atom_site_occupancy
C1     C     0.68686   0.02506   0.32569   0.00000  Uiso   1.00
C2     C     0.66815   0.99251   0.39433   0.00000  Uiso   1.00
C3     C     0.63093   0.93039   0.42648   0.00000  Uiso   1.00
C4     C     0.61920   0.90951   0.48905   0.00000  Uiso   1.00
C5     C     0.58638   0.85292   0.59118   0.00000  Uiso   1.00
C6     C     0.66062   0.08025   0.31823   0.00000  Uiso   1.00
C7     C     0.61707   0.09190   0.28639   0.00000  Uiso   1.00
C8     C     0.59901   0.14488   0.28491   0.00000  Uiso   1.00
C9     C     0.55453   0.22452   0.26886   0.00000  Uiso   1.00
C10    C     0.76288   0.05271   0.30149   0.00000  Uiso   1.00
C11    C     0.80532   0.04122   0.25556   0.00000  Uiso   1.00
C12    C     0.87336   0.07102   0.23997   0.00000  Uiso   1.00
C13    C     0.98767   0.10790   0.19792   0.00000  Uiso   1.00
C14    C     0.73223   0.09844   0.37965   0.00000  Uiso   1.00
C15    C     0.69280   0.03237   0.42363   0.00000  Uiso   1.00
C16    C     0.68113   0.01158   0.48618   0.00000  Uiso   1.00
C17    C     0.64389   0.94944   0.51842   0.00000  Uiso   1.00
C18    C     0.68526   0.12011   0.34754   0.00000  Uiso   1.00
C19    C     0.66727   0.17308   0.34610   0.00000  Uiso   1.00
C20    C     0.62370   0.18481   0.31427   0.00000  Uiso   1.00
C21    C     0.78753   0.09257   0.33080   0.00000  Uiso   1.00
C22    C     0.85552   0.12240   0.31527   0.00000  Uiso   1.00
C23    C     0.89805   0.11095   0.26933   0.00000  Uiso   1.00
H24    H     0.66767   0.99403   0.30287   0.00000  Uiso   1.00
H25    H     0.61186   0.89957   0.40378   0.00000  Uiso   1.00
H26    H     0.59801   0.06105   0.26371   0.00000  Uiso   1.00
H27    H     0.78623   0.01037   0.23289   0.00000  Uiso   1.00
H28    H     0.56083   0.81241   0.52858   0.00000  Uiso   1.00
H29    H     0.53165   0.15292   0.23323   0.00000  Uiso   1.00
H30    H     0.92855   0.04605   0.16824   0.00000  Uiso   1.00
H31    H     0.75142   0.12948   0.40247   0.00000  Uiso   1.00
H32    H     0.70020   0.04244   0.50885   0.00000  Uiso   1.00
H33    H     0.68635   0.20392   0.36878   0.00000  Uiso   1.00
H34    H     0.87457   0.15324   0.33796   0.00000  Uiso   1.00
H35    H     0.63253   0.92837   0.61386   0.00000  Uiso   1.00
H36    H     0.60335   0.26888   0.31851   0.00000  Uiso   1.00
H37    H     0.00025   0.16201   0.25352   0.00000  Uiso   1.00
O38    O     0.56146   0.81070   0.63941   0.00000  Uiso   1.00
O39    O     0.52318   0.25743   0.25191   0.00000  Uiso   1.00
O40    O     0.04391   0.11722   0.16664   0.00000  Uiso   1.00
N41    N     0.58475   0.85165   0.53405   0.00000  Uiso   1.00
N42    N     0.55745   0.16999   0.25793   0.00000  Uiso   1.00
N43    N     0.92852   0.07010   0.19715   0.00000  Uiso   1.00
N44    N     0.62333   0.91404   0.57994   0.00000  Uiso   1.00
N45    N     0.59603   0.23239   0.30381   0.00000  Uiso   1.00
N46    N     0.96710   0.13249   0.24304   0.00000  Uiso   1.00
C47    C     0.57860   0.59404   0.13110   0.00000  Uiso   1.00
C48    C     0.61890   0.58359   0.07544   0.00000  Uiso   1.00
C49    C     0.62984   0.61709   0.01491   0.00000  Uiso   1.00
C50    C     0.66806   0.60036   0.97062   0.00000  Uiso   1.00
C51    C     0.72661   0.59150   0.88179   0.00000  Uiso   1.00
C52    C     0.52462   0.53177   0.16998   0.00000  Uiso   1.00
C53    C     0.45628   0.52170   0.18894   0.00000  Uiso   1.00
C54    C     0.41513   0.46135   0.22424   0.00000  Uiso   1.00
C55    C     0.32731   0.37203   0.28223   0.00000  Uiso   1.00
C56    C     0.62546   0.60557   0.16775   0.00000  Uiso   1.00
C57    C     0.64191   0.65755   0.18486   0.00000  Uiso   1.00
C58    C     0.68565   0.65933   0.21830   0.00000  Uiso   1.00
C59    C     0.75441   0.68461   0.27283   0.00000  Uiso   1.00
C60    C     0.62703   0.50477   0.16008   0.00000  Uiso   1.00
C61    C     0.64521   0.53510   0.09118   0.00000  Uiso   1.00
C62    C     0.68343   0.51832   0.04697   0.00000  Uiso   1.00
C63    C     0.69442   0.55179   0.98638   0.00000  Uiso   1.00
C64    C     0.55092   0.48328   0.18572   0.00000  Uiso   1.00
C65    C     0.50987   0.42293   0.22100   0.00000  Uiso   1.00
C66    C     0.44149   0.41277   0.24001   0.00000  Uiso   1.00
C67    C     0.65177   0.55708   0.18349   0.00000  Uiso   1.00
C68    C     0.69550   0.55878   0.21692   0.00000  Uiso   1.00
C69    C     0.71201   0.61075   0.23407   0.00000  Uiso   1.00
H70    H     0.55811   0.63179   0.11885   0.00000  Uiso   1.00
H71    H     0.60947   0.65461   0.00275   0.00000  Uiso   1.00
H72    H     0.43594   0.55924   0.17676   0.00000  Uiso   1.00
H73    H     0.62154   0.69507   0.17267   0.00000  Uiso   1.00
H74    H     0.67798   0.65851   0.88096   0.00000  Uiso   1.00
H75    H     0.31209   0.45741   0.24790   0.00000  Uiso   1.00
H76    H     0.70346   0.74384   0.23929   0.00000  Uiso   1.00
H77    H     0.64751   0.46701   0.17233   0.00000  Uiso   1.00
H78    H     0.70378   0.48079   0.05916   0.00000  Uiso   1.00
H79    H     0.53024   0.38542   0.23318   0.00000  Uiso   1.00
H80    H     0.71584   0.52125   0.22909   0.00000  Uiso   1.00
H81    H     0.75452   0.51743   0.92675   0.00000  Uiso   1.00
H82    H     0.38863   0.31633   0.29369   0.00000  Uiso   1.00
H83    H     0.78000   0.60276   0.28507   0.00000  Uiso   1.00
O84    O     0.75163   0.60000   0.82844   0.00000  Uiso   1.00
O85    O     0.27159   0.33617   0.30986   0.00000  Uiso   1.00
O86    O     0.78507   0.71195   0.29855   0.00000  Uiso   1.00
N87    N     0.68829   0.62343   0.90727   0.00000  Uiso   1.00
N88    N     0.34619   0.43541   0.25033   0.00000  Uiso   1.00
N89    N     0.71208   0.70318   0.24229   0.00000  Uiso   1.00
N90    N     0.72947   0.54751   0.93191   0.00000  Uiso   1.00
N91    N     0.38738   0.35950   0.27496   0.00000  Uiso   1.00
N92    N     0.75327   0.62727   0.26692   0.00000  Uiso   1.00
C93    C     0.04774   0.37049   0.57154   0.00000  Uiso   1.00
C94    C     0.09427   0.43766   0.54534   0.00000  Uiso   1.00
C95    C     0.08686   0.48446   0.56876   0.00000  Uiso   1.00
C96    C     0.13476   0.54282   0.53817   0.00000  Uiso   1.00
C97    C     0.19888   0.64543   0.50541   0.00000  Uiso   1.00
C98    C     0.02469   0.35779   0.51968   0.00000  Uiso   1.00
C99    C     0.95878   0.33742   0.52152   0.00000  Uiso   1.00
C100   C     0.94810   0.32853   0.46934   0.00000  Uiso   1.00
C101   C     0.90420   0.30710   0.39675   0.00000  Uiso   1.00
C102   C     0.09156   0.33004   0.58383   0.00000  Uiso   1.00
C103   C     0.08186   0.28632   0.63962   0.00000  Uiso   1.00
C104   C     0.12748   0.25407   0.64145   0.00000  Uiso   1.00
C105   C     0.18740   0.18955   0.66847   0.00000  Uiso   1.00
C106   C     0.14597   0.39093   0.47558   0.00000  Uiso   1.00
C107   C     0.14763   0.44876   0.49322   0.00000  Uiso   1.00
C108   C     0.19555   0.50706   0.46259   0.00000  Uiso   1.00
C109   C     0.18821   0.55394   0.48596   0.00000  Uiso   1.00
C110   C     0.07805   0.36888   0.46756   0.00000  Uiso   1.00
C111   C     0.06746   0.36002   0.41536   0.00000  Uiso   1.00
C112   C     0.00155   0.33965   0.41713   0.00000  Uiso   1.00
C113   C     0.14492   0.34114   0.53171   0.00000  Uiso   1.00
C114   C     0.19055   0.30894   0.53345   0.00000  Uiso   1.00
C115   C     0.18093   0.26519   0.58923   0.00000  Uiso   1.00
H116   H     0.00619   0.36185   0.61211   0.00000  Uiso   1.00
H117   H     0.04556   0.47585   0.60909   0.00000  Uiso   1.00
H118   H     0.91750   0.32883   0.56187   0.00000  Uiso   1.00
H119   H     0.04056   0.27775   0.67994   0.00000  Uiso   1.00
H120   H     0.11272   0.60714   0.58274   0.00000  Uiso   1.00
H121   H     0.84270   0.29711   0.48318   0.00000  Uiso   1.00
H122   H     0.10221   0.18940   0.73217   0.00000  Uiso   1.00
H123   H     0.18751   0.39957   0.43500   0.00000  Uiso   1.00
H124   H     0.23684   0.51564   0.42226   0.00000  Uiso   1.00
H125   H     0.10877   0.36862   0.37503   0.00000  Uiso   1.00
H126   H     0.23184   0.31754   0.49311   0.00000  Uiso   1.00
H127   H     0.26797   0.63943   0.43110   0.00000  Uiso   1.00
H128   H     0.99794   0.32940   0.33154   0.00000  Uiso   1.00
H129   H     0.25745   0.22170   0.58052   0.00000  Uiso   1.00
O130   O     0.21951   0.69896   0.50172   0.00000  Uiso   1.00
O131   O     0.86524   0.29221   0.37110   0.00000  Uiso   1.00
O132   O     0.20571   0.15090   0.69777   0.00000  Uiso   1.00
N133   N     0.14250   0.59881   0.54881   0.00000  Uiso   1.00
N134   N     0.89004   0.30896   0.45572   0.00000  Uiso   1.00
N135   N     0.13265   0.20825   0.68850   0.00000  Uiso   1.00
N136   N     0.22604   0.61618   0.46721   0.00000  Uiso   1.00
N137   N     0.97357   0.32634   0.37412   0.00000  Uiso   1.00
N138   N     0.21618   0.22563   0.60690   0.00000  Uiso   1.00
C139   C     0.16293   0.65596   0.97644   0.00000  Uiso   1.00
C140   C     0.15450   0.58832   0.98190   0.00000  Uiso   1.00
C141   C     0.11528   0.53662   0.03314   0.00000  Uiso   1.00
C142   C     0.11419   0.47870   0.02899   0.00000  Uiso   1.00
C143   C     0.09547   0.37458   0.04560   0.00000  Uiso   1.00
C144   C     0.14292   0.68372   0.92135   0.00000  Uiso   1.00
C145   C     0.09397   0.71224   0.92168   0.00000  Uiso   1.00
C146   C     0.08314   0.73464   0.86655   0.00000  Uiso   1.00
C147   C     0.04648   0.77866   0.78914   0.00000  Uiso   1.00
C148   C     0.23783   0.68837   0.95857   0.00000  Uiso   1.00
C149   C     0.26870   0.72080   0.99018   0.00000  Uiso   1.00
C150   C     0.33779   0.74713   0.96638   0.00000  Uiso   1.00
C151   C     0.44849   0.79837   0.94677   0.00000  Uiso   1.00
C152   C     0.23073   0.64506   0.87794   0.00000  Uiso   1.00
C153   C     0.19132   0.58240   0.92840   0.00000  Uiso   1.00
C154   C     0.19030   0.52455   0.92417   0.00000  Uiso   1.00
C155   C     0.15109   0.47277   0.97540   0.00000  Uiso   1.00
C156   C     0.17974   0.67780   0.86785   0.00000  Uiso   1.00
C157   C     0.16899   0.70017   0.81271   0.00000  Uiso   1.00
C158   C     0.12004   0.72871   0.81295   0.00000  Uiso   1.00
C159   C     0.27466   0.68245   0.90507   0.00000  Uiso   1.00
C160   C     0.34371   0.70874   0.88121   0.00000  Uiso   1.00
C161   C     0.37468   0.74120   0.91279   0.00000  Uiso   1.00
H162   H     0.13426   0.66058   0.01808   0.00000  Uiso   1.00
H163   H     0.08678   0.54122   0.07453   0.00000  Uiso   1.00
H164   H     0.06549   0.71682   0.96308   0.00000  Uiso   1.00
H165   H     0.24019   0.72538   0.03158   0.00000  Uiso   1.00
H166   H     0.05037   0.40628   0.11351   0.00000  Uiso   1.00
H167   H     0.00548   0.77655   0.87851   0.00000  Uiso   1.00
H168   H     0.37387   0.79461   0.02295   0.00000  Uiso   1.00
H169   H     0.25940   0.64045   0.83629   0.00000  Uiso   1.00
H170   H     0.21880   0.51999   0.88276   0.00000  Uiso   1.00
H171   H     0.19750   0.69558   0.77131   0.00000  Uiso   1.00
H172   H     0.37220   0.70414   0.83981   0.00000  Uiso   1.00
H173   H     0.15752   0.38904   0.95787   0.00000  Uiso   1.00
H174   H     0.11262   0.75932   0.72287   0.00000  Uiso   1.00
H175   H     0.48102   0.77738   0.86731   0.00000  Uiso   1.00
O176   O     0.07496   0.31878   0.06953   0.00000  Uiso   1.00
O177   O     0.01607   0.80457   0.76122   0.00000  Uiso   1.00
O178   O     0.49939   0.82826   0.95073   0.00000  Uiso   1.00
N179   N     0.08117   0.41875   0.07051   0.00000  Uiso   1.00
N180   N     0.03919   0.76493   0.85080   0.00000  Uiso   1.00
N181   N     0.38360   0.78183   0.98583   0.00000  Uiso   1.00
N182   N     0.13883   0.40948   0.98676   0.00000  Uiso   1.00
N183   N     0.09685   0.75566   0.76705   0.00000  Uiso   1.00
N184   N     0.44126   0.77255   0.90208   0.00000  Uiso   1.00
C185   C     0.19512   0.99518   0.29746   0.00000  Uiso   1.00
C186   C     0.23036   0.04089   0.32323   0.00000  Uiso   1.00
C187   C     0.27553   0.09997   0.28931   0.00000  Uiso   1.00
C188   C     0.30228   0.13459   0.32143   0.00000  Uiso   1.00
C189   C     0.35969   0.20919   0.35175   0.00000  Uiso   1.00
C190   C     0.12046   0.97901   0.32950   0.00000  Uiso   1.00
C191   C     0.07322   0.98605   0.30085   0.00000  Uiso   1.00
C192   C     0.00745   0.96856   0.33825   0.00000  Uiso   1.00
C193   C     0.89422   0.94704   0.37830   0.00000  Uiso   1.00
C194   C     0.21204   0.93578   0.32008   0.00000  Uiso   1.00
C195   C     0.24180   0.90646   0.28350   0.00000  Uiso   1.00
C196   C     0.25312   0.85256   0.31297   0.00000  Uiso   1.00
C197   C     0.28209   0.76392   0.33839   0.00000  Uiso   1.00
C198   C     0.16230   0.95160   0.41483   0.00000  Uiso   1.00
C199   C     0.21253   0.01722   0.38699   0.00000  Uiso   1.00
C200   C     0.23922   0.05176   0.41917   0.00000  Uiso   1.00
C201   C     0.28442   0.11088   0.38530   0.00000  Uiso   1.00
C202   C     0.10263   0.95534   0.39325   0.00000  Uiso   1.00
C203   C     0.03691   0.93783   0.43071   0.00000  Uiso   1.00
C204   C     0.98959   0.94485   0.40212   0.00000  Uiso   1.00
C205   C     0.19422   0.91211   0.38383   0.00000  Uiso   1.00
C206   C     0.20549   0.85825   0.41336   0.00000  Uiso   1.00
C207   C     0.23526   0.82885   0.37684   0.00000  Uiso   1.00
H208   H     0.20899   0.01361   0.24783   0.00000  Uiso   1.00
H209   H     0.28931   0.11828   0.23997   0.00000  Uiso   1.00
H210   H     0.08703   0.00436   0.25151   0.00000  Uiso   1.00
H211   H     0.25558   0.92479   0.23417   0.00000  Uiso   1.00
H212   H     0.37048   0.22389   0.25938   0.00000  Uiso   1.00
H213   H     0.94396   0.98368   0.28371   0.00000  Uiso   1.00
H214   H     0.29938   0.81588   0.24714   0.00000  Uiso   1.00
H215   H     0.14842   0.93317   0.46447   0.00000  Uiso   1.00
H216   H     0.22541   0.03343   0.46850   0.00000  Uiso   1.00
H217   H     0.02313   0.91952   0.48004   0.00000  Uiso   1.00
H218   H     0.19168   0.83994   0.46270   0.00000  Uiso   1.00
H219   H     0.31861   0.15503   0.44486   0.00000  Uiso   1.00
H220   H     0.89209   0.91481   0.46919   0.00000  Uiso   1.00
H221   H     0.24751   0.74701   0.43262   0.00000  Uiso   1.00
O222   O     0.39627   0.25687   0.35087   0.00000  Uiso   1.00
O223   O     0.83669   0.94171   0.38278   0.00000  Uiso   1.00
O224   O     0.30300   0.72156   0.33481   0.00000  Uiso   1.00
N225   N     0.34772   0.19392   0.30248   0.00000  Uiso   1.00
N226   N     0.94894   0.96934   0.32522   0.00000  Uiso   1.00
N227   N     0.28122   0.81246   0.29104   0.00000  Uiso   1.00
N228   N     0.31981   0.15687   0.40229   0.00000  Uiso   1.00
N229   N     0.92104   0.93229   0.42503   0.00000  Uiso   1.00
N230   N     0.25331   0.77540   0.39084   0.00000  Uiso   1.00
C231   C     0.55951   0.48572   0.66196   0.00000  Uiso   1.00
C232   C     0.60379   0.50325   0.59611   0.00000  Uiso   1.00
C233   C     0.59570   0.46879   0.55813   0.00000  Uiso   1.00
C234   C     0.64147   0.49277   0.49942   0.00000  Uiso   1.00
C235   C     0.70231   0.51142   0.40019   0.00000  Uiso   1.00
C236   C     0.53428   0.54044   0.66441   0.00000  Uiso   1.00
C237   C     0.46774   0.53725   0.68386   0.00000  Uiso   1.00
C238   C     0.45499   0.59254   0.68265   0.00000  Uiso   1.00
C239   C     0.40791   0.66892   0.68950   0.00000  Uiso   1.00
C240   C     0.60602   0.48467   0.70021   0.00000  Uiso   1.00
C241   C     0.59979   0.43459   0.74978   0.00000  Uiso   1.00
C242   C     0.64743   0.44293   0.77873   0.00000  Uiso   1.00
C243   C     0.71173   0.43271   0.84116   0.00000  Uiso   1.00
C244   C     0.65519   0.58960   0.62524   0.00000  Uiso   1.00
C245   C     0.65576   0.55967   0.57616   0.00000  Uiso   1.00
C246   C     0.70156   0.58371   0.51750   0.00000  Uiso   1.00
C247   C     0.69354   0.54929   0.47944   0.00000  Uiso   1.00
C248   C     0.58624   0.59686   0.64446   0.00000  Uiso   1.00
C249   C     0.57359   0.65217   0.64323   0.00000  Uiso   1.00
C250   C     0.50705   0.64906   0.66268   0.00000  Uiso   1.00
C251   C     0.65799   0.54109   0.68027   0.00000  Uiso   1.00
C252   C     0.70565   0.54951   0.70915   0.00000  Uiso   1.00
C253   C     0.69950   0.49945   0.75875   0.00000  Uiso   1.00
H254   H     0.51904   0.44180   0.67749   0.00000  Uiso   1.00
H255   H     0.55547   0.42513   0.57358   0.00000  Uiso   1.00
H256   H     0.42753   0.49358   0.69930   0.00000  Uiso   1.00
H257   H     0.55956   0.39093   0.76520   0.00000  Uiso   1.00
H258   H     0.61877   0.43154   0.44957   0.00000  Uiso   1.00
H259   H     0.34899   0.57586   0.71467   0.00000  Uiso   1.00
H260   H     0.62741   0.35941   0.85364   0.00000  Uiso   1.00
H261   H     0.69565   0.63353   0.60972   0.00000  Uiso   1.00
H262   H     0.74177   0.62738   0.50208   0.00000  Uiso   1.00
H263   H     0.61382   0.69582   0.62780   0.00000  Uiso   1.00
H264   H     0.74586   0.59318   0.69370   0.00000  Uiso   1.00
H265   H     0.76997   0.59569   0.39154   0.00000  Uiso   1.00
H266   H     0.50019   0.74001   0.65664   0.00000  Uiso   1.00
H267   H     0.77861   0.52357   0.79561   0.00000  Uiso   1.00
O268   O     0.72151   0.50612   0.35096   0.00000  Uiso   1.00
O269   O     0.36757   0.69546   0.69878   0.00000  Uiso   1.00
O270   O     0.73285   0.41149   0.88110   0.00000  Uiso   1.00
N271   N     0.64803   0.47101   0.45068   0.00000  Uiso   1.00
N272   N     0.39580   0.60594   0.69853   0.00000  Uiso   1.00
N273   N     0.65609   0.40359   0.82847   0.00000  Uiso   1.00
N274   N     0.72939   0.55934   0.41946   0.00000  Uiso   1.00
N275   N     0.47717   0.69427   0.66731   0.00000  Uiso   1.00
N276   N     0.73745   0.49192   0.79724   0.00000  Uiso   1.00
C277   C     0.35588   0.00740   0.60709   0.00000  Uiso   1.00
C278   C     0.36235   0.00513   0.54313   0.00000  Uiso   1.00
C279   C     0.40097   0.05324   0.48872   0.00000  Uiso   1.00
C280   C     0.40021   0.04195   0.43499   0.00000  Uiso   1.00
C281   C     0.41608   0.04714   0.33556   0.00000  Uiso   1.00
C282   C     0.37592   0.95319   0.63943   0.00000  Uiso   1.00
C283   C     0.42594   0.95764   0.66599   0.00000  Uiso   1.00
C284   C     0.43659   0.90263   0.69333   0.00000  Uiso   1.00
C285   C     0.47349   0.82718   0.74345   0.00000  Uiso   1.00
C286   C     0.28138   0.99150   0.63964   0.00000  Uiso   1.00
C287   C     0.25191   0.02815   0.66639   0.00000  Uiso   1.00
C288   C     0.18297   0.00537   0.69393   0.00000  Uiso   1.00
C289   C     0.07308   0.98940   0.74437   0.00000  Uiso   1.00
C290   C     0.28585   0.90178   0.60844   0.00000  Uiso   1.00
C291   C     0.32432   0.94776   0.54387   0.00000  Uiso   1.00
C292   C     0.32350   0.93639   0.49021   0.00000  Uiso   1.00
C293   C     0.36211   0.98448   0.43572   0.00000  Uiso   1.00
C294   C     0.33789   0.89583   0.64017   0.00000  Uiso   1.00
C295   C     0.34846   0.84079   0.66748   0.00000  Uiso   1.00
C296   C     0.39849   0.84516   0.69407   0.00000  Uiso   1.00
C297   C     0.24334   0.93413   0.64037   0.00000  Uiso   1.00
C298   C     0.17443   0.91129   0.66788   0.00000  Uiso   1.00
C299   C     0.14486   0.94790   0.69466   0.00000  Uiso   1.00
H300   H     0.38549   0.05206   0.60652   0.00000  Uiso   1.00
H301   H     0.43040   0.09763   0.48817   0.00000  Uiso   1.00
H302   H     0.45536   0.00204   0.66542   0.00000  Uiso   1.00
H303   H     0.28136   0.07254   0.66581   0.00000  Uiso   1.00
H304   H     0.46345   0.12285   0.35727   0.00000  Uiso   1.00
H305   H     0.51605   0.92129   0.73103   0.00000  Uiso   1.00
H306   H     0.14913   0.06994   0.73187   0.00000  Uiso   1.00
H307   H     0.25624   0.85712   0.60902   0.00000  Uiso   1.00
H308   H     0.29406   0.89199   0.49079   0.00000  Uiso   1.00
H309   H     0.31902   0.79640   0.66804   0.00000  Uiso   1.00
H310   H     0.14502   0.86690   0.66844   0.00000  Uiso   1.00
H311   H     0.35279   0.95594   0.35940   0.00000  Uiso   1.00
H312   H     0.40539   0.75439   0.73316   0.00000  Uiso   1.00
H313   H     0.03847   0.90303   0.73400   0.00000  Uiso   1.00
O314   O     0.43534   0.06584   0.28052   0.00000  Uiso   1.00
O315   O     0.50435   0.80142   0.77089   0.00000  Uiso   1.00
O316   O     0.02297   0.99644   0.77198   0.00000  Uiso   1.00
N317   N     0.43220   0.07878   0.37400   0.00000  Uiso   1.00
N318   N     0.48139   0.89035   0.72343   0.00000  Uiso   1.00
N319   N     0.13836   0.02931   0.72423   0.00000  Uiso   1.00
N320   N     0.37265   0.98897   0.37514   0.00000  Uiso   1.00
N321   N     0.42185   0.80054   0.72458   0.00000  Uiso   1.00
N322   N     0.07881   0.93950   0.72537   0.00000  Uiso   1.00
C323   C     0.44456   0.48047   0.90915   0.00000  Uiso   1.00
C324   C     0.40118   0.49350   0.96136   0.00000  Uiso   1.00
C325   C     0.39319   0.46790   0.02283   0.00000  Uiso   1.00
C326   C     0.35134   0.48573   0.06349   0.00000  Uiso   1.00
C327   C     0.28898   0.49961   0.14762   0.00000  Uiso   1.00
C328   C     0.49300   0.54364   0.86491   0.00000  Uiso   1.00
C329   C     0.56221   0.56019   0.84527   0.00000  Uiso   1.00
C330   C     0.59765   0.62023   0.80473   0.00000  Uiso   1.00
C331   C     0.67784   0.71193   0.73908   0.00000  Uiso   1.00
C332   C     0.39831   0.45717   0.87577   0.00000  Uiso   1.00
C333   C     0.38792   0.40102   0.86524   0.00000  Uiso   1.00
C334   C     0.34365   0.38827   0.83383   0.00000  Uiso   1.00
C335   C     0.27682   0.34571   0.78504   0.00000  Uiso   1.00
C336   C     0.38445   0.55765   0.87207   0.00000  Uiso   1.00
C337   C     0.36854   0.53542   0.94122   0.00000  Uiso   1.00
C338   C     0.32668   0.55330   0.98180   0.00000  Uiso   1.00
C339   C     0.31863   0.52773   0.04331   0.00000  Uiso   1.00
C340   C     0.46036   0.58556   0.84477   0.00000  Uiso   1.00
C341   C     0.49571   0.64559   0.80424   0.00000  Uiso   1.00
C342   C     0.56495   0.66223   0.78455   0.00000  Uiso   1.00
C343   C     0.36566   0.49909   0.85563   0.00000  Uiso   1.00
C344   C     0.32141   0.48642   0.82422   0.00000  Uiso   1.00
C345   C     0.31094   0.43027   0.81365   0.00000  Uiso   1.00
H346   H     0.46998   0.44783   0.92483   0.00000  Uiso   1.00
H347   H     0.41847   0.43546   0.03840   0.00000  Uiso   1.00
H348   H     0.58746   0.52774   0.86087   0.00000  Uiso   1.00
H349   H     0.41319   0.36859   0.88084   0.00000  Uiso   1.00
H350   H     0.34698   0.44026   0.15542   0.00000  Uiso   1.00
H351   H     0.70331   0.63481   0.78107   0.00000  Uiso   1.00
H352   H     0.33583   0.29923   0.82318   0.00000  Uiso   1.00
H353   H     0.35903   0.59029   0.85638   0.00000  Uiso   1.00
H354   H     0.30143   0.58574   0.96619   0.00000  Uiso   1.00
H355   H     0.47042   0.67802   0.78866   0.00000  Uiso   1.00
H356   H     0.29615   0.51887   0.80863   0.00000  Uiso   1.00
H357   H     0.25198   0.56223   0.09681   0.00000  Uiso   1.00
H358   H     0.60832   0.75679   0.72246   0.00000  Uiso   1.00
H359   H     0.24083   0.42120   0.76458   0.00000  Uiso   1.00
O360   O     0.26360   0.49569   0.19959   0.00000  Uiso   1.00
O361   O     0.73109   0.75094   0.70845   0.00000  Uiso   1.00
O362   O     0.24897   0.31066   0.76370   0.00000  Uiso   1.00
N363   N     0.33252   0.46958   0.12656   0.00000  Uiso   1.00
N364   N     0.66566   0.65148   0.77657   0.00000  Uiso   1.00
N365   N     0.32211   0.33774   0.81593   0.00000  Uiso   1.00
N366   N     0.28140   0.53521   0.09502   0.00000  Uiso   1.00
N367   N     0.61455   0.71711   0.74504   0.00000  Uiso   1.00
N368   N     0.27100   0.40338   0.78439   0.00000  Uiso   1.00
C369   C     0.97935   0.66344   0.44280   0.00000  Uiso   1.00
C370   C     0.92796   0.59840   0.47246   0.00000  Uiso   1.00
C371   C     0.93388   0.54622   0.45804   0.00000  Uiso   1.00
C372   C     0.88141   0.49099   0.49040   0.00000  Uiso   1.00
C373   C     0.81020   0.39043   0.52962   0.00000  Uiso   1.00
C374   C     0.99655   0.68179   0.49479   0.00000  Uiso   1.00
C375   C     0.06015   0.69972   0.49914   0.00000  Uiso   1.00
C376   C     0.06543   0.71469   0.55030   0.00000  Uiso   1.00
C377   C     0.10072   0.74363   0.62416   0.00000  Uiso   1.00
C378   C     0.94246   0.70652   0.41811   0.00000  Uiso   1.00
C379   C     0.96059   0.74526   0.35797   0.00000  Uiso   1.00
C380   C     0.92033   0.78108   0.34457   0.00000  Uiso   1.00
C381   C     0.87164   0.84842   0.29936   0.00000  Uiso   1.00
C382   C     0.87564   0.65817   0.52592   0.00000  Uiso   1.00
C383   C     0.87163   0.59554   0.51762   0.00000  Uiso   1.00
C384   C     0.81914   0.54038   0.55001   0.00000  Uiso   1.00
C385   C     0.82498   0.48812   0.53563   0.00000  Uiso   1.00
C386   C     0.94023   0.67892   0.53994   0.00000  Uiso   1.00
C387   C     0.94541   0.69388   0.59111   0.00000  Uiso   1.00
C388   C     0.00900   0.71182   0.59553   0.00000  Uiso   1.00
C389   C     0.88613   0.70366   0.46326   0.00000  Uiso   1.00
C390   C     0.84585   0.73942   0.44994   0.00000  Uiso   1.00
C391   C     0.86390   0.77820   0.38980   0.00000  Uiso   1.00
H392   H     0.02320   0.66568   0.40765   0.00000  Uiso   1.00
H393   H     0.97748   0.54845   0.42310   0.00000  Uiso   1.00
H394   H     0.10373   0.70193   0.46419   0.00000  Uiso   1.00
H395   H     0.00418   0.74747   0.32305   0.00000  Uiso   1.00
H396   H     0.90196   0.41722   0.46016   0.00000  Uiso   1.00
H397   H     0.16817   0.74086   0.54678   0.00000  Uiso   1.00
H398   H     0.95825   0.83689   0.24916   0.00000  Uiso   1.00
H399   H     0.83179   0.65594   0.56108   0.00000  Uiso   1.00
H400   H     0.77556   0.53817   0.58495   0.00000  Uiso   1.00
H401   H     0.90181   0.69166   0.62603   0.00000  Uiso   1.00
H402   H     0.80226   0.73719   0.48489   0.00000  Uiso   1.00
H403   H     0.73807   0.40888   0.59152   0.00000  Uiso   1.00
H404   H     0.00429   0.73252   0.67814   0.00000  Uiso   1.00
H405   H     0.79436   0.82854   0.38052   0.00000  Uiso   1.00
O406   O     0.78649   0.33575   0.53878   0.00000  Uiso   1.00
O407   O     0.13575   0.76037   0.65243   0.00000  Uiso   1.00
O408   O     0.86033   0.88635   0.26195   0.00000  Uiso   1.00
N409   N     0.87110   0.43142   0.48779   0.00000  Uiso   1.00
N410   N     0.11999   0.73400   0.56878   0.00000  Uiso   1.00
N411   N     0.92374   0.82378   0.29053   0.00000  Uiso   1.00
N412   N     0.78291   0.42693   0.55847   0.00000  Uiso   1.00
N413   N     0.03180   0.72951   0.63947   0.00000  Uiso   1.00
N414   N     0.83555   0.81929   0.36122   0.00000  Uiso   1.00
C415   C     0.84576   0.40265   0.04656   0.00000  Uiso   1.00
C416   C     0.85396   0.47016   0.04154   0.00000  Uiso   1.00
C417   C     0.89349   0.52213   0.99067   0.00000  Uiso   1.00
C418   C     0.89428   0.57986   0.99519   0.00000  Uiso   1.00
C419   C     0.91272   0.68384   0.97927   0.00000  Uiso   1.00
C420   C     0.86516   0.37447   0.10192   0.00000  Uiso   1.00
C421   C     0.91411   0.34598   0.10182   0.00000  Uiso   1.00
C422   C     0.92432   0.32315   0.15717   0.00000  Uiso   1.00
C423   C     0.96012   0.27853   0.23500   0.00000  Uiso   1.00
C424   C     0.77096   0.37026   0.06372   0.00000  Uiso   1.00
C425   C     0.74070   0.33821   0.03150   0.00000  Uiso   1.00
C426   C     0.67160   0.31182   0.05470   0.00000  Uiso   1.00
C427   C     0.56115   0.26066   0.07321   0.00000  Uiso   1.00
C428   C     0.77686   0.41275   0.14505   0.00000  Uiso   1.00
C429   C     0.81653   0.47564   0.09504   0.00000  Uiso   1.00
C430   C     0.81726   0.53331   0.09964   0.00000  Uiso   1.00
C431   C     0.85678   0.58536   0.04879   0.00000  Uiso   1.00
C432   C     0.82774   0.37995   0.15542   0.00000  Uiso   1.00
C433   C     0.83787   0.35715   0.21079   0.00000  Uiso   1.00
C434   C     0.88683   0.32864   0.21077   0.00000  Uiso   1.00
C435   C     0.73353   0.37574   0.11721   0.00000  Uiso   1.00
C436   C     0.66447   0.34939   0.14047   0.00000  Uiso   1.00
C437   C     0.63411   0.31731   0.10829   0.00000  Uiso   1.00
H438   H     0.87490   0.39838   0.00491   0.00000  Uiso   1.00
H439   H     0.92245   0.51786   0.94928   0.00000  Uiso   1.00
H440   H     0.94306   0.34174   0.06041   0.00000  Uiso   1.00
H441   H     0.76968   0.33397   0.99010   0.00000  Uiso   1.00
H442   H     0.95868   0.65276   0.91120   0.00000  Uiso   1.00
H443   H     0.00212   0.28136   0.14553   0.00000  Uiso   1.00
H444   H     0.63652   0.26499   0.99727   0.00000  Uiso   1.00
H445   H     0.74772   0.41702   0.18670   0.00000  Uiso   1.00
H446   H     0.78829   0.53754   0.14104   0.00000  Uiso   1.00
H447   H     0.80890   0.36141   0.25217   0.00000  Uiso   1.00
H448   H     0.63552   0.35364   0.18187   0.00000  Uiso   1.00
H449   H     0.84980   0.66872   0.06685   0.00000  Uiso   1.00
H450   H     0.89323   0.29732   0.30118   0.00000  Uiso   1.00
H451   H     0.52763   0.28096   0.15292   0.00000  Uiso   1.00
O452   O     0.93324   0.73968   0.95572   0.00000  Uiso   1.00
O453   O     0.99021   0.25241   0.26315   0.00000  Uiso   1.00
O454   O     0.51056   0.23094   0.06863   0.00000  Uiso   1.00
N455   N     0.92748   0.63998   0.95410   0.00000  Uiso   1.00
N456   N     0.96809   0.29275   0.17318   0.00000  Uiso   1.00
N457   N     0.62629   0.27743   0.03458   0.00000  Uiso   1.00
N458   N     0.86889   0.64857   0.03785   0.00000  Uiso   1.00
N459   N     0.90950   0.30134   0.25693   0.00000  Uiso   1.00
N460   N     0.56770   0.28602   0.11833   0.00000  Uiso   1.00
C461   C     0.88525   0.03317   0.64377   0.00000  Uiso   1.00
C462   C     0.85407   0.99456   0.60979   0.00000  Uiso   1.00
C463   C     0.82148   0.93080   0.63304   0.00000  Uiso   1.00
C464   C     0.79643   0.90417   0.59472   0.00000  Uiso   1.00
C465   C     0.74693   0.83877   0.55099   0.00000  Uiso   1.00
C466   C     0.95825   0.06630   0.60413   0.00000  Uiso   1.00
C467   C     0.01325   0.06286   0.62262   0.00000  Uiso   1.00
C468   C     0.07591   0.09663   0.57953   0.00000  Uiso   1.00
C469   C     0.18815   0.14264   0.52702   0.00000  Uiso   1.00
C470   C     0.85268   0.08392   0.64242   0.00000  Uiso   1.00
C471   C     0.81892   0.09530   0.69310   0.00000  Uiso   1.00
C472   C     0.79271   0.14392   0.68225   0.00000  Uiso   1.00
C473   C     0.74103   0.21727   0.68919   0.00000  Uiso   1.00
C474   C     0.89874   0.09926   0.53438   0.00000  Uiso   1.00
C475   C     0.86140   0.03047   0.55038   0.00000  Uiso   1.00
C476   C     0.83640   0.00393   0.51201   0.00000  Uiso   1.00
C477   C     0.80377   0.94014   0.53519   0.00000  Uiso   1.00
C478   C     0.96558   0.10220   0.54472   0.00000  Uiso   1.00
C479   C     0.02817   0.13599   0.50159   0.00000  Uiso   1.00
C480   C     0.08324   0.13260   0.52001   0.00000  Uiso   1.00
C481   C     0.86000   0.11982   0.58300   0.00000  Uiso   1.00
C482   C     0.83384   0.16842   0.57207   0.00000  Uiso   1.00
C483   C     0.80005   0.17988   0.62273   0.00000  Uiso   1.00
H484   H     0.87955   0.00522   0.69003   0.00000  Uiso   1.00
H485   H     0.81582   0.90304   0.67902   0.00000  Uiso   1.00
H486   H     0.00756   0.03508   0.66860   0.00000  Uiso   1.00
H487   H     0.81326   0.06752   0.73907   0.00000  Uiso   1.00
H488   H     0.74842   0.80558   0.64060   0.00000  Uiso   1.00
H489   H     0.15271   0.08402   0.61865   0.00000  Uiso   1.00
H490   H     0.74300   0.15241   0.76725   0.00000  Uiso   1.00
H491   H     0.90444   0.12721   0.48812   0.00000  Uiso   1.00
H492   H     0.84207   0.03172   0.46603   0.00000  Uiso   1.00
H493   H     0.03382   0.16376   0.45562   0.00000  Uiso   1.00
H494   H     0.83952   0.19620   0.52609   0.00000  Uiso   1.00
H495   H     0.76973   0.91002   0.46774   0.00000  Uiso   1.00
H496   H     0.17403   0.18847   0.44578   0.00000  Uiso   1.00
H497   H     0.76431   0.25685   0.59438   0.00000  Uiso   1.00
O498   O     0.71762   0.79278   0.54328   0.00000  Uiso   1.00
O499   O     0.24804   0.15809   0.51448   0.00000  Uiso   1.00
O500   O     0.71049   0.24782   0.70944   0.00000  Uiso   1.00
N501   N     0.76198   0.84326   0.60296   0.00000  Uiso   1.00
N502   N     0.13997   0.10359   0.58242   0.00000  Uiso   1.00
N503   N     0.75694   0.16753   0.72135   0.00000  Uiso   1.00
N504   N     0.77345   0.89946   0.50994   0.00000  Uiso   1.00
N505   N     0.15144   0.15978   0.48941   0.00000  Uiso   1.00
N506   N     0.76840   0.22373   0.62834   0.00000  Uiso   1.00
C507   C     0.46279   0.56463   0.38305   0.00000  Uiso   1.00
C508   C     0.41307   0.54360   0.44728   0.00000  Uiso   1.00
C509   C     0.42040   0.56968   0.49169   0.00000  Uiso   1.00
C510   C     0.36934   0.54377   0.54757   0.00000  Uiso   1.00
C511   C     0.30073   0.51874   0.64564   0.00000  Uiso   1.00
C512   C     0.48039   0.50730   0.37637   0.00000  Uiso   1.00
C513   C     0.54431   0.50286   0.36116   0.00000  Uiso   1.00
C514   C     0.54992   0.44638   0.35734   0.00000  Uiso   1.00
C515   C     0.58583   0.36499   0.34527   0.00000  Uiso   1.00
C516   C     0.42384   0.57967   0.33937   0.00000  Uiso   1.00
C517   C     0.44022   0.63607   0.29304   0.00000  Uiso   1.00
C518   C     0.39823   0.64052   0.25805   0.00000  Uiso   1.00
C519   C     0.34634   0.67150   0.18854   0.00000  Uiso   1.00
C520   C     0.35910   0.47223   0.40329   0.00000  Uiso   1.00
C521   C     0.35675   0.49341   0.45827   0.00000  Uiso   1.00
C522   C     0.30567   0.46746   0.51409   0.00000  Uiso   1.00
C523   C     0.31292   0.49350   0.55858   0.00000  Uiso   1.00
C524   C     0.42407   0.45711   0.38736   0.00000  Uiso   1.00
C525   C     0.42959   0.40063   0.38355   0.00000  Uiso   1.00
C526   C     0.49350   0.39610   0.36835   0.00000  Uiso   1.00
C527   C     0.36752   0.52948   0.35036   0.00000  Uiso   1.00
C528   C     0.32550   0.53384   0.31543   0.00000  Uiso   1.00
C529   C     0.34181   0.59024   0.26906   0.00000  Uiso   1.00
H530   H     0.50664   0.60370   0.37449   0.00000  Uiso   1.00
H531   H     0.46399   0.60852   0.48317   0.00000  Uiso   1.00
H532   H     0.58789   0.54170   0.35265   0.00000  Uiso   1.00
H533   H     0.48381   0.67490   0.28454   0.00000  Uiso   1.00
H534   H     0.39189   0.59171   0.60852   0.00000  Uiso   1.00
H535   H     0.65313   0.45084   0.33329   0.00000  Uiso   1.00
H536   H     0.43367   0.73170   0.18967   0.00000  Uiso   1.00
H537   H     0.31525   0.43316   0.41184   0.00000  Uiso   1.00
H538   H     0.26210   0.42862   0.52258   0.00000  Uiso   1.00
H539   H     0.38600   0.36180   0.39206   0.00000  Uiso   1.00
H540   H     0.28192   0.49500   0.32395   0.00000  Uiso   1.00
H541   H     0.22802   0.44570   0.64051   0.00000  Uiso   1.00
H542   H     0.48927   0.30482   0.36528   0.00000  Uiso   1.00
H543   H     0.26980   0.58569   0.22166   0.00000  Uiso   1.00
O544   O     0.27845   0.51879   0.69670   0.00000  Uiso   1.00
O545   O     0.62120   0.33397   0.33559   0.00000  Uiso   1.00
O546   O     0.33327   0.70245   0.14717   0.00000  Uiso   1.00
N547   N     0.36061   0.55798   0.60085   0.00000  Uiso   1.00
N548   N     0.60486   0.42627   0.34354   0.00000  Uiso   1.00
N549   N     0.39969   0.68885   0.20925   0.00000  Uiso   1.00
N550   N     0.27243   0.47941   0.61806   0.00000  Uiso   1.00
N551   N     0.51668   0.34770   0.36075   0.00000  Uiso   1.00
N552   N     0.31151   0.61028   0.22647   0.00000  Uiso   1.00
