data_job_02455
_audit_creation_date              2018-12-19
_audit_creation_method            'Materials Studio'
_symmetry_space_group_name_H-M    'P1'
_symmetry_Int_Tables_number       1
_symmetry_cell_setting            triclinic
loop_
_symmetry_equiv_pos_as_xyz
  x,y,z
_cell_length_a                    13.3994
_cell_length_b                    32.1737
_cell_length_c                    12.4724
_cell_angle_alpha                 90.0000
_cell_angle_beta                  73.5988
_cell_angle_gamma                 90.0000
loop_
_atom_site_label
_atom_site_type_symbol
_atom_site_fract_x
_atom_site_fract_y
_atom_site_fract_z
_atom_site_U_iso_or_equiv
_atom_site_adp_type
_atom_site_occupancy
C1     C     0.64701   0.09314   0.31818   0.00000  Uiso   1.00
C2     C     0.56961   0.10689   0.25605   0.00000  Uiso   1.00
C3     C     0.55551   0.08820   0.16111   0.00000  Uiso   1.00
C4     C     0.48081   0.10544   0.11679   0.00000  Uiso   1.00
C5     C     0.36956   0.12152   0.01283   0.00000  Uiso   1.00
C6     C     0.71445   0.13102   0.32165   0.00000  Uiso   1.00
C7     C     0.82213   0.13261   0.28187   0.00000  Uiso   1.00
C8     C     0.86936   0.17017   0.29279   0.00000  Uiso   1.00
C9     C     0.98298   0.22370   0.29075   0.00000  Uiso   1.00
C10    C     0.58325   0.08529   0.43861   0.00000  Uiso   1.00
C11    C     0.58062   0.04844   0.49720   0.00000  Uiso   1.00
C12    C     0.51739   0.04751   0.60661   0.00000  Uiso   1.00
C13    C     0.42730   0.03004   0.78617   0.00000  Uiso   1.00
C14    C     0.53943   0.15700   0.40832   0.00000  Uiso   1.00
C15    C     0.51119   0.14157   0.30501   0.00000  Uiso   1.00
C16    C     0.43649   0.15885   0.26083   0.00000  Uiso   1.00
C17    C     0.42227   0.14019   0.16583   0.00000  Uiso   1.00
C18    C     0.65603   0.16570   0.37060   0.00000  Uiso   1.00
C19    C     0.70311   0.20326   0.38159   0.00000  Uiso   1.00
C20    C     0.81082   0.20492   0.34183   0.00000  Uiso   1.00
C21    C     0.52481   0.11998   0.48757   0.00000  Uiso   1.00
C22    C     0.46159   0.11910   0.59691   0.00000  Uiso   1.00
C23    C     0.45886   0.08225   0.65565   0.00000  Uiso   1.00
H24    H     0.69250   0.06614   0.28007   0.00000  Uiso   1.00
H25    H     0.60075   0.06136   0.12324   0.00000  Uiso   1.00
H26    H     0.86732   0.10576   0.24400   0.00000  Uiso   1.00
H27    H     0.62584   0.02161   0.45929   0.00000  Uiso   1.00
H28    H     0.47328   0.07136   0.97093   0.00000  Uiso   1.00
H29    H     0.03537   0.16499   0.22559   0.00000  Uiso   1.00
H30    H     0.52617   0.98753   0.67957   0.00000  Uiso   1.00
H31    H     0.49394   0.18401   0.44643   0.00000  Uiso   1.00
H32    H     0.39128   0.18569   0.29873   0.00000  Uiso   1.00
H33    H     0.65787   0.23010   0.41948   0.00000  Uiso   1.00
H34    H     0.41639   0.14594   0.63477   0.00000  Uiso   1.00
H35    H     0.30327   0.17228   0.11336   0.00000  Uiso   1.00
H36    H     0.86537   0.26590   0.36802   0.00000  Uiso   1.00
H37    H     0.35616   0.08845   0.82200   0.00000  Uiso   1.00
O38    O     0.32435   0.12081   0.94196   0.00000  Uiso   1.00
O39    O     0.06180   0.24364   0.27608   0.00000  Uiso   1.00
O40    O     0.39373   0.01082   0.87169   0.00000  Uiso   1.00
N41    N     0.44734   0.09488   0.02473   0.00000  Uiso   1.00
N42    N     0.97287   0.18241   0.26281   0.00000  Uiso   1.00
N43    N     0.49682   0.01651   0.68726   0.00000  Uiso   1.00
N44    N     0.35586   0.14918   0.10137   0.00000  Uiso   1.00
N45    N     0.88139   0.23671   0.33945   0.00000  Uiso   1.00
N46    N     0.40534   0.07081   0.76390   0.00000  Uiso   1.00
C47    C     0.19689   0.59047   0.75527   0.00000  Uiso   1.00
C48    C     0.11905   0.60388   0.69335   0.00000  Uiso   1.00
C49    C     0.10519   0.58507   0.59844   0.00000  Uiso   1.00
C50    C     0.03001   0.60201   0.55432   0.00000  Uiso   1.00
C51    C     0.91819   0.61760   0.45066   0.00000  Uiso   1.00
C52    C     0.26354   0.62859   0.75868   0.00000  Uiso   1.00
C53    C     0.37117   0.63056   0.71872   0.00000  Uiso   1.00
C54    C     0.41761   0.66829   0.72962   0.00000  Uiso   1.00
C55    C     0.53012   0.72224   0.72746   0.00000  Uiso   1.00
C56    C     0.13347   0.58246   0.87575   0.00000  Uiso   1.00
C57    C     0.13174   0.54565   0.93424   0.00000  Uiso   1.00
C58    C     0.06869   0.54456   0.04371   0.00000  Uiso   1.00
C59    C     0.97923   0.52689   0.22333   0.00000  Uiso   1.00
C60    C     0.08802   0.65399   0.84569   0.00000  Uiso   1.00
C61    C     0.05992   0.63838   0.74246   0.00000  Uiso   1.00
C62    C     0.98474   0.65535   0.69848   0.00000  Uiso   1.00
C63    C     0.97076   0.63657   0.60352   0.00000  Uiso   1.00
C64    C     0.20441   0.66309   0.80779   0.00000  Uiso   1.00
C65    C     0.25071   0.70084   0.81875   0.00000  Uiso   1.00
C66    C     0.35837   0.70286   0.77882   0.00000  Uiso   1.00
C67    C     0.07433   0.61697   0.92486   0.00000  Uiso   1.00
C68    C     0.01128   0.61593   0.03427   0.00000  Uiso   1.00
C69    C     0.00945   0.57912   0.09291   0.00000  Uiso   1.00
H70    H     0.24293   0.56361   0.71704   0.00000  Uiso   1.00
H71    H     0.15098   0.55837   0.56045   0.00000  Uiso   1.00
H72    H     0.41691   0.60385   0.68073   0.00000  Uiso   1.00
H73    H     0.17751   0.51896   0.89621   0.00000  Uiso   1.00
H74    H     0.02298   0.56780   0.40849   0.00000  Uiso   1.00
H75    H     0.58371   0.66368   0.66212   0.00000  Uiso   1.00
H76    H     0.07890   0.48467   0.11651   0.00000  Uiso   1.00
H77    H     0.04198   0.68085   0.88393   0.00000  Uiso   1.00
H78    H     0.93899   0.68205   0.73650   0.00000  Uiso   1.00
H79    H     0.20492   0.72753   0.85677   0.00000  Uiso   1.00
H80    H     0.96553   0.64264   0.07225   0.00000  Uiso   1.00
H81    H     0.85092   0.66818   0.55136   0.00000  Uiso   1.00
H82    H     0.41166   0.76406   0.80501   0.00000  Uiso   1.00
H83    H     0.90684   0.58505   0.25939   0.00000  Uiso   1.00
O84    O     0.87285   0.61667   0.37991   0.00000  Uiso   1.00
O85    O     0.60851   0.74246   0.71269   0.00000  Uiso   1.00
O86    O     0.94621   0.50760   0.30883   0.00000  Uiso   1.00
N87    N     0.99660   0.59125   0.46236   0.00000  Uiso   1.00
N88    N     0.52085   0.68090   0.69948   0.00000  Uiso   1.00
N89    N     0.04892   0.51354   0.12430   0.00000  Uiso   1.00
N90    N     0.90402   0.64527   0.53924   0.00000  Uiso   1.00
N91    N     0.42827   0.73492   0.77636   0.00000  Uiso   1.00
N92    N     0.95634   0.56756   0.20118   0.00000  Uiso   1.00
C93    C     0.35299   0.59314   0.18182   0.00000  Uiso   1.00
C94    C     0.43039   0.60689   0.24395   0.00000  Uiso   1.00
C95    C     0.44449   0.58820   0.33889   0.00000  Uiso   1.00
C96    C     0.51919   0.60544   0.38321   0.00000  Uiso   1.00
C97    C     0.63044   0.62152   0.48717   0.00000  Uiso   1.00
C98    C     0.28555   0.63102   0.17835   0.00000  Uiso   1.00
C99    C     0.17787   0.63261   0.21813   0.00000  Uiso   1.00
C100   C     0.13064   0.67017   0.20721   0.00000  Uiso   1.00
C101   C     0.01702   0.72370   0.20925   0.00000  Uiso   1.00
C102   C     0.41675   0.58529   0.06139   0.00000  Uiso   1.00
C103   C     0.41938   0.54844   0.00280   0.00000  Uiso   1.00
C104   C     0.48261   0.54751   0.89339   0.00000  Uiso   1.00
C105   C     0.57270   0.53004   0.71383   0.00000  Uiso   1.00
C106   C     0.46057   0.65700   0.09168   0.00000  Uiso   1.00
C107   C     0.48881   0.64157   0.19499   0.00000  Uiso   1.00
C108   C     0.56351   0.65885   0.23917   0.00000  Uiso   1.00
C109   C     0.57773   0.64019   0.33417   0.00000  Uiso   1.00
C110   C     0.34397   0.66570   0.12940   0.00000  Uiso   1.00
C111   C     0.29689   0.70326   0.11841   0.00000  Uiso   1.00
C112   C     0.18918   0.70492   0.15817   0.00000  Uiso   1.00
C113   C     0.47519   0.61998   0.01243   0.00000  Uiso   1.00
C114   C     0.53841   0.61910   0.90309   0.00000  Uiso   1.00
C115   C     0.54114   0.58225   0.84435   0.00000  Uiso   1.00
H116   H     0.30750   0.56614   0.21993   0.00000  Uiso   1.00
H117   H     0.39925   0.56136   0.37676   0.00000  Uiso   1.00
H118   H     0.13268   0.60576   0.25600   0.00000  Uiso   1.00
H119   H     0.37416   0.52161   0.04071   0.00000  Uiso   1.00
H120   H     0.52672   0.57136   0.52907   0.00000  Uiso   1.00
H121   H     0.96463   0.66499   0.27441   0.00000  Uiso   1.00
H122   H     0.47383   0.48753   0.82043   0.00000  Uiso   1.00
H123   H     0.50606   0.68401   0.05357   0.00000  Uiso   1.00
H124   H     0.60872   0.68569   0.20127   0.00000  Uiso   1.00
H125   H     0.34213   0.73010   0.08052   0.00000  Uiso   1.00
H126   H     0.58361   0.64594   0.86523   0.00000  Uiso   1.00
H127   H     0.69673   0.67228   0.38664   0.00000  Uiso   1.00
H128   H     0.13463   0.76590   0.13198   0.00000  Uiso   1.00
H129   H     0.64384   0.58845   0.67800   0.00000  Uiso   1.00
O130   O     0.67565   0.62081   0.55804   0.00000  Uiso   1.00
O131   O     0.93820   0.74364   0.22392   0.00000  Uiso   1.00
O132   O     0.60627   0.51082   0.62831   0.00000  Uiso   1.00
N133   N     0.55266   0.59488   0.47527   0.00000  Uiso   1.00
N134   N     0.02713   0.68241   0.23719   0.00000  Uiso   1.00
N135   N     0.50318   0.51651   0.81274   0.00000  Uiso   1.00
N136   N     0.64414   0.64918   0.39863   0.00000  Uiso   1.00
N137   N     0.11861   0.73671   0.16055   0.00000  Uiso   1.00
N138   N     0.59466   0.57081   0.73610   0.00000  Uiso   1.00
C139   C     0.80311   0.09047   0.74473   0.00000  Uiso   1.00
C140   C     0.88095   0.10388   0.80665   0.00000  Uiso   1.00
C141   C     0.89481   0.08507   0.90156   0.00000  Uiso   1.00
C142   C     0.96999   0.10201   0.94568   0.00000  Uiso   1.00
C143   C     0.08181   0.11760   0.04934   0.00000  Uiso   1.00
C144   C     0.73646   0.12859   0.74132   0.00000  Uiso   1.00
C145   C     0.62883   0.13056   0.78128   0.00000  Uiso   1.00
C146   C     0.58239   0.16829   0.77038   0.00000  Uiso   1.00
C147   C     0.46988   0.22224   0.77254   0.00000  Uiso   1.00
C148   C     0.86653   0.08246   0.62425   0.00000  Uiso   1.00
C149   C     0.86826   0.04565   0.56576   0.00000  Uiso   1.00
C150   C     0.93131   0.04456   0.45629   0.00000  Uiso   1.00
C151   C     0.02077   0.02689   0.27667   0.00000  Uiso   1.00
C152   C     0.91198   0.15399   0.65431   0.00000  Uiso   1.00
C153   C     0.94008   0.13838   0.75754   0.00000  Uiso   1.00
C154   C     0.01526   0.15535   0.80152   0.00000  Uiso   1.00
C155   C     0.02924   0.13657   0.89648   0.00000  Uiso   1.00
C156   C     0.79559   0.16309   0.69221   0.00000  Uiso   1.00
C157   C     0.74929   0.20084   0.68125   0.00000  Uiso   1.00
C158   C     0.64163   0.20286   0.72118   0.00000  Uiso   1.00
C159   C     0.92567   0.11697   0.57514   0.00000  Uiso   1.00
C160   C     0.98872   0.11593   0.46573   0.00000  Uiso   1.00
C161   C     0.99055   0.07912   0.40709   0.00000  Uiso   1.00
H162   H     0.75707   0.06361   0.78296   0.00000  Uiso   1.00
H163   H     0.84902   0.05837   0.93955   0.00000  Uiso   1.00
H164   H     0.58309   0.10385   0.81927   0.00000  Uiso   1.00
H165   H     0.82249   0.01896   0.60379   0.00000  Uiso   1.00
H166   H     0.97702   0.06780   0.09151   0.00000  Uiso   1.00
H167   H     0.41629   0.16368   0.83788   0.00000  Uiso   1.00
H168   H     0.92110   0.98467   0.38349   0.00000  Uiso   1.00
H169   H     0.95802   0.18085   0.61607   0.00000  Uiso   1.00
H170   H     0.06101   0.18205   0.76350   0.00000  Uiso   1.00
H171   H     0.79508   0.22753   0.64323   0.00000  Uiso   1.00
H172   H     0.03447   0.14264   0.42775   0.00000  Uiso   1.00
H173   H     0.14908   0.16818   0.94864   0.00000  Uiso   1.00
H174   H     0.58834   0.26406   0.69499   0.00000  Uiso   1.00
H175   H     0.09316   0.08505   0.24061   0.00000  Uiso   1.00
O176   O     0.12715   0.11667   0.12009   0.00000  Uiso   1.00
O177   O     0.39149   0.24246   0.78731   0.00000  Uiso   1.00
O178   O     0.05379   0.00760   0.19117   0.00000  Uiso   1.00
N179   N     0.00340   0.09125   0.03764   0.00000  Uiso   1.00
N180   N     0.47915   0.18090   0.80052   0.00000  Uiso   1.00
N181   N     0.95108   0.01354   0.37570   0.00000  Uiso   1.00
N182   N     0.09598   0.14527   0.96076   0.00000  Uiso   1.00
N183   N     0.57173   0.23492   0.72364   0.00000  Uiso   1.00
N184   N     0.04366   0.06756   0.29882   0.00000  Uiso   1.00
C185   C     0.35299   0.90686   0.68182   0.00000  Uiso   1.00
C186   C     0.43039   0.89311   0.74395   0.00000  Uiso   1.00
C187   C     0.44449   0.91180   0.83889   0.00000  Uiso   1.00
C188   C     0.51919   0.89456   0.88321   0.00000  Uiso   1.00
C189   C     0.63044   0.87848   0.98717   0.00000  Uiso   1.00
C190   C     0.28555   0.86898   0.67835   0.00000  Uiso   1.00
C191   C     0.17787   0.86739   0.71813   0.00000  Uiso   1.00
C192   C     0.13064   0.82983   0.70721   0.00000  Uiso   1.00
C193   C     0.01702   0.77630   0.70925   0.00000  Uiso   1.00
C194   C     0.41675   0.91471   0.56139   0.00000  Uiso   1.00
C195   C     0.41938   0.95156   0.50280   0.00000  Uiso   1.00
C196   C     0.48261   0.95249   0.39339   0.00000  Uiso   1.00
C197   C     0.57270   0.96996   0.21383   0.00000  Uiso   1.00
C198   C     0.46057   0.84300   0.59168   0.00000  Uiso   1.00
C199   C     0.48881   0.85843   0.69499   0.00000  Uiso   1.00
C200   C     0.56351   0.84115   0.73917   0.00000  Uiso   1.00
C201   C     0.57773   0.85981   0.83417   0.00000  Uiso   1.00
C202   C     0.34397   0.83430   0.62940   0.00000  Uiso   1.00
C203   C     0.29689   0.79674   0.61841   0.00000  Uiso   1.00
C204   C     0.18918   0.79508   0.65817   0.00000  Uiso   1.00
C205   C     0.47519   0.88002   0.51243   0.00000  Uiso   1.00
C206   C     0.53841   0.88090   0.40309   0.00000  Uiso   1.00
C207   C     0.54114   0.91775   0.34435   0.00000  Uiso   1.00
H208   H     0.30750   0.93386   0.71993   0.00000  Uiso   1.00
H209   H     0.39925   0.93864   0.87676   0.00000  Uiso   1.00
H210   H     0.13268   0.89424   0.75600   0.00000  Uiso   1.00
H211   H     0.37416   0.97839   0.54071   0.00000  Uiso   1.00
H212   H     0.52672   0.92864   0.02907   0.00000  Uiso   1.00
H213   H     0.96463   0.83501   0.77441   0.00000  Uiso   1.00
H214   H     0.47383   0.01247   0.32043   0.00000  Uiso   1.00
H215   H     0.50606   0.81599   0.55357   0.00000  Uiso   1.00
H216   H     0.60872   0.81431   0.70127   0.00000  Uiso   1.00
H217   H     0.34213   0.76990   0.58052   0.00000  Uiso   1.00
H218   H     0.58361   0.85406   0.36523   0.00000  Uiso   1.00
H219   H     0.69673   0.82772   0.88664   0.00000  Uiso   1.00
H220   H     0.13463   0.73410   0.63198   0.00000  Uiso   1.00
H221   H     0.64384   0.91155   0.17800   0.00000  Uiso   1.00
O222   O     0.67565   0.87919   0.05804   0.00000  Uiso   1.00
O223   O     0.93820   0.75636   0.72392   0.00000  Uiso   1.00
O224   O     0.60627   0.98918   0.12831   0.00000  Uiso   1.00
N225   N     0.55266   0.90512   0.97527   0.00000  Uiso   1.00
N226   N     0.02713   0.81759   0.73719   0.00000  Uiso   1.00
N227   N     0.50318   0.98349   0.31274   0.00000  Uiso   1.00
N228   N     0.64414   0.85082   0.89863   0.00000  Uiso   1.00
N229   N     0.11861   0.76329   0.66055   0.00000  Uiso   1.00
N230   N     0.59466   0.92919   0.23610   0.00000  Uiso   1.00
C231   C     0.80311   0.40953   0.24473   0.00000  Uiso   1.00
C232   C     0.88095   0.39612   0.30665   0.00000  Uiso   1.00
C233   C     0.89481   0.41493   0.40156   0.00000  Uiso   1.00
C234   C     0.96999   0.39799   0.44568   0.00000  Uiso   1.00
C235   C     0.08181   0.38240   0.54934   0.00000  Uiso   1.00
C236   C     0.73646   0.37141   0.24132   0.00000  Uiso   1.00
C237   C     0.62883   0.36944   0.28128   0.00000  Uiso   1.00
C238   C     0.58239   0.33171   0.27038   0.00000  Uiso   1.00
C239   C     0.46988   0.27776   0.27254   0.00000  Uiso   1.00
C240   C     0.86653   0.41754   0.12425   0.00000  Uiso   1.00
C241   C     0.86826   0.45435   0.06576   0.00000  Uiso   1.00
C242   C     0.93131   0.45544   0.95629   0.00000  Uiso   1.00
C243   C     0.02077   0.47311   0.77667   0.00000  Uiso   1.00
C244   C     0.91198   0.34601   0.15431   0.00000  Uiso   1.00
C245   C     0.94008   0.36162   0.25754   0.00000  Uiso   1.00
C246   C     0.01526   0.34465   0.30152   0.00000  Uiso   1.00
C247   C     0.02924   0.36343   0.39648   0.00000  Uiso   1.00
C248   C     0.79559   0.33691   0.19221   0.00000  Uiso   1.00
C249   C     0.74929   0.29916   0.18125   0.00000  Uiso   1.00
C250   C     0.64163   0.29714   0.22118   0.00000  Uiso   1.00
C251   C     0.92567   0.38303   0.07514   0.00000  Uiso   1.00
C252   C     0.98872   0.38407   0.96573   0.00000  Uiso   1.00
C253   C     0.99055   0.42088   0.90709   0.00000  Uiso   1.00
H254   H     0.75707   0.43639   0.28296   0.00000  Uiso   1.00
H255   H     0.84902   0.44163   0.43955   0.00000  Uiso   1.00
H256   H     0.58309   0.39615   0.31927   0.00000  Uiso   1.00
H257   H     0.82249   0.48104   0.10379   0.00000  Uiso   1.00
H258   H     0.97702   0.43220   0.59151   0.00000  Uiso   1.00
H259   H     0.41629   0.33632   0.33788   0.00000  Uiso   1.00
H260   H     0.92110   0.51533   0.88349   0.00000  Uiso   1.00
H261   H     0.95802   0.31915   0.11607   0.00000  Uiso   1.00
H262   H     0.06101   0.31795   0.26350   0.00000  Uiso   1.00
H263   H     0.79508   0.27247   0.14323   0.00000  Uiso   1.00
H264   H     0.03447   0.35736   0.92775   0.00000  Uiso   1.00
H265   H     0.14908   0.33182   0.44864   0.00000  Uiso   1.00
H266   H     0.58834   0.23594   0.19499   0.00000  Uiso   1.00
H267   H     0.09316   0.41495   0.74061   0.00000  Uiso   1.00
O268   O     0.12715   0.38333   0.62009   0.00000  Uiso   1.00
O269   O     0.39149   0.25754   0.28731   0.00000  Uiso   1.00
O270   O     0.05379   0.49240   0.69117   0.00000  Uiso   1.00
N271   N     0.00340   0.40875   0.53764   0.00000  Uiso   1.00
N272   N     0.47915   0.31910   0.30052   0.00000  Uiso   1.00
N273   N     0.95108   0.48646   0.87570   0.00000  Uiso   1.00
N274   N     0.09598   0.35473   0.46076   0.00000  Uiso   1.00
N275   N     0.57173   0.26508   0.22364   0.00000  Uiso   1.00
N276   N     0.04366   0.43244   0.79882   0.00000  Uiso   1.00
C277   C     0.64701   0.40686   0.81818   0.00000  Uiso   1.00
C278   C     0.56961   0.39311   0.75605   0.00000  Uiso   1.00
C279   C     0.55551   0.41180   0.66111   0.00000  Uiso   1.00
C280   C     0.48081   0.39456   0.61679   0.00000  Uiso   1.00
C281   C     0.36956   0.37848   0.51283   0.00000  Uiso   1.00
C282   C     0.71445   0.36898   0.82165   0.00000  Uiso   1.00
C283   C     0.82213   0.36739   0.78187   0.00000  Uiso   1.00
C284   C     0.86936   0.32983   0.79279   0.00000  Uiso   1.00
C285   C     0.98298   0.27630   0.79075   0.00000  Uiso   1.00
C286   C     0.58325   0.41471   0.93861   0.00000  Uiso   1.00
C287   C     0.58062   0.45156   0.99720   0.00000  Uiso   1.00
C288   C     0.51739   0.45249   0.10661   0.00000  Uiso   1.00
C289   C     0.42730   0.46996   0.28617   0.00000  Uiso   1.00
C290   C     0.53943   0.34300   0.90832   0.00000  Uiso   1.00
C291   C     0.51119   0.35843   0.80501   0.00000  Uiso   1.00
C292   C     0.43649   0.34115   0.76083   0.00000  Uiso   1.00
C293   C     0.42227   0.35981   0.66583   0.00000  Uiso   1.00
C294   C     0.65603   0.33430   0.87060   0.00000  Uiso   1.00
C295   C     0.70311   0.29674   0.88159   0.00000  Uiso   1.00
C296   C     0.81082   0.29508   0.84183   0.00000  Uiso   1.00
C297   C     0.52481   0.38002   0.98757   0.00000  Uiso   1.00
C298   C     0.46159   0.38090   0.09691   0.00000  Uiso   1.00
C299   C     0.45886   0.41775   0.15565   0.00000  Uiso   1.00
H300   H     0.69250   0.43386   0.78007   0.00000  Uiso   1.00
H301   H     0.60075   0.43864   0.62324   0.00000  Uiso   1.00
H302   H     0.86732   0.39424   0.74400   0.00000  Uiso   1.00
H303   H     0.62584   0.47839   0.95929   0.00000  Uiso   1.00
H304   H     0.47328   0.42864   0.47093   0.00000  Uiso   1.00
H305   H     0.03537   0.33501   0.72559   0.00000  Uiso   1.00
H306   H     0.52617   0.51247   0.17957   0.00000  Uiso   1.00
H307   H     0.49394   0.31599   0.94643   0.00000  Uiso   1.00
H308   H     0.39128   0.31431   0.79873   0.00000  Uiso   1.00
H309   H     0.65787   0.26990   0.91948   0.00000  Uiso   1.00
H310   H     0.41639   0.35406   0.13477   0.00000  Uiso   1.00
H311   H     0.30327   0.32772   0.61336   0.00000  Uiso   1.00
H312   H     0.86537   0.23410   0.86802   0.00000  Uiso   1.00
H313   H     0.35616   0.41155   0.32200   0.00000  Uiso   1.00
O314   O     0.32435   0.37919   0.44196   0.00000  Uiso   1.00
O315   O     0.06180   0.25636   0.77608   0.00000  Uiso   1.00
O316   O     0.39373   0.48918   0.37169   0.00000  Uiso   1.00
N317   N     0.44734   0.40512   0.52473   0.00000  Uiso   1.00
N318   N     0.97287   0.31759   0.76281   0.00000  Uiso   1.00
N319   N     0.49682   0.48349   0.18726   0.00000  Uiso   1.00
N320   N     0.35586   0.35082   0.60137   0.00000  Uiso   1.00
N321   N     0.88139   0.26329   0.83945   0.00000  Uiso   1.00
N322   N     0.40534   0.42919   0.26390   0.00000  Uiso   1.00
C323   C     0.19689   0.90953   0.25527   0.00000  Uiso   1.00
C324   C     0.11905   0.89612   0.19335   0.00000  Uiso   1.00
C325   C     0.10519   0.91493   0.09844   0.00000  Uiso   1.00
C326   C     0.03001   0.89799   0.05432   0.00000  Uiso   1.00
C327   C     0.91819   0.88240   0.95066   0.00000  Uiso   1.00
C328   C     0.26354   0.87141   0.25868   0.00000  Uiso   1.00
C329   C     0.37117   0.86944   0.21872   0.00000  Uiso   1.00
C330   C     0.41761   0.83171   0.22962   0.00000  Uiso   1.00
C331   C     0.53012   0.77776   0.22746   0.00000  Uiso   1.00
C332   C     0.13347   0.91754   0.37575   0.00000  Uiso   1.00
C333   C     0.13174   0.95435   0.43424   0.00000  Uiso   1.00
C334   C     0.06869   0.95544   0.54371   0.00000  Uiso   1.00
C335   C     0.97923   0.97311   0.72333   0.00000  Uiso   1.00
C336   C     0.08802   0.84601   0.34569   0.00000  Uiso   1.00
C337   C     0.05992   0.86162   0.24246   0.00000  Uiso   1.00
C338   C     0.98474   0.84465   0.19848   0.00000  Uiso   1.00
C339   C     0.97076   0.86343   0.10352   0.00000  Uiso   1.00
C340   C     0.20441   0.83691   0.30779   0.00000  Uiso   1.00
C341   C     0.25071   0.79916   0.31875   0.00000  Uiso   1.00
C342   C     0.35837   0.79714   0.27882   0.00000  Uiso   1.00
C343   C     0.07433   0.88303   0.42486   0.00000  Uiso   1.00
C344   C     0.01128   0.88407   0.53427   0.00000  Uiso   1.00
C345   C     0.00945   0.92088   0.59291   0.00000  Uiso   1.00
H346   H     0.24293   0.93639   0.21704   0.00000  Uiso   1.00
H347   H     0.15098   0.94163   0.06045   0.00000  Uiso   1.00
H348   H     0.41691   0.89615   0.18073   0.00000  Uiso   1.00
H349   H     0.17751   0.98104   0.39621   0.00000  Uiso   1.00
H350   H     0.02298   0.93220   0.90849   0.00000  Uiso   1.00
H351   H     0.58371   0.83632   0.16212   0.00000  Uiso   1.00
H352   H     0.07890   0.01533   0.61651   0.00000  Uiso   1.00
H353   H     0.04198   0.81915   0.38393   0.00000  Uiso   1.00
H354   H     0.93899   0.81795   0.23650   0.00000  Uiso   1.00
H355   H     0.20492   0.77247   0.35677   0.00000  Uiso   1.00
H356   H     0.96553   0.85736   0.57225   0.00000  Uiso   1.00
H357   H     0.85092   0.83182   0.05136   0.00000  Uiso   1.00
H358   H     0.41166   0.73594   0.30501   0.00000  Uiso   1.00
H359   H     0.90684   0.91495   0.75939   0.00000  Uiso   1.00
O360   O     0.87285   0.88333   0.87991   0.00000  Uiso   1.00
O361   O     0.60851   0.75754   0.21269   0.00000  Uiso   1.00
O362   O     0.94621   0.99240   0.80883   0.00000  Uiso   1.00
N363   N     0.99660   0.90875   0.96236   0.00000  Uiso   1.00
N364   N     0.52085   0.81910   0.19948   0.00000  Uiso   1.00
N365   N     0.04892   0.98646   0.62430   0.00000  Uiso   1.00
N366   N     0.90402   0.85473   0.03924   0.00000  Uiso   1.00
N367   N     0.42827   0.76508   0.27636   0.00000  Uiso   1.00
N368   N     0.95634   0.93244   0.70118   0.00000  Uiso   1.00
