data_job_05959
_audit_creation_date              2018-12-19
_audit_creation_method            'Materials Studio'
_symmetry_space_group_name_H-M    'P1'
_symmetry_Int_Tables_number       1
_symmetry_cell_setting            triclinic
loop_
_symmetry_equiv_pos_as_xyz
  x,y,z
_cell_length_a                    16.3362
_cell_length_b                    15.4855
_cell_length_c                    15.1041
_cell_angle_alpha                 83.2437
_cell_angle_beta                  82.7737
_cell_angle_gamma                 83.2672
loop_
_atom_site_label
_atom_site_type_symbol
_atom_site_fract_x
_atom_site_fract_y
_atom_site_fract_z
_atom_site_U_iso_or_equiv
_atom_site_adp_type
_atom_site_occupancy
C1     C     0.70259   0.00921   0.63953   0.00000  Uiso   1.00
C2     C     0.64266   0.07626   0.59154   0.00000  Uiso   1.00
C3     C     0.55673   0.08166   0.60664   0.00000  Uiso   1.00
C4     C     0.51294   0.14766   0.55582   0.00000  Uiso   1.00
C5     C     0.41368   0.24286   0.49094   0.00000  Uiso   1.00
C6     C     0.75771   0.96351   0.56611   0.00000  Uiso   1.00
C7     C     0.76853   0.87411   0.55985   0.00000  Uiso   1.00
C8     C     0.82160   0.84520   0.48763   0.00000  Uiso   1.00
C9     C     0.90101   0.76535   0.38331   0.00000  Uiso   1.00
C10    C     0.75881   0.06159   0.68070   0.00000  Uiso   1.00
C11    C     0.77058   0.05463   0.77078   0.00000  Uiso   1.00
C12    C     0.82459   0.10828   0.79503   0.00000  Uiso   1.00
C13    C     0.90571   0.18071   0.86863   0.00000  Uiso   1.00
C14    C     0.77762   0.11682   0.52243   0.00000  Uiso   1.00
C15    C     0.68341   0.13471   0.52793   0.00000  Uiso   1.00
C16    C     0.63974   0.20073   0.47708   0.00000  Uiso   1.00
C17    C     0.55376   0.20622   0.49211   0.00000  Uiso   1.00
C18    C     0.79846   0.02196   0.50251   0.00000  Uiso   1.00
C19    C     0.85154   0.99317   0.43029   0.00000  Uiso   1.00
C20    C     0.86242   0.90375   0.42391   0.00000  Uiso   1.00
C21    C     0.79957   0.12004   0.61710   0.00000  Uiso   1.00
C22    C     0.85358   0.17370   0.64122   0.00000  Uiso   1.00
C23    C     0.86542   0.16684   0.73132   0.00000  Uiso   1.00
H24    H     0.67087   0.96370   0.68905   0.00000  Uiso   1.00
H25    H     0.52522   0.03641   0.65586   0.00000  Uiso   1.00
H26    H     0.73699   0.82889   0.60908   0.00000  Uiso   1.00
H27    H     0.73903   0.00939   0.81997   0.00000  Uiso   1.00
H28    H     0.38171   0.14278   0.59099   0.00000  Uiso   1.00
H29    H     0.82826   0.70522   0.49237   0.00000  Uiso   1.00
H30    H     0.83257   0.08584   0.93709   0.00000  Uiso   1.00
H31    H     0.80935   0.16233   0.47292   0.00000  Uiso   1.00
H32    H     0.67129   0.24595   0.42787   0.00000  Uiso   1.00
H33    H     0.88306   0.03843   0.38109   0.00000  Uiso   1.00
H34    H     0.88511   0.21893   0.59198   0.00000  Uiso   1.00
H35    H     0.50027   0.31285   0.40594   0.00000  Uiso   1.00
H36    H     0.94683   0.87528   0.30733   0.00000  Uiso   1.00
H37    H     0.95113   0.25591   0.75204   0.00000  Uiso   1.00
O38    O     0.34767   0.27922   0.47271   0.00000  Uiso   1.00
O39    O     0.93355   0.70515   0.34334   0.00000  Uiso   1.00
O40    O     0.93920   0.20452   0.92679   0.00000  Uiso   1.00
N41    N     0.42856   0.17134   0.55363   0.00000  Uiso   1.00
N42    N     0.84605   0.76225   0.46142   0.00000  Uiso   1.00
N43    N     0.85010   0.11808   0.87719   0.00000  Uiso   1.00
N44    N     0.49235   0.26286   0.45406   0.00000  Uiso   1.00
N45    N     0.90985   0.85376   0.36185   0.00000  Uiso   1.00
N46    N     0.91389   0.20959   0.77762   0.00000  Uiso   1.00
C47    C     0.63668   0.70102   0.00817   0.00000  Uiso   1.00
C48    C     0.59166   0.63775   0.07725   0.00000  Uiso   1.00
C49    C     0.60481   0.54720   0.08262   0.00000  Uiso   1.00
C50    C     0.55733   0.50093   0.15066   0.00000  Uiso   1.00
C51    C     0.49629   0.39616   0.24871   0.00000  Uiso   1.00
C52    C     0.56928   0.75921   0.96189   0.00000  Uiso   1.00
C53    C     0.56363   0.77079   0.87026   0.00000  Uiso   1.00
C54    C     0.49732   0.82677   0.84118   0.00000  Uiso   1.00
C55    C     0.40158   0.91063   0.76012   0.00000  Uiso   1.00
C56    C     0.67529   0.76015   0.06161   0.00000  Uiso   1.00
C57    C     0.75876   0.77254   0.05381   0.00000  Uiso   1.00
C58    C     0.78170   0.82934   0.10869   0.00000  Uiso   1.00
C59    C     0.85055   0.91465   0.18247   0.00000  Uiso   1.00
C60    C     0.52898   0.77987   0.11946   0.00000  Uiso   1.00
C61    C     0.53315   0.68057   0.13770   0.00000  Uiso   1.00
C62    C     0.48564   0.63443   0.20576   0.00000  Uiso   1.00
C63    C     0.49872   0.54383   0.21122   0.00000  Uiso   1.00
C64    C     0.51078   0.80203   0.02234   0.00000  Uiso   1.00
C65    C     0.44447   0.85802   0.99339   0.00000  Uiso   1.00
C66    C     0.43872   0.86968   0.90174   0.00000  Uiso   1.00
C67    C     0.61679   0.80297   0.12207   0.00000  Uiso   1.00
C68    C     0.63960   0.85977   0.17696   0.00000  Uiso   1.00
C69    C     0.72310   0.87224   0.16925   0.00000  Uiso   1.00
H70    H     0.68222   0.66768   0.96110   0.00000  Uiso   1.00
H71    H     0.65008   0.51408   0.03582   0.00000  Uiso   1.00
H72    H     0.60892   0.73764   0.82349   0.00000  Uiso   1.00
H73    H     0.80402   0.73939   0.00703   0.00000  Uiso   1.00
H74    H     0.58862   0.36266   0.14530   0.00000  Uiso   1.00
H75    H     0.50185   0.83408   0.69759   0.00000  Uiso   1.00
H76    H     0.91325   0.83777   0.08461   0.00000  Uiso   1.00
H77    H     0.48343   0.81322   0.16653   0.00000  Uiso   1.00
H78    H     0.44038   0.66759   0.25253   0.00000  Uiso   1.00
H79    H     0.39921   0.89115   0.04019   0.00000  Uiso   1.00
H80    H     0.59431   0.89290   0.22373   0.00000  Uiso   1.00
H81    H     0.41842   0.48726   0.32119   0.00000  Uiso   1.00
H82    H     0.33164   0.95868   0.87347   0.00000  Uiso   1.00
H83    H     0.74305   0.96237   0.26049   0.00000  Uiso   1.00
O84    O     0.47877   0.32654   0.28609   0.00000  Uiso   1.00
O85    O     0.36493   0.94504   0.69871   0.00000  Uiso   1.00
O86    O     0.90468   0.94987   0.20647   0.00000  Uiso   1.00
N87    N     0.55449   0.41197   0.17490   0.00000  Uiso   1.00
N88    N     0.47335   0.85271   0.75632   0.00000  Uiso   1.00
N89    N     0.85797   0.85618   0.11814   0.00000  Uiso   1.00
N90    N     0.46290   0.47902   0.26955   0.00000  Uiso   1.00
N91    N     0.38176   0.91975   0.85097   0.00000  Uiso   1.00
N92    N     0.76639   0.92322   0.21278   0.00000  Uiso   1.00
C93    C     0.01124   0.63844   0.70029   0.00000  Uiso   1.00
C94    C     0.07478   0.59112   0.63485   0.00000  Uiso   1.00
C95    C     0.07992   0.60516   0.54196   0.00000  Uiso   1.00
C96    C     0.14245   0.55522   0.49396   0.00000  Uiso   1.00
C97    C     0.23267   0.49110   0.38574   0.00000  Uiso   1.00
C98    C     0.96774   0.56731   0.76027   0.00000  Uiso   1.00
C99    C     0.88288   0.56135   0.77283   0.00000  Uiso   1.00
C100   C     0.85531   0.49138   0.83042   0.00000  Uiso   1.00
C101   C     0.77934   0.39034   0.91696   0.00000  Uiso   1.00
C102   C     0.06104   0.67898   0.76055   0.00000  Uiso   1.00
C103   C     0.05462   0.76692   0.77338   0.00000  Uiso   1.00
C104   C     0.10559   0.79096   0.83123   0.00000  Uiso   1.00
C105   C     0.17448   0.86331   0.91822   0.00000  Uiso   1.00
C106   C     0.11317   0.52478   0.78025   0.00000  Uiso   1.00
C107   C     0.13014   0.52938   0.67828   0.00000  Uiso   1.00
C108   C     0.19269   0.47941   0.63042   0.00000  Uiso   1.00
C109   C     0.19792   0.49337   0.53747   0.00000  Uiso   1.00
C110   C     0.02310   0.50558   0.80370   0.00000  Uiso   1.00
C111   C     0.99565   0.43560   0.86129   0.00000  Uiso   1.00
C112   C     0.91078   0.42953   0.87393   0.00000  Uiso   1.00
C113   C     0.11641   0.61725   0.80398   0.00000  Uiso   1.00
C114   C     0.16739   0.64116   0.86184   0.00000  Uiso   1.00
C115   C     0.16105   0.72911   0.87474   0.00000  Uiso   1.00
H116   H     0.96813   0.68650   0.66648   0.00000  Uiso   1.00
H117   H     0.03705   0.65294   0.50837   0.00000  Uiso   1.00
H118   H     0.84005   0.60914   0.73922   0.00000  Uiso   1.00
H119   H     0.01177   0.81467   0.73976   0.00000  Uiso   1.00
H120   H     0.13786   0.58848   0.35222   0.00000  Uiso   1.00
H121   H     0.72247   0.49615   0.83899   0.00000  Uiso   1.00
H122   H     0.08456   0.92955   0.84015   0.00000  Uiso   1.00
H123   H     0.15627   0.47671   0.81406   0.00000  Uiso   1.00
H124   H     0.23553   0.43164   0.66404   0.00000  Uiso   1.00
H125   H     0.03852   0.38784   0.89489   0.00000  Uiso   1.00
H126   H     0.21023   0.59337   0.89543   0.00000  Uiso   1.00
H127   H     0.29895   0.40886   0.47857   0.00000  Uiso   1.00
H128   H     0.88355   0.31653   0.96535   0.00000  Uiso   1.00
H129   H     0.24564   0.74993   0.96650   0.00000  Uiso   1.00
O130   O     0.26713   0.47278   0.31405   0.00000  Uiso   1.00
O131   O     0.72214   0.35166   0.95269   0.00000  Uiso   1.00
O132   O     0.19720   0.92027   0.95419   0.00000  Uiso   1.00
N133   N     0.16491   0.55240   0.40255   0.00000  Uiso   1.00
N134   N     0.77654   0.46607   0.85764   0.00000  Uiso   1.00
N135   N     0.11505   0.87126   0.85874   0.00000  Uiso   1.00
N136   N     0.25159   0.45575   0.47054   0.00000  Uiso   1.00
N137   N     0.86322   0.36942   0.92563   0.00000  Uiso   1.00
N138   N     0.20173   0.77462   0.92673   0.00000  Uiso   1.00
C139   C     0.29741   0.99079   0.36047   0.00000  Uiso   1.00
C140   C     0.35734   0.92374   0.40846   0.00000  Uiso   1.00
C141   C     0.44327   0.91834   0.39336   0.00000  Uiso   1.00
C142   C     0.48706   0.85234   0.44418   0.00000  Uiso   1.00
C143   C     0.58632   0.75714   0.50906   0.00000  Uiso   1.00
C144   C     0.24229   0.03649   0.43389   0.00000  Uiso   1.00
C145   C     0.23147   0.12589   0.44015   0.00000  Uiso   1.00
C146   C     0.17840   0.15480   0.51237   0.00000  Uiso   1.00
C147   C     0.09899   0.23465   0.61669   0.00000  Uiso   1.00
C148   C     0.24119   0.93841   0.31930   0.00000  Uiso   1.00
C149   C     0.22942   0.94537   0.22922   0.00000  Uiso   1.00
C150   C     0.17541   0.89172   0.20497   0.00000  Uiso   1.00
C151   C     0.09429   0.81929   0.13137   0.00000  Uiso   1.00
C152   C     0.22238   0.88318   0.47757   0.00000  Uiso   1.00
C153   C     0.31659   0.86529   0.47207   0.00000  Uiso   1.00
C154   C     0.36026   0.79927   0.52292   0.00000  Uiso   1.00
C155   C     0.44624   0.79378   0.50789   0.00000  Uiso   1.00
C156   C     0.20154   0.97804   0.49749   0.00000  Uiso   1.00
C157   C     0.14846   0.00683   0.56971   0.00000  Uiso   1.00
C158   C     0.13758   0.09625   0.57609   0.00000  Uiso   1.00
C159   C     0.20043   0.87996   0.38290   0.00000  Uiso   1.00
C160   C     0.14642   0.82630   0.35878   0.00000  Uiso   1.00
C161   C     0.13458   0.83316   0.26868   0.00000  Uiso   1.00
H162   H     0.32913   0.03630   0.31095   0.00000  Uiso   1.00
H163   H     0.47478   0.96359   0.34414   0.00000  Uiso   1.00
H164   H     0.26301   0.17111   0.39092   0.00000  Uiso   1.00
H165   H     0.26097   0.99061   0.18003   0.00000  Uiso   1.00
H166   H     0.61829   0.85722   0.40901   0.00000  Uiso   1.00
H167   H     0.17174   0.29478   0.50763   0.00000  Uiso   1.00
H168   H     0.16743   0.91416   0.06291   0.00000  Uiso   1.00
H169   H     0.19065   0.83767   0.52708   0.00000  Uiso   1.00
H170   H     0.32871   0.75405   0.57213   0.00000  Uiso   1.00
H171   H     0.11694   0.96157   0.61891   0.00000  Uiso   1.00
H172   H     0.11490   0.78107   0.40802   0.00000  Uiso   1.00
H173   H     0.49974   0.68715   0.59406   0.00000  Uiso   1.00
H174   H     0.05317   0.12472   0.69267   0.00000  Uiso   1.00
H175   H     0.04887   0.74409   0.24796   0.00000  Uiso   1.00
O176   O     0.65233   0.72078   0.52729   0.00000  Uiso   1.00
O177   O     0.06645   0.29485   0.65666   0.00000  Uiso   1.00
O178   O     0.06080   0.79548   0.07321   0.00000  Uiso   1.00
N179   N     0.57144   0.82866   0.44637   0.00000  Uiso   1.00
N180   N     0.15395   0.23775   0.53858   0.00000  Uiso   1.00
N181   N     0.14990   0.88192   0.12281   0.00000  Uiso   1.00
N182   N     0.50765   0.73715   0.54594   0.00000  Uiso   1.00
N183   N     0.09015   0.14624   0.63815   0.00000  Uiso   1.00
N184   N     0.08611   0.79041   0.22238   0.00000  Uiso   1.00
C185   C     0.36332   0.29898   0.99183   0.00000  Uiso   1.00
C186   C     0.40835   0.36225   0.92275   0.00000  Uiso   1.00
C187   C     0.39519   0.45280   0.91738   0.00000  Uiso   1.00
C188   C     0.44267   0.49907   0.84934   0.00000  Uiso   1.00
C189   C     0.50371   0.60384   0.75129   0.00000  Uiso   1.00
C190   C     0.43072   0.24079   0.03811   0.00000  Uiso   1.00
C191   C     0.43637   0.22921   0.12974   0.00000  Uiso   1.00
C192   C     0.50268   0.17323   0.15882   0.00000  Uiso   1.00
C193   C     0.59842   0.08938   0.23988   0.00000  Uiso   1.00
C194   C     0.32471   0.23985   0.93839   0.00000  Uiso   1.00
C195   C     0.24124   0.22746   0.94619   0.00000  Uiso   1.00
C196   C     0.21830   0.17066   0.89131   0.00000  Uiso   1.00
C197   C     0.14945   0.08535   0.81753   0.00000  Uiso   1.00
C198   C     0.47102   0.22013   0.88054   0.00000  Uiso   1.00
C199   C     0.46685   0.31943   0.86230   0.00000  Uiso   1.00
C200   C     0.51436   0.36557   0.79424   0.00000  Uiso   1.00
C201   C     0.50128   0.45617   0.78878   0.00000  Uiso   1.00
C202   C     0.48922   0.19797   0.97766   0.00000  Uiso   1.00
C203   C     0.55553   0.14198   0.00661   0.00000  Uiso   1.00
C204   C     0.56128   0.13032   0.09826   0.00000  Uiso   1.00
C205   C     0.38321   0.19703   0.87793   0.00000  Uiso   1.00
C206   C     0.36040   0.14023   0.82304   0.00000  Uiso   1.00
C207   C     0.27690   0.12776   0.83075   0.00000  Uiso   1.00
H208   H     0.31778   0.33232   0.03890   0.00000  Uiso   1.00
H209   H     0.34992   0.48592   0.96418   0.00000  Uiso   1.00
H210   H     0.39108   0.26236   0.17651   0.00000  Uiso   1.00
H211   H     0.19598   0.26061   0.99297   0.00000  Uiso   1.00
H212   H     0.41138   0.63734   0.85470   0.00000  Uiso   1.00
H213   H     0.49815   0.16592   0.30241   0.00000  Uiso   1.00
H214   H     0.08675   0.16223   0.91539   0.00000  Uiso   1.00
H215   H     0.51657   0.18678   0.83347   0.00000  Uiso   1.00
H216   H     0.55962   0.33241   0.74747   0.00000  Uiso   1.00
H217   H     0.60079   0.10885   0.95981   0.00000  Uiso   1.00
H218   H     0.40569   0.10710   0.77627   0.00000  Uiso   1.00
H219   H     0.58158   0.51274   0.67881   0.00000  Uiso   1.00
H220   H     0.66836   0.04132   0.12653   0.00000  Uiso   1.00
H221   H     0.25695   0.03763   0.73951   0.00000  Uiso   1.00
O222   O     0.52123   0.67346   0.71391   0.00000  Uiso   1.00
O223   O     0.63507   0.05496   0.30129   0.00000  Uiso   1.00
O224   O     0.09532   0.05013   0.79353   0.00000  Uiso   1.00
N225   N     0.44551   0.58803   0.82510   0.00000  Uiso   1.00
N226   N     0.52665   0.14729   0.24368   0.00000  Uiso   1.00
N227   N     0.14203   0.14382   0.88186   0.00000  Uiso   1.00
N228   N     0.53710   0.52098   0.73045   0.00000  Uiso   1.00
N229   N     0.61824   0.08025   0.14903   0.00000  Uiso   1.00
N230   N     0.23361   0.07678   0.78722   0.00000  Uiso   1.00
C231   C     0.98876   0.36156   0.29971   0.00000  Uiso   1.00
C232   C     0.92522   0.40888   0.36515   0.00000  Uiso   1.00
C233   C     0.92008   0.39484   0.45804   0.00000  Uiso   1.00
C234   C     0.85755   0.44478   0.50604   0.00000  Uiso   1.00
C235   C     0.76733   0.50890   0.61426   0.00000  Uiso   1.00
C236   C     0.03226   0.43269   0.23973   0.00000  Uiso   1.00
C237   C     0.11712   0.43865   0.22717   0.00000  Uiso   1.00
C238   C     0.14469   0.50862   0.16958   0.00000  Uiso   1.00
C239   C     0.22066   0.60966   0.08304   0.00000  Uiso   1.00
C240   C     0.93896   0.32102   0.23945   0.00000  Uiso   1.00
C241   C     0.94538   0.23309   0.22662   0.00000  Uiso   1.00
C242   C     0.89441   0.20904   0.16877   0.00000  Uiso   1.00
C243   C     0.82552   0.13669   0.08178   0.00000  Uiso   1.00
C244   C     0.88683   0.47522   0.21975   0.00000  Uiso   1.00
C245   C     0.86986   0.47062   0.32172   0.00000  Uiso   1.00
C246   C     0.80731   0.52059   0.36958   0.00000  Uiso   1.00
C247   C     0.80208   0.50663   0.46253   0.00000  Uiso   1.00
C248   C     0.97690   0.49442   0.19630   0.00000  Uiso   1.00
C249   C     0.00435   0.56440   0.13871   0.00000  Uiso   1.00
C250   C     0.08922   0.57047   0.12607   0.00000  Uiso   1.00
C251   C     0.88359   0.38275   0.19602   0.00000  Uiso   1.00
C252   C     0.83261   0.35884   0.13816   0.00000  Uiso   1.00
C253   C     0.83895   0.27089   0.12526   0.00000  Uiso   1.00
H254   H     0.03187   0.31350   0.33352   0.00000  Uiso   1.00
H255   H     0.96295   0.34706   0.49163   0.00000  Uiso   1.00
H256   H     0.15995   0.39086   0.26078   0.00000  Uiso   1.00
H257   H     0.98823   0.18533   0.26024   0.00000  Uiso   1.00
H258   H     0.86214   0.41152   0.64778   0.00000  Uiso   1.00
H259   H     0.27753   0.50385   0.16101   0.00000  Uiso   1.00
H260   H     0.91544   0.07045   0.15985   0.00000  Uiso   1.00
H261   H     0.84373   0.52329   0.18594   0.00000  Uiso   1.00
H262   H     0.76447   0.56836   0.33596   0.00000  Uiso   1.00
H263   H     0.96148   0.61216   0.10511   0.00000  Uiso   1.00
H264   H     0.78977   0.40663   0.10457   0.00000  Uiso   1.00
H265   H     0.70105   0.59114   0.52143   0.00000  Uiso   1.00
H266   H     0.11645   0.68347   0.03465   0.00000  Uiso   1.00
H267   H     0.75436   0.25007   0.03350   0.00000  Uiso   1.00
O268   O     0.73287   0.52722   0.68595   0.00000  Uiso   1.00
O269   O     0.27786   0.64834   0.04731   0.00000  Uiso   1.00
O270   O     0.80280   0.07973   0.04581   0.00000  Uiso   1.00
N271   N     0.83509   0.44760   0.59745   0.00000  Uiso   1.00
N272   N     0.22346   0.53393   0.14236   0.00000  Uiso   1.00
N273   N     0.88495   0.12874   0.14126   0.00000  Uiso   1.00
N274   N     0.74841   0.54425   0.52946   0.00000  Uiso   1.00
N275   N     0.13678   0.63058   0.07437   0.00000  Uiso   1.00
N276   N     0.79827   0.22538   0.07327   0.00000  Uiso   1.00
