data_job_07057
_audit_creation_date              2018-12-19
_audit_creation_method            'Materials Studio'
_symmetry_space_group_name_H-M    'P1'
_symmetry_Int_Tables_number       1
_symmetry_cell_setting            triclinic
loop_
_symmetry_equiv_pos_as_xyz
  x,y,z
_cell_length_a                    19.1991
_cell_length_b                    21.5467
_cell_length_c                    22.8343
_cell_angle_alpha                 73.5854
_cell_angle_beta                  78.3417
_cell_angle_gamma                 82.9374
loop_
_atom_site_label
_atom_site_type_symbol
_atom_site_fract_x
_atom_site_fract_y
_atom_site_fract_z
_atom_site_U_iso_or_equiv
_atom_site_adp_type
_atom_site_occupancy
C1     C     0.35174   0.11020   0.90531   0.00000  Uiso   1.00
C2     C     0.28025   0.14781   0.89666   0.00000  Uiso   1.00
C3     C     0.27051   0.20773   0.85498   0.00000  Uiso   1.00
C4     C     0.20088   0.23410   0.85415   0.00000  Uiso   1.00
C5     C     0.09866   0.29746   0.83474   0.00000  Uiso   1.00
C6     C     0.35579   0.09782   0.97371   0.00000  Uiso   1.00
C7     C     0.40957   0.11571   0.99682   0.00000  Uiso   1.00
C8     C     0.40353   0.09999   0.06086   0.00000  Uiso   1.00
C9     C     0.41862   0.08570   0.16108   0.00000  Uiso   1.00
C10    C     0.34632   0.04402   0.89535   0.00000  Uiso   1.00
C11    C     0.39214   0.01666   0.85257   0.00000  Uiso   1.00
C12    C     0.37813   0.95563   0.85064   0.00000  Uiso   1.00
C13    C     0.37851   0.85780   0.82918   0.00000  Uiso   1.00
C14    C     0.24540   0.05046   0.97795   0.00000  Uiso   1.00
C15    C     0.22249   0.11536   0.93612   0.00000  Uiso   1.00
C16    C     0.15286   0.14164   0.93535   0.00000  Uiso   1.00
C17    C     0.14302   0.20159   0.89368   0.00000  Uiso   1.00
C18    C     0.29803   0.06538   0.01317   0.00000  Uiso   1.00
C19    C     0.29192   0.04962   0.07719   0.00000  Uiso   1.00
C20    C     0.34567   0.06748   0.10039   0.00000  Uiso   1.00
C21    C     0.28855   0.01157   0.93480   0.00000  Uiso   1.00
C22    C     0.27448   0.95057   0.93294   0.00000  Uiso   1.00
C23    C     0.32027   0.92313   0.89017   0.00000  Uiso   1.00
H24    H     0.39672   0.13546   0.87459   0.00000  Uiso   1.00
H25    H     0.31523   0.23283   0.82446   0.00000  Uiso   1.00
H26    H     0.45427   0.14082   0.96628   0.00000  Uiso   1.00
H27    H     0.43683   0.04179   0.82205   0.00000  Uiso   1.00
H28    H     0.19941   0.32649   0.78629   0.00000  Uiso   1.00
H29    H     0.49260   0.13245   0.08532   0.00000  Uiso   1.00
H30    H     0.45584   0.92362   0.78118   0.00000  Uiso   1.00
H31    H     0.20043   0.02519   0.00868   0.00000  Uiso   1.00
H32    H     0.10817   0.11652   0.96589   0.00000  Uiso   1.00
H33    H     0.24721   0.02450   0.10771   0.00000  Uiso   1.00
H34    H     0.22978   0.92547   0.96348   0.00000  Uiso   1.00
H35    H     0.03136   0.23209   0.90108   0.00000  Uiso   1.00
H36    H     0.32455   0.03805   0.20012   0.00000  Uiso   1.00
H37    H     0.28778   0.82922   0.89598   0.00000  Uiso   1.00
O38    O     0.05824   0.34137   0.81314   0.00000  Uiso   1.00
O39    O     0.44289   0.08679   0.20545   0.00000  Uiso   1.00
O40    O     0.39466   0.81281   0.80643   0.00000  Uiso   1.00
N41    N     0.17252   0.29174   0.81917   0.00000  Uiso   1.00
N42    N     0.44663   0.11033   0.09874   0.00000  Uiso   1.00
N43    N     0.41227   0.91508   0.81441   0.00000  Uiso   1.00
N44    N     0.08209   0.24094   0.88094   0.00000  Uiso   1.00
N45    N     0.35620   0.05953   0.16051   0.00000  Uiso   1.00
N46    N     0.32184   0.86429   0.87618   0.00000  Uiso   1.00
C47    C     0.88469   0.17981   0.20839   0.00000  Uiso   1.00
C48    C     0.85105   0.11600   0.24261   0.00000  Uiso   1.00
C49    C     0.78896   0.10887   0.28654   0.00000  Uiso   1.00
C50    C     0.76697   0.04643   0.31252   0.00000  Uiso   1.00
C51    C     0.70885   0.95546   0.36832   0.00000  Uiso   1.00
C52    C     0.96075   0.17075   0.22117   0.00000  Uiso   1.00
C53    C     0.99089   0.20968   0.24708   0.00000  Uiso   1.00
C54    C     0.06126   0.19333   0.25500   0.00000  Uiso   1.00
C55    C     0.17346   0.18740   0.27749   0.00000  Uiso   1.00
C56    C     0.89121   0.18536   0.13945   0.00000  Uiso   1.00
C57    C     0.86290   0.23657   0.09665   0.00000  Uiso   1.00
C58    C     0.87473   0.23252   0.03576   0.00000  Uiso   1.00
C59    C     0.87896   0.24927   0.93137   0.00000  Uiso   1.00
C60    C     0.95608   0.08158   0.17638   0.00000  Uiso   1.00
C61    C     0.88982   0.06264   0.22522   0.00000  Uiso   1.00
C62    C     0.86793   0.00019   0.25113   0.00000  Uiso   1.00
C63    C     0.80581   0.99298   0.29510   0.00000  Uiso   1.00
C64    C     0.99952   0.11740   0.20379   0.00000  Uiso   1.00
C65    C     0.06986   0.10100   0.21167   0.00000  Uiso   1.00
C66    C     0.10010   0.13988   0.23759   0.00000  Uiso   1.00
C67    C     0.92998   0.13200   0.12207   0.00000  Uiso   1.00
C68    C     0.94187   0.12789   0.06124   0.00000  Uiso   1.00
C69    C     0.91357   0.17907   0.01835   0.00000  Uiso   1.00
H70    H     0.85451   0.22135   0.22192   0.00000  Uiso   1.00
H71    H     0.75897   0.15017   0.29999   0.00000  Uiso   1.00
H72    H     0.96087   0.25096   0.26052   0.00000  Uiso   1.00
H73    H     0.83290   0.27784   0.11011   0.00000  Uiso   1.00
H74    H     0.67015   0.04773   0.37889   0.00000  Uiso   1.00
H75    H     0.09588   0.26027   0.29566   0.00000  Uiso   1.00
H76    H     0.82602   0.31695   0.97849   0.00000  Uiso   1.00
H77    H     0.98626   0.04004   0.16285   0.00000  Uiso   1.00
H78    H     0.89795   0.95892   0.23767   0.00000  Uiso   1.00
H79    H     0.09985   0.05971   0.19821   0.00000  Uiso   1.00
H80    H     0.97187   0.08659   0.04780   0.00000  Uiso   1.00
H81    H     0.78295   0.89250   0.32832   0.00000  Uiso   1.00
H82    H     0.20869   0.10504   0.24508   0.00000  Uiso   1.00
H83    H     0.93882   0.16173   0.92792   0.00000  Uiso   1.00
O84    O     0.66609   0.92002   0.40390   0.00000  Uiso   1.00
O85    O     0.22464   0.19887   0.29470   0.00000  Uiso   1.00
O86    O     0.87058   0.27324   0.87859   0.00000  Uiso   1.00
N87    N     0.70881   0.02233   0.35671   0.00000  Uiso   1.00
N88    N     0.10684   0.22104   0.27890   0.00000  Uiso   1.00
N89    N     0.85456   0.27404   0.98237   0.00000  Uiso   1.00
N90    N     0.76951   0.93880   0.32949   0.00000  Uiso   1.00
N91    N     0.16754   0.13751   0.25169   0.00000  Uiso   1.00
N92    N     0.91526   0.19051   0.95516   0.00000  Uiso   1.00
C93    C     0.09284   0.84571   0.40931   0.00000  Uiso   1.00
C94    C     0.09268   0.84094   0.34397   0.00000  Uiso   1.00
C95    C     0.14953   0.81747   0.30607   0.00000  Uiso   1.00
C96    C     0.13871   0.81712   0.24786   0.00000  Uiso   1.00
C97    C     0.14841   0.80635   0.14936   0.00000  Uiso   1.00
C98    C     0.07238   0.91662   0.40831   0.00000  Uiso   1.00
C99    C     0.11216   0.95676   0.42453   0.00000  Uiso   1.00
C100   C     0.08426   0.02011   0.42049   0.00000  Uiso   1.00
C101   C     0.06242   0.12681   0.42192   0.00000  Uiso   1.00
C102   C     0.03103   0.80776   0.45099   0.00000  Uiso   1.00
C103   C     0.03603   0.75638   0.50310   0.00000  Uiso   1.00
C104   C     0.97329   0.72809   0.53500   0.00000  Uiso   1.00
C105   C     0.88724   0.66577   0.60270   0.00000  Uiso   1.00
C106   C     0.97254   0.88684   0.37332   0.00000  Uiso   1.00
C107   C     0.02733   0.86329   0.32442   0.00000  Uiso   1.00
C108   C     0.01643   0.86297   0.26625   0.00000  Uiso   1.00
C109   C     0.07325   0.83949   0.22828   0.00000  Uiso   1.00
C110   C     0.00704   0.93896   0.38876   0.00000  Uiso   1.00
C111   C     0.97906   0.00226   0.38470   0.00000  Uiso   1.00
C112   C     0.01879   0.04249   0.40090   0.00000  Uiso   1.00
C113   C     0.96568   0.83010   0.43144   0.00000  Uiso   1.00
C114   C     0.90293   0.80188   0.46327   0.00000  Uiso   1.00
C115   C     0.90783   0.75047   0.51542   0.00000  Uiso   1.00
H116   H     0.14371   0.82832   0.42453   0.00000  Uiso   1.00
H117   H     0.20009   0.80019   0.32122   0.00000  Uiso   1.00
H118   H     0.16273   0.93946   0.43966   0.00000  Uiso   1.00
H119   H     0.08660   0.73911   0.51821   0.00000  Uiso   1.00
H120   H     0.23378   0.77887   0.19804   0.00000  Uiso   1.00
H121   H     0.15499   0.07252   0.44780   0.00000  Uiso   1.00
H122   H     0.99447   0.65005   0.61345   0.00000  Uiso   1.00
H123   H     0.92167   0.90423   0.35810   0.00000  Uiso   1.00
H124   H     0.96586   0.88026   0.25114   0.00000  Uiso   1.00
H125   H     0.92850   0.01953   0.36958   0.00000  Uiso   1.00
H126   H     0.85237   0.81918   0.44813   0.00000  Uiso   1.00
H127   H     0.04367   0.84386   0.14116   0.00000  Uiso   1.00
H128   H     0.96488   0.13751   0.39092   0.00000  Uiso   1.00
H129   H     0.80436   0.71504   0.55657   0.00000  Uiso   1.00
O130   O     0.17181   0.79425   0.10043   0.00000  Uiso   1.00
O131   O     0.06843   0.17950   0.42811   0.00000  Uiso   1.00
O132   O     0.85783   0.62522   0.64544   0.00000  Uiso   1.00
N133   N     0.18297   0.79744   0.19934   0.00000  Uiso   1.00
N134   N     0.10931   0.07199   0.43284   0.00000  Uiso   1.00
N135   N     0.95923   0.67703   0.58772   0.00000  Uiso   1.00
N136   N     0.08067   0.83241   0.16873   0.00000  Uiso   1.00
N137   N     0.00701   0.10696   0.40223   0.00000  Uiso   1.00
N138   N     0.85693   0.71200   0.55711   0.00000  Uiso   1.00
C139   C     0.85641   0.27773   0.65282   0.00000  Uiso   1.00
C140   C     0.77712   0.26679   0.67213   0.00000  Uiso   1.00
C141   C     0.74813   0.21017   0.71021   0.00000  Uiso   1.00
C142   C     0.67432   0.20985   0.72239   0.00000  Uiso   1.00
C143   C     0.55777   0.18460   0.75621   0.00000  Uiso   1.00
C144   C     0.86670   0.33742   0.67264   0.00000  Uiso   1.00
C145   C     0.91303   0.34018   0.71114   0.00000  Uiso   1.00
C146   C     0.91463   0.39933   0.72374   0.00000  Uiso   1.00
C147   C     0.93719   0.48374   0.75831   0.00000  Uiso   1.00
C148   C     0.87091   0.29759   0.58210   0.00000  Uiso   1.00
C149   C     0.92079   0.26688   0.54447   0.00000  Uiso   1.00
C150   C     0.92595   0.29250   0.48084   0.00000  Uiso   1.00
C151   C     0.95506   0.31508   0.37484   0.00000  Uiso   1.00
C152   C     0.77689   0.37783   0.60672   0.00000  Uiso   1.00
C153   C     0.73393   0.32116   0.64710   0.00000  Uiso   1.00
C154   C     0.66015   0.32093   0.65921   0.00000  Uiso   1.00
C155   C     0.63105   0.26432   0.69730   0.00000  Uiso   1.00
C156   C     0.82351   0.39179   0.64761   0.00000  Uiso   1.00
C157   C     0.82505   0.45094   0.66014   0.00000  Uiso   1.00
C158   C     0.87136   0.45380   0.69865   0.00000  Uiso   1.00
C159   C     0.82772   0.35196   0.55706   0.00000  Uiso   1.00
C160   C     0.83281   0.37764   0.49348   0.00000  Uiso   1.00
C161   C     0.88268   0.34697   0.45576   0.00000  Uiso   1.00
H162   H     0.89004   0.23540   0.67231   0.00000  Uiso   1.00
H163   H     0.78157   0.16811   0.72959   0.00000  Uiso   1.00
H164   H     0.94645   0.29810   0.73051   0.00000  Uiso   1.00
H165   H     0.95421   0.22481   0.56387   0.00000  Uiso   1.00
H166   H     0.64226   0.11749   0.78206   0.00000  Uiso   1.00
H167   H     0.98994   0.39159   0.78398   0.00000  Uiso   1.00
H168   H     0.00630   0.23704   0.43259   0.00000  Uiso   1.00
H169   H     0.74327   0.42017   0.58723   0.00000  Uiso   1.00
H170   H     0.62674   0.36301   0.63983   0.00000  Uiso   1.00
H171   H     0.79162   0.49301   0.64076   0.00000  Uiso   1.00
H172   H     0.79938   0.41971   0.47412   0.00000  Uiso   1.00
H173   H     0.51660   0.27568   0.70921   0.00000  Uiso   1.00
H174   H     0.86428   0.54979   0.71114   0.00000  Uiso   1.00
H175   H     0.88064   0.39523   0.35974   0.00000  Uiso   1.00
O176   O     0.50542   0.15566   0.78179   0.00000  Uiso   1.00
O177   O     0.96157   0.51528   0.78430   0.00000  Uiso   1.00
O178   O     0.98304   0.31250   0.32329   0.00000  Uiso   1.00
N179   N     0.62868   0.16256   0.75768   0.00000  Uiso   1.00
N180   N     0.95373   0.41883   0.75949   0.00000  Uiso   1.00
N181   N     0.96904   0.27434   0.43097   0.00000  Uiso   1.00
N182   N     0.56106   0.24768   0.71849   0.00000  Uiso   1.00
N183   N     0.88611   0.50395   0.72029   0.00000  Uiso   1.00
N184   N     0.90142   0.35947   0.39177   0.00000  Uiso   1.00
C185   C     0.41698   0.46915   0.98323   0.00000  Uiso   1.00
C186   C     0.40414   0.51542   0.92154   0.00000  Uiso   1.00
C187   C     0.37488   0.57884   0.91300   0.00000  Uiso   1.00
C188   C     0.36755   0.61321   0.85294   0.00000  Uiso   1.00
C189   C     0.34443   0.68934   0.76470   0.00000  Uiso   1.00
C190   C     0.49612   0.44731   0.97408   0.00000  Uiso   1.00
C191   C     0.54419   0.45345   0.00972   0.00000  Uiso   1.00
C192   C     0.61429   0.43047   0.99389   0.00000  Uiso   1.00
C193   C     0.73396   0.40082   0.98724   0.00000  Uiso   1.00
C194   C     0.37742   0.40925   0.99138   0.00000  Uiso   1.00
C195   C     0.32569   0.38339   0.04158   0.00000  Uiso   1.00
C196   C     0.29585   0.32835   0.04033   0.00000  Uiso   1.00
C197   C     0.23121   0.23961   0.06055   0.00000  Uiso   1.00
C198   C     0.45600   0.41740   0.89174   0.00000  Uiso   1.00
C199   C     0.42534   0.48731   0.87184   0.00000  Uiso   1.00
C200   C     0.41805   0.52159   0.81177   0.00000  Uiso   1.00
C201   C     0.38878   0.58505   0.80315   0.00000  Uiso   1.00
C202   C     0.51732   0.41920   0.92438   0.00000  Uiso   1.00
C203   C     0.58736   0.39620   0.90849   0.00000  Uiso   1.00
C204   C     0.63552   0.40232   0.94410   0.00000  Uiso   1.00
C205   C     0.39861   0.38114   0.94169   0.00000  Uiso   1.00
C206   C     0.36885   0.32614   0.94035   0.00000  Uiso   1.00
C207   C     0.31709   0.30019   0.99054   0.00000  Uiso   1.00
H208   H     0.40048   0.49103   0.02192   0.00000  Uiso   1.00
H209   H     0.35849   0.60058   0.95147   0.00000  Uiso   1.00
H210   H     0.52777   0.47520   0.04818   0.00000  Uiso   1.00
H211   H     0.30930   0.40515   0.08003   0.00000  Uiso   1.00
H212   H     0.32130   0.70964   0.85144   0.00000  Uiso   1.00
H213   H     0.67824   0.44527   0.05537   0.00000  Uiso   1.00
H214   H     0.21755   0.29754   0.12254   0.00000  Uiso   1.00
H215   H     0.47250   0.39552   0.85305   0.00000  Uiso   1.00
H216   H     0.43445   0.49983   0.77333   0.00000  Uiso   1.00
H217   H     0.60374   0.37445   0.87004   0.00000  Uiso   1.00
H218   H     0.38527   0.30440   0.90189   0.00000  Uiso   1.00
H219   H     0.38296   0.62787   0.70685   0.00000  Uiso   1.00
H220   H     0.73990   0.36349   0.91078   0.00000  Uiso   1.00
H221   H     0.27921   0.21577   0.97795   0.00000  Uiso   1.00
O222   O     0.32583   0.73911   0.72975   0.00000  Uiso   1.00
O223   O     0.79411   0.39224   0.99730   0.00000  Uiso   1.00
O224   O     0.18969   0.19844   0.08543   0.00000  Uiso   1.00
N225   N     0.34102   0.67608   0.82836   0.00000  Uiso   1.00
N226   N     0.67474   0.42891   0.01901   0.00000  Uiso   1.00
N227   N     0.24404   0.29079   0.08182   0.00000  Uiso   1.00
N228   N     0.37420   0.63208   0.75056   0.00000  Uiso   1.00
N229   N     0.70792   0.38491   0.94121   0.00000  Uiso   1.00
N230   N     0.27722   0.24679   0.00402   0.00000  Uiso   1.00
C231   C     0.53651   0.81114   0.44952   0.00000  Uiso   1.00
C232   C     0.53576   0.73836   0.45840   0.00000  Uiso   1.00
C233   C     0.59030   0.69923   0.43416   0.00000  Uiso   1.00
C234   C     0.57933   0.63382   0.44759   0.00000  Uiso   1.00
C235   C     0.58781   0.52464   0.45588   0.00000  Uiso   1.00
C236   C     0.52323   0.82107   0.51450   0.00000  Uiso   1.00
C237   C     0.56723   0.85150   0.53742   0.00000  Uiso   1.00
C238   C     0.54571   0.85572   0.59807   0.00000  Uiso   1.00
C239   C     0.53471   0.87501   0.69343   0.00000  Uiso   1.00
C240   C     0.47073   0.84206   0.42155   0.00000  Uiso   1.00
C241   C     0.47058   0.89016   0.36633   0.00000  Uiso   1.00
C242   C     0.40485   0.91206   0.34873   0.00000  Uiso   1.00
C243   C     0.31233   0.96394   0.29978   0.00000  Uiso   1.00
C244   C     0.42005   0.76455   0.51648   0.00000  Uiso   1.00
C245   C     0.47251   0.71305   0.49477   0.00000  Uiso   1.00
C246   C     0.46145   0.64768   0.50824   0.00000  Uiso   1.00
C247   C     0.51596   0.60846   0.48402   0.00000  Uiso   1.00
C248   C     0.45998   0.79577   0.55087   0.00000  Uiso   1.00
C249   C     0.43839   0.79995   0.61150   0.00000  Uiso   1.00
C250   C     0.48234   0.83037   0.63451   0.00000  Uiso   1.00
C251   C     0.40747   0.81675   0.45792   0.00000  Uiso   1.00
C252   C     0.34173   0.83859   0.44041   0.00000  Uiso   1.00
C253   C     0.34148   0.88670   0.38517   0.00000  Uiso   1.00
H254   H     0.58575   0.83085   0.42121   0.00000  Uiso   1.00
H255   H     0.63925   0.71884   0.40602   0.00000  Uiso   1.00
H256   H     0.61617   0.87109   0.50926   0.00000  Uiso   1.00
H257   H     0.51954   0.90973   0.33820   0.00000  Uiso   1.00
H258   H     0.67067   0.58348   0.40524   0.00000  Uiso   1.00
H259   H     0.62201   0.90453   0.62292   0.00000  Uiso   1.00
H260   H     0.41823   0.98602   0.26220   0.00000  Uiso   1.00
H261   H     0.37080   0.74484   0.54480   0.00000  Uiso   1.00
H262   H     0.41250   0.62810   0.53639   0.00000  Uiso   1.00
H263   H     0.38943   0.78036   0.63963   0.00000  Uiso   1.00
H264   H     0.29279   0.81900   0.46857   0.00000  Uiso   1.00
H265   H     0.48663   0.50984   0.51105   0.00000  Uiso   1.00
H266   H     0.43797   0.83090   0.72873   0.00000  Uiso   1.00
H267   H     0.23420   0.91238   0.36801   0.00000  Uiso   1.00
O268   O     0.60996   0.47142   0.45041   0.00000  Uiso   1.00
O269   O     0.54612   0.89264   0.73599   0.00000  Uiso   1.00
O270   O     0.27878   0.99954   0.26273   0.00000  Uiso   1.00
N271   N     0.62162   0.58217   0.43129   0.00000  Uiso   1.00
N272   N     0.57614   0.88233   0.63481   0.00000  Uiso   1.00
N273   N     0.38562   0.95852   0.29757   0.00000  Uiso   1.00
N274   N     0.52260   0.54255   0.48822   0.00000  Uiso   1.00
N275   N     0.47711   0.84270   0.69175   0.00000  Uiso   1.00
N276   N     0.28660   0.91890   0.35451   0.00000  Uiso   1.00
C277   C     0.63493   0.88686   0.12051   0.00000  Uiso   1.00
C278   C     0.67446   0.82909   0.15929   0.00000  Uiso   1.00
C279   C     0.64391   0.77412   0.19936   0.00000  Uiso   1.00
C280   C     0.68915   0.72668   0.23060   0.00000  Uiso   1.00
C281   C     0.73940   0.63586   0.29209   0.00000  Uiso   1.00
C282   C     0.67193   0.89443   0.05342   0.00000  Uiso   1.00
C283   C     0.63925   0.89440   0.00448   0.00000  Uiso   1.00
C284   C     0.68236   0.90198   0.94660   0.00000  Uiso   1.00
C285   C     0.72867   0.91264   0.84372   0.00000  Uiso   1.00
C286   C     0.65069   0.94631   0.13799   0.00000  Uiso   1.00
C287   C     0.60016   0.98991   0.16015   0.00000  Uiso   1.00
C288   C     0.62538   0.04118   0.17346   0.00000  Uiso   1.00
C289   C     0.63872   0.13239   0.20190   0.00000  Uiso   1.00
C290   C     0.76959   0.90038   0.10472   0.00000  Uiso   1.00
C291   C     0.74760   0.83644   0.15071   0.00000  Uiso   1.00
C292   C     0.79289   0.78908   0.18189   0.00000  Uiso   1.00
C293   C     0.76242   0.73404   0.22201   0.00000  Uiso   1.00
C294   C     0.74507   0.90178   0.04484   0.00000  Uiso   1.00
C295   C     0.78823   0.90936   0.98701   0.00000  Uiso   1.00
C296   C     0.75563   0.90934   0.93800   0.00000  Uiso   1.00
C297   C     0.72383   0.95366   0.12942   0.00000  Uiso   1.00
C298   C     0.74914   0.00487   0.14269   0.00000  Uiso   1.00
C299   C     0.69866   0.04854   0.16487   0.00000  Uiso   1.00
H300   H     0.57799   0.88114   0.12718   0.00000  Uiso   1.00
H301   H     0.58731   0.76845   0.20598   0.00000  Uiso   1.00
H302   H     0.58265   0.88872   0.01113   0.00000  Uiso   1.00
H303   H     0.54356   0.98421   0.16678   0.00000  Uiso   1.00
H304   H     0.62990   0.64674   0.28955   0.00000  Uiso   1.00
H305   H     0.62006   0.90036   0.87869   0.00000  Uiso   1.00
H306   H     0.53765   0.10173   0.20691   0.00000  Uiso   1.00
H307   H     0.82653   0.90610   0.09804   0.00000  Uiso   1.00
H308   H     0.84949   0.79478   0.17525   0.00000  Uiso   1.00
H309   H     0.84483   0.91505   0.98039   0.00000  Uiso   1.00
H310   H     0.80574   0.01054   0.13604   0.00000  Uiso   1.00
H311   H     0.84269   0.66811   0.26460   0.00000  Uiso   1.00
H312   H     0.83286   0.92173   0.85374   0.00000  Uiso   1.00
H313   H     0.75044   0.12310   0.18196   0.00000  Uiso   1.00
O314   O     0.74691   0.58373   0.32837   0.00000  Uiso   1.00
O315   O     0.73401   0.91649   0.78935   0.00000  Uiso   1.00
O316   O     0.62588   0.18067   0.21996   0.00000  Uiso   1.00
N317   N     0.67683   0.66705   0.27309   0.00000  Uiso   1.00
N318   N     0.66763   0.90416   0.88897   0.00000  Uiso   1.00
N319   N     0.59058   0.09243   0.19581   0.00000  Uiso   1.00
N320   N     0.79133   0.67855   0.25967   0.00000  Uiso   1.00
N321   N     0.78214   0.91566   0.87554   0.00000  Uiso   1.00
N322   N     0.70508   0.10393   0.18238   0.00000  Uiso   1.00
C323   C     0.07673   0.46419   0.11892   0.00000  Uiso   1.00
C324   C     0.10538   0.53085   0.08827   0.00000  Uiso   1.00
C325   C     0.15282   0.54758   0.03267   0.00000  Uiso   1.00
C326   C     0.17254   0.61106   0.01245   0.00000  Uiso   1.00
C327   C     0.22106   0.70771   0.95964   0.00000  Uiso   1.00
C328   C     0.99571   0.47502   0.12778   0.00000  Uiso   1.00
C329   C     0.95095   0.44481   0.10541   0.00000  Uiso   1.00
C330   C     0.87835   0.46130   0.11845   0.00000  Uiso   1.00
C331   C     0.75662   0.47125   0.12702   0.00000  Uiso   1.00
C332   C     0.09530   0.44358   0.18385   0.00000  Uiso   1.00
C333   C     0.13426   0.38693   0.20864   0.00000  Uiso   1.00
C334   C     0.14550   0.37694   0.26891   0.00000  Uiso   1.00
C335   C     0.17839   0.33808   0.36454   0.00000  Uiso   1.00
C336   C     0.02740   0.54719   0.18187   0.00000  Uiso   1.00
C337   C     0.07858   0.57593   0.12246   0.00000  Uiso   1.00
C338   C     0.09824   0.63940   0.10232   0.00000  Uiso   1.00
C339   C     0.14570   0.65623   0.04671   0.00000  Uiso   1.00
C340   C     0.96891   0.52010   0.16197   0.00000  Uiso   1.00
C341   C     0.89637   0.53664   0.17506   0.00000  Uiso   1.00
C342   C     0.85151   0.50646   0.15271   0.00000  Uiso   1.00
C343   C     0.06851   0.48867   0.21805   0.00000  Uiso   1.00
C344   C     0.07968   0.47876   0.27829   0.00000  Uiso   1.00
C345   C     0.11865   0.42211   0.30316   0.00000  Uiso   1.00
H346   H     0.09759   0.42909   0.09230   0.00000  Uiso   1.00
H347   H     0.17354   0.51268   0.00622   0.00000  Uiso   1.00
H348   H     0.97170   0.40992   0.07895   0.00000  Uiso   1.00
H349   H     0.15499   0.35206   0.18217   0.00000  Uiso   1.00
H350   H     0.24590   0.62523   0.92586   0.00000  Uiso   1.00
H351   H     0.82031   0.40855   0.07923   0.00000  Uiso   1.00
H352   H     0.20681   0.28652   0.29688   0.00000  Uiso   1.00
H353   H     0.00654   0.58229   0.20850   0.00000  Uiso   1.00
H354   H     0.07749   0.67428   0.12880   0.00000  Uiso   1.00
H355   H     0.87565   0.57152   0.20152   0.00000  Uiso   1.00
H356   H     0.05894   0.51366   0.30474   0.00000  Uiso   1.00
H357   H     0.16794   0.75640   0.02534   0.00000  Uiso   1.00
H358   H     0.74235   0.53971   0.17871   0.00000  Uiso   1.00
H359   H     0.12885   0.41769   0.39636   0.00000  Uiso   1.00
O360   O     0.25522   0.74857   0.92106   0.00000  Uiso   1.00
O361   O     0.69687   0.46428   0.12229   0.00000  Uiso   1.00
O362   O     0.20394   0.30419   0.40784   0.00000  Uiso   1.00
N363   N     0.21783   0.64347   0.96022   0.00000  Uiso   1.00
N364   N     0.81993   0.44090   0.10360   0.00000  Uiso   1.00
N365   N     0.18125   0.32680   0.30709   0.00000  Uiso   1.00
N366   N     0.17588   0.71405   0.01375   0.00000  Uiso   1.00
N367   N     0.77798   0.51147   0.15713   0.00000  Uiso   1.00
N368   N     0.13930   0.39738   0.36062   0.00000  Uiso   1.00
C369   C     0.14228   0.04708   0.61065   0.00000  Uiso   1.00
C370   C     0.12816   0.05101   0.67771   0.00000  Uiso   1.00
C371   C     0.06535   0.07555   0.70803   0.00000  Uiso   1.00
C372   C     0.06301   0.07487   0.76938   0.00000  Uiso   1.00
C373   C     0.03219   0.08466   0.86897   0.00000  Uiso   1.00
C374   C     0.16352   0.97597   0.61298   0.00000  Uiso   1.00
C375   C     0.13044   0.93743   0.58885   0.00000  Uiso   1.00
C376   C     0.15787   0.87358   0.59570   0.00000  Uiso   1.00
C377   C     0.18197   0.76688   0.59474   0.00000  Uiso   1.00
C378   C     0.20886   0.08350   0.57898   0.00000  Uiso   1.00
C379   C     0.21391   0.13536   0.52627   0.00000  Uiso   1.00
C380   C     0.27952   0.16205   0.50449   0.00000  Uiso   1.00
C381   C     0.37402   0.22231   0.45076   0.00000  Uiso   1.00
C382   C     0.24982   0.00223   0.66569   0.00000  Uiso   1.00
C383   C     0.18658   0.02665   0.70760   0.00000  Uiso   1.00
C384   C     0.18433   0.02594   0.76892   0.00000  Uiso   1.00
C385   C     0.12153   0.05047   0.79932   0.00000  Uiso   1.00
C386   C     0.22193   0.95161   0.64287   0.00000  Uiso   1.00
C387   C     0.24942   0.88781   0.64974   0.00000  Uiso   1.00
C388   C     0.21638   0.84918   0.62564   0.00000  Uiso   1.00
C389   C     0.26727   0.05915   0.60888   0.00000  Uiso   1.00
C390   C     0.33289   0.08575   0.58717   0.00000  Uiso   1.00
C391   C     0.33804   0.13764   0.53444   0.00000  Uiso   1.00
H392   H     0.09681   0.06603   0.58738   0.00000  Uiso   1.00
H393   H     0.02015   0.09439   0.68488   0.00000  Uiso   1.00
H394   H     0.08524   0.95629   0.56572   0.00000  Uiso   1.00
H395   H     0.16870   0.15420   0.50315   0.00000  Uiso   1.00
H396   H     0.96092   0.11507   0.80617   0.00000  Uiso   1.00
H397   H     0.09817   0.82388   0.55489   0.00000  Uiso   1.00
H398   H     0.27416   0.24121   0.42296   0.00000  Uiso   1.00
H399   H     0.29530   0.98326   0.68896   0.00000  Uiso   1.00
H400   H     0.22954   0.00708   0.79204   0.00000  Uiso   1.00
H401   H     0.29462   0.86898   0.67288   0.00000  Uiso   1.00
H402   H     0.37808   0.06689   0.61031   0.00000  Uiso   1.00
H403   H     0.13087   0.04420   0.89315   0.00000  Uiso   1.00
H404   H     0.26812   0.75301   0.64186   0.00000  Uiso   1.00
H405   H     0.44410   0.17034   0.50993   0.00000  Uiso   1.00
O406   O     0.99905   0.09678   0.91564   0.00000  Uiso   1.00
O407   O     0.17912   0.71476   0.58596   0.00000  Uiso   1.00
O408   O     0.41000   0.26228   0.41287   0.00000  Uiso   1.00
N409   N     0.00995   0.09513   0.81249   0.00000  Uiso   1.00
N410   N     0.13826   0.82289   0.57757   0.00000  Uiso   1.00
N411   N     0.30280   0.21304   0.45421   0.00000  Uiso   1.00
N412   N     0.10140   0.05700   0.85929   0.00000  Uiso   1.00
N413   N     0.22971   0.78476   0.62437   0.00000  Uiso   1.00
N414   N     0.39424   0.17491   0.50101   0.00000  Uiso   1.00
C415   C     0.12815   0.51780   0.59802   0.00000  Uiso   1.00
C416   C     0.18040   0.55166   0.54158   0.00000  Uiso   1.00
C417   C     0.16374   0.60542   0.49499   0.00000  Uiso   1.00
C418   C     0.21908   0.62917   0.44730   0.00000  Uiso   1.00
C419   C     0.28963   0.68613   0.35979   0.00000  Uiso   1.00
C420   C     0.13289   0.44704   0.59668   0.00000  Uiso   1.00
C421   C     0.07628   0.41284   0.59642   0.00000  Uiso   1.00
C422   C     0.09162   0.34851   0.59513   0.00000  Uiso   1.00
C423   C     0.08839   0.24304   0.59321   0.00000  Uiso   1.00
C424   C     0.15882   0.51810   0.65454   0.00000  Uiso   1.00
C425   C     0.12402   0.54363   0.70295   0.00000  Uiso   1.00
C426   C     0.16120   0.53913   0.75038   0.00000  Uiso   1.00
C427   C     0.19824   0.54398   0.83831   0.00000  Uiso   1.00
C428   C     0.25606   0.46437   0.59618   0.00000  Uiso   1.00
C429   C     0.24987   0.52263   0.54058   0.00000  Uiso   1.00
C430   C     0.30525   0.54631   0.49295   0.00000  Uiso   1.00
C431   C     0.28868   0.60010   0.44630   0.00000  Uiso   1.00
C432   C     0.20235   0.41801   0.59568   0.00000  Uiso   1.00
C433   C     0.21779   0.35373   0.59439   0.00000  Uiso   1.00
C434   C     0.16122   0.31944   0.59413   0.00000  Uiso   1.00
C435   C     0.22830   0.48908   0.65354   0.00000  Uiso   1.00
C436   C     0.26553   0.48452   0.70091   0.00000  Uiso   1.00
C437   C     0.23079   0.51005   0.74938   0.00000  Uiso   1.00
H438   H     0.07407   0.54039   0.59880   0.00000  Uiso   1.00
H439   H     0.10997   0.62786   0.49577   0.00000  Uiso   1.00
H440   H     0.02252   0.43531   0.59720   0.00000  Uiso   1.00
H441   H     0.07026   0.56609   0.70371   0.00000  Uiso   1.00
H442   H     0.18041   0.71202   0.38110   0.00000  Uiso   1.00
H443   H     0.99601   0.30601   0.59499   0.00000  Uiso   1.00
H444   H     0.09667   0.58178   0.81958   0.00000  Uiso   1.00
H445   H     0.31015   0.44178   0.59540   0.00000  Uiso   1.00
H446   H     0.35901   0.52384   0.49219   0.00000  Uiso   1.00
H447   H     0.27155   0.33128   0.59362   0.00000  Uiso   1.00
H448   H     0.31929   0.46206   0.70012   0.00000  Uiso   1.00
H449   H     0.38254   0.62759   0.37819   0.00000  Uiso   1.00
H450   H     0.19813   0.22157   0.59208   0.00000  Uiso   1.00
H451   H     0.29880   0.49735   0.81667   0.00000  Uiso   1.00
O452   O     0.30935   0.72555   0.31180   0.00000  Uiso   1.00
O453   O     0.06742   0.19288   0.59243   0.00000  Uiso   1.00
O454   O     0.19949   0.55469   0.88708   0.00000  Uiso   1.00
N455   N     0.22128   0.68090   0.39459   0.00000  Uiso   1.00
N456   N     0.04887   0.30130   0.59455   0.00000  Uiso   1.00
N457   N     0.14298   0.55911   0.80453   0.00000  Uiso   1.00
N458   N     0.33004   0.63547   0.39302   0.00000  Uiso   1.00
N459   N     0.15764   0.25587   0.59298   0.00000  Uiso   1.00
N460   N     0.25174   0.51368   0.80297   0.00000  Uiso   1.00
C461   C     0.50702   0.46595   0.20069   0.00000  Uiso   1.00
C462   C     0.47490   0.44952   0.26956   0.00000  Uiso   1.00
C463   C     0.50984   0.44942   0.31718   0.00000  Uiso   1.00
C464   C     0.47119   0.43301   0.37708   0.00000  Uiso   1.00
C465   C     0.43213   0.40987   0.48222   0.00000  Uiso   1.00
C466   C     0.49817   0.40739   0.17853   0.00000  Uiso   1.00
C467   C     0.55267   0.37187   0.14962   0.00000  Uiso   1.00
C468   C     0.53360   0.31999   0.13289   0.00000  Uiso   1.00
C469   C     0.53066   0.23147   0.09666   0.00000  Uiso   1.00
C470   C     0.45837   0.52107   0.16886   0.00000  Uiso   1.00
C471   C     0.47942   0.58114   0.13179   0.00000  Uiso   1.00
C472   C     0.42685   0.62498   0.10690   0.00000  Uiso   1.00
C473   C     0.36213   0.71297   0.05566   0.00000  Uiso   1.00
C474   C     0.37624   0.43698   0.22239   0.00000  Uiso   1.00
C475   C     0.40386   0.43379   0.28134   0.00000  Uiso   1.00
C476   C     0.36514   0.41738   0.34118   0.00000  Uiso   1.00
C477   C     0.40002   0.41725   0.38889   0.00000  Uiso   1.00
C478   C     0.42713   0.39165   0.19031   0.00000  Uiso   1.00
C479   C     0.40798   0.33982   0.17362   0.00000  Uiso   1.00
C480   C     0.46244   0.30423   0.14469   0.00000  Uiso   1.00
C481   C     0.38733   0.50534   0.18064   0.00000  Uiso   1.00
C482   C     0.33472   0.54909   0.15580   0.00000  Uiso   1.00
C483   C     0.35569   0.60922   0.11871   0.00000  Uiso   1.00
H484   H     0.56232   0.47819   0.19152   0.00000  Uiso   1.00
H485   H     0.56482   0.46160   0.30804   0.00000  Uiso   1.00
H486   H     0.60764   0.38406   0.14050   0.00000  Uiso   1.00
H487   H     0.53440   0.59330   0.12268   0.00000  Uiso   1.00
H488   H     0.53626   0.43623   0.44243   0.00000  Uiso   1.00
H489   H     0.62655   0.27276   0.08914   0.00000  Uiso   1.00
H490   H     0.47211   0.71398   0.05157   0.00000  Uiso   1.00
H491   H     0.32093   0.42473   0.23156   0.00000  Uiso   1.00
H492   H     0.31017   0.40520   0.35029   0.00000  Uiso   1.00
H493   H     0.35300   0.32766   0.18274   0.00000  Uiso   1.00
H494   H     0.27976   0.53690   0.16493   0.00000  Uiso   1.00
H495   H     0.32959   0.39046   0.47672   0.00000  Uiso   1.00
H496   H     0.41987   0.22698   0.12342   0.00000  Uiso   1.00
H497   H     0.26543   0.66821   0.08585   0.00000  Uiso   1.00
O498   O     0.43021   0.40144   0.53696   0.00000  Uiso   1.00
O499   O     0.54867   0.18698   0.07344   0.00000  Uiso   1.00
O500   O     0.34604   0.76585   0.02415   0.00000  Uiso   1.00
N501   N     0.48909   0.42815   0.43421   0.00000  Uiso   1.00
N502   N     0.57351   0.27531   0.10391   0.00000  Uiso   1.00
N503   N     0.42912   0.68781   0.06877   0.00000  Uiso   1.00
N504   N     0.37788   0.40352   0.45266   0.00000  Uiso   1.00
N505   N     0.46230   0.25068   0.12236   0.00000  Uiso   1.00
N506   N     0.31791   0.66318   0.08722   0.00000  Uiso   1.00
C507   C     0.54069   0.07580   0.61171   0.00000  Uiso   1.00
C508   C     0.49943   0.13757   0.62337   0.00000  Uiso   1.00
C509   C     0.43915   0.14034   0.66810   0.00000  Uiso   1.00
C510   C     0.40921   0.20156   0.67136   0.00000  Uiso   1.00
C511   C     0.34066   0.28889   0.69554   0.00000  Uiso   1.00
C512   C     0.54226   0.08023   0.54362   0.00000  Uiso   1.00
C513   C     0.51798   0.03479   0.52129   0.00000  Uiso   1.00
C514   C     0.52410   0.04774   0.45741   0.00000  Uiso   1.00
C515   C     0.52209   0.04603   0.35777   0.00000  Uiso   1.00
C516   C     0.61740   0.08072   0.61761   0.00000  Uiso   1.00
C517   C     0.65632   0.03568   0.65748   0.00000  Uiso   1.00
C518   C     0.72572   0.04904   0.65589   0.00000  Uiso   1.00
C519   C     0.84038   0.04809   0.67113   0.00000  Uiso   1.00
C520   C     0.59472   0.17958   0.53798   0.00000  Uiso   1.00
C521   C     0.52878   0.19393   0.58333   0.00000  Uiso   1.00
C522   C     0.49893   0.25516   0.58653   0.00000  Uiso   1.00
C523   C     0.43861   0.25803   0.63124   0.00000  Uiso   1.00
C524   C     0.57160   0.13659   0.50357   0.00000  Uiso   1.00
C525   C     0.57776   0.14961   0.43972   0.00000  Uiso   1.00
C526   C     0.55350   0.10421   0.41730   0.00000  Uiso   1.00
C527   C     0.64675   0.13709   0.57757   0.00000  Uiso   1.00
C528   C     0.71610   0.15051   0.57591   0.00000  Uiso   1.00
C529   C     0.75512   0.10551   0.61577   0.00000  Uiso   1.00
H530   H     0.51784   0.03191   0.64289   0.00000  Uiso   1.00
H531   H     0.41645   0.09671   0.69908   0.00000  Uiso   1.00
H532   H     0.49528   0.99117   0.55229   0.00000  Uiso   1.00
H533   H     0.63360   0.99207   0.68846   0.00000  Uiso   1.00
H534   H     0.31696   0.19341   0.74369   0.00000  Uiso   1.00
H535   H     0.48321   0.97086   0.43419   0.00000  Uiso   1.00
H536   H     0.77487   0.97275   0.72134   0.00000  Uiso   1.00
H537   H     0.61757   0.22346   0.50680   0.00000  Uiso   1.00
H538   H     0.52165   0.29878   0.55553   0.00000  Uiso   1.00
H539   H     0.60048   0.19324   0.40874   0.00000  Uiso   1.00
H540   H     0.73880   0.19414   0.54492   0.00000  Uiso   1.00
H541   H     0.40235   0.35741   0.62718   0.00000  Uiso   1.00
H542   H     0.56859   0.13486   0.31768   0.00000  Uiso   1.00
H543   H     0.86026   0.13676   0.60483   0.00000  Uiso   1.00
O544   O     0.29474   0.32149   0.71993   0.00000  Uiso   1.00
O545   O     0.51286   0.02952   0.31388   0.00000  Uiso   1.00
O546   O     0.89551   0.03200   0.69061   0.00000  Uiso   1.00
N547   N     0.35023   0.22167   0.70960   0.00000  Uiso   1.00
N548   N     0.50565   0.01361   0.42023   0.00000  Uiso   1.00
N549   N     0.77834   0.01537   0.68868   0.00000  Uiso   1.00
N550   N     0.39617   0.30992   0.64690   0.00000  Uiso   1.00
N551   N     0.55159   0.10186   0.35754   0.00000  Uiso   1.00
N552   N     0.82428   0.10362   0.62598   0.00000  Uiso   1.00
