data_job_04902
_audit_creation_date              2018-12-19
_audit_creation_method            'Materials Studio'
_symmetry_space_group_name_H-M    'P1'
_symmetry_Int_Tables_number       1
_symmetry_cell_setting            triclinic
loop_
_symmetry_equiv_pos_as_xyz
  x,y,z
_cell_length_a                    12.4781
_cell_length_b                    7.1929
_cell_length_c                    26.5509
_cell_angle_alpha                 90.0000
_cell_angle_beta                  83.9236
_cell_angle_gamma                 90.0000
loop_
_atom_site_label
_atom_site_type_symbol
_atom_site_fract_x
_atom_site_fract_y
_atom_site_fract_z
_atom_site_U_iso_or_equiv
_atom_site_adp_type
_atom_site_occupancy
C1     C     0.79324   0.45800   0.11626   0.00000  Uiso   1.00
C2     C     0.79158   0.39919   0.06117   0.00000  Uiso   1.00
C3     C     0.81456   0.51296   0.01920   0.00000  Uiso   1.00
C4     C     0.80858   0.43287   0.97201   0.00000  Uiso   1.00
C5     C     0.81021   0.37005   0.88722   0.00000  Uiso   1.00
C6     C     0.68171   0.41275   0.14260   0.00000  Uiso   1.00
C7     C     0.61233   0.53791   0.16910   0.00000  Uiso   1.00
C8     C     0.51386   0.46921   0.19045   0.00000  Uiso   1.00
C9     C     0.34495   0.42741   0.23211   0.00000  Uiso   1.00
C10    C     0.87112   0.32594   0.13873   0.00000  Uiso   1.00
C11    C     0.96098   0.37811   0.16199   0.00000  Uiso   1.00
C12    C     0.02197   0.23632   0.18010   0.00000  Uiso   1.00
C13    C     0.14715   0.05974   0.21575   0.00000  Uiso   1.00
C14    C     0.74175   0.11345   0.10708   0.00000  Uiso   1.00
C15    C     0.76361   0.21205   0.05618   0.00000  Uiso   1.00
C16    C     0.75759   0.13176   0.00904   0.00000  Uiso   1.00
C17    C     0.78056   0.24538   0.96700   0.00000  Uiso   1.00
C18    C     0.65374   0.22561   0.13761   0.00000  Uiso   1.00
C19    C     0.55536   0.15671   0.15893   0.00000  Uiso   1.00
C20    C     0.48584   0.28173   0.18545   0.00000  Uiso   1.00
C21    C     0.84316   0.13879   0.13374   0.00000  Uiso   1.00
C22    C     0.90401   0.99690   0.15182   0.00000  Uiso   1.00
C23    C     0.99395   0.04884   0.17510   0.00000  Uiso   1.00
H24    H     0.81501   0.60370   0.12015   0.00000  Uiso   1.00
H25    H     0.83619   0.65779   0.02308   0.00000  Uiso   1.00
H26    H     0.63400   0.68272   0.17296   0.00000  Uiso   1.00
H27    H     0.98260   0.52294   0.16584   0.00000  Uiso   1.00
H28    H     0.84731   0.63524   0.91326   0.00000  Uiso   1.00
H29    H     0.42098   0.68781   0.22929   0.00000  Uiso   1.00
H30    H     0.15608   0.35088   0.21430   0.00000  Uiso   1.00
H31    H     0.71997   0.96774   0.10319   0.00000  Uiso   1.00
H32    H     0.73595   0.98693   0.00519   0.00000  Uiso   1.00
H33    H     0.53374   0.01187   0.15506   0.00000  Uiso   1.00
H34    H     0.88235   0.85209   0.14795   0.00000  Uiso   1.00
H35    H     0.76594   0.09075   0.89874   0.00000  Uiso   1.00
H36    H     0.33961   0.14332   0.21477   0.00000  Uiso   1.00
H37    H     0.07471   0.80639   0.19977   0.00000  Uiso   1.00
O38    O     0.81882   0.38711   0.84183   0.00000  Uiso   1.00
O39    O     0.25950   0.45607   0.25646   0.00000  Uiso   1.00
O40    O     0.22393   0.01403   0.23679   0.00000  Uiso   1.00
N41    N     0.82599   0.50445   0.92329   0.00000  Uiso   1.00
N42    N     0.42739   0.55361   0.21875   0.00000  Uiso   1.00
N43    N     0.11463   0.23861   0.20475   0.00000  Uiso   1.00
N44    N     0.78221   0.21147   0.91548   0.00000  Uiso   1.00
N45    N     0.38361   0.26062   0.21094   0.00000  Uiso   1.00
N46    N     0.07085   0.94563   0.19693   0.00000  Uiso   1.00
C47    C     0.20676   0.95800   0.38374   0.00000  Uiso   1.00
C48    C     0.20842   0.89919   0.43883   0.00000  Uiso   1.00
C49    C     0.18544   0.01296   0.48080   0.00000  Uiso   1.00
C50    C     0.19142   0.93287   0.52799   0.00000  Uiso   1.00
C51    C     0.18979   0.87005   0.61278   0.00000  Uiso   1.00
C52    C     0.31829   0.91275   0.35740   0.00000  Uiso   1.00
C53    C     0.38767   0.03791   0.33090   0.00000  Uiso   1.00
C54    C     0.48614   0.96921   0.30955   0.00000  Uiso   1.00
C55    C     0.65505   0.92741   0.26789   0.00000  Uiso   1.00
C56    C     0.12888   0.82594   0.36127   0.00000  Uiso   1.00
C57    C     0.03902   0.87811   0.33801   0.00000  Uiso   1.00
C58    C     0.97803   0.73632   0.31990   0.00000  Uiso   1.00
C59    C     0.85285   0.55974   0.28425   0.00000  Uiso   1.00
C60    C     0.25825   0.61345   0.39292   0.00000  Uiso   1.00
C61    C     0.23639   0.71205   0.44382   0.00000  Uiso   1.00
C62    C     0.24241   0.63176   0.49096   0.00000  Uiso   1.00
C63    C     0.21944   0.74538   0.53300   0.00000  Uiso   1.00
C64    C     0.34626   0.72561   0.36239   0.00000  Uiso   1.00
C65    C     0.44464   0.65671   0.34107   0.00000  Uiso   1.00
C66    C     0.51416   0.78173   0.31455   0.00000  Uiso   1.00
C67    C     0.15684   0.63879   0.36626   0.00000  Uiso   1.00
C68    C     0.09599   0.49690   0.34818   0.00000  Uiso   1.00
C69    C     0.00605   0.54884   0.32490   0.00000  Uiso   1.00
H70    H     0.18499   0.10370   0.37985   0.00000  Uiso   1.00
H71    H     0.16381   0.15779   0.47692   0.00000  Uiso   1.00
H72    H     0.36600   0.18272   0.32704   0.00000  Uiso   1.00
H73    H     0.01740   0.02294   0.33416   0.00000  Uiso   1.00
H74    H     0.15269   0.13524   0.58674   0.00000  Uiso   1.00
H75    H     0.57902   0.18781   0.27071   0.00000  Uiso   1.00
H76    H     0.84392   0.85088   0.28570   0.00000  Uiso   1.00
H77    H     0.28003   0.46774   0.39681   0.00000  Uiso   1.00
H78    H     0.26405   0.48693   0.49481   0.00000  Uiso   1.00
H79    H     0.46626   0.51187   0.34494   0.00000  Uiso   1.00
H80    H     0.11765   0.35209   0.35205   0.00000  Uiso   1.00
H81    H     0.23406   0.59075   0.60126   0.00000  Uiso   1.00
H82    H     0.66039   0.64332   0.28523   0.00000  Uiso   1.00
H83    H     0.92529   0.30639   0.30023   0.00000  Uiso   1.00
O84    O     0.18118   0.88711   0.65817   0.00000  Uiso   1.00
O85    O     0.74050   0.95607   0.24354   0.00000  Uiso   1.00
O86    O     0.77607   0.51403   0.26321   0.00000  Uiso   1.00
N87    N     0.17401   0.00445   0.57671   0.00000  Uiso   1.00
N88    N     0.57261   0.05361   0.28125   0.00000  Uiso   1.00
N89    N     0.88537   0.73861   0.29525   0.00000  Uiso   1.00
N90    N     0.21779   0.71147   0.58452   0.00000  Uiso   1.00
N91    N     0.61639   0.76062   0.28906   0.00000  Uiso   1.00
N92    N     0.92915   0.44563   0.30307   0.00000  Uiso   1.00
C93    C     0.20676   0.54200   0.88374   0.00000  Uiso   1.00
C94    C     0.20842   0.60081   0.93883   0.00000  Uiso   1.00
C95    C     0.18544   0.48704   0.98080   0.00000  Uiso   1.00
C96    C     0.19142   0.56713   0.02799   0.00000  Uiso   1.00
C97    C     0.18979   0.62995   0.11278   0.00000  Uiso   1.00
C98    C     0.31829   0.58725   0.85740   0.00000  Uiso   1.00
C99    C     0.38767   0.46209   0.83090   0.00000  Uiso   1.00
C100   C     0.48614   0.53079   0.80955   0.00000  Uiso   1.00
C101   C     0.65505   0.57259   0.76789   0.00000  Uiso   1.00
C102   C     0.12888   0.67406   0.86127   0.00000  Uiso   1.00
C103   C     0.03902   0.62189   0.83801   0.00000  Uiso   1.00
C104   C     0.97803   0.76368   0.81990   0.00000  Uiso   1.00
C105   C     0.85285   0.94026   0.78425   0.00000  Uiso   1.00
C106   C     0.25825   0.88655   0.89292   0.00000  Uiso   1.00
C107   C     0.23639   0.78795   0.94382   0.00000  Uiso   1.00
C108   C     0.24241   0.86824   0.99096   0.00000  Uiso   1.00
C109   C     0.21944   0.75462   0.03300   0.00000  Uiso   1.00
C110   C     0.34626   0.77439   0.86239   0.00000  Uiso   1.00
C111   C     0.44464   0.84329   0.84107   0.00000  Uiso   1.00
C112   C     0.51416   0.71827   0.81455   0.00000  Uiso   1.00
C113   C     0.15684   0.86121   0.86626   0.00000  Uiso   1.00
C114   C     0.09599   0.00310   0.84818   0.00000  Uiso   1.00
C115   C     0.00605   0.95116   0.82490   0.00000  Uiso   1.00
H116   H     0.18499   0.39630   0.87985   0.00000  Uiso   1.00
H117   H     0.16381   0.34221   0.97692   0.00000  Uiso   1.00
H118   H     0.36600   0.31728   0.82704   0.00000  Uiso   1.00
H119   H     0.01740   0.47706   0.83416   0.00000  Uiso   1.00
H120   H     0.15269   0.36476   0.08674   0.00000  Uiso   1.00
H121   H     0.57902   0.31219   0.77071   0.00000  Uiso   1.00
H122   H     0.84392   0.64912   0.78570   0.00000  Uiso   1.00
H123   H     0.28003   0.03226   0.89681   0.00000  Uiso   1.00
H124   H     0.26405   0.01307   0.99481   0.00000  Uiso   1.00
H125   H     0.46626   0.98813   0.84494   0.00000  Uiso   1.00
H126   H     0.11765   0.14791   0.85205   0.00000  Uiso   1.00
H127   H     0.23406   0.90925   0.10126   0.00000  Uiso   1.00
H128   H     0.66039   0.85668   0.78523   0.00000  Uiso   1.00
H129   H     0.92529   0.19361   0.80023   0.00000  Uiso   1.00
O130   O     0.18118   0.61289   0.15817   0.00000  Uiso   1.00
O131   O     0.74050   0.54393   0.74354   0.00000  Uiso   1.00
O132   O     0.77607   0.98597   0.76321   0.00000  Uiso   1.00
N133   N     0.17401   0.49555   0.07671   0.00000  Uiso   1.00
N134   N     0.57261   0.44639   0.78125   0.00000  Uiso   1.00
N135   N     0.88537   0.76139   0.79525   0.00000  Uiso   1.00
N136   N     0.21779   0.78853   0.08452   0.00000  Uiso   1.00
N137   N     0.61639   0.73938   0.78906   0.00000  Uiso   1.00
N138   N     0.92915   0.05437   0.80307   0.00000  Uiso   1.00
C139   C     0.79324   0.04200   0.61626   0.00000  Uiso   1.00
C140   C     0.79158   0.10081   0.56117   0.00000  Uiso   1.00
C141   C     0.81456   0.98704   0.51920   0.00000  Uiso   1.00
C142   C     0.80858   0.06713   0.47201   0.00000  Uiso   1.00
C143   C     0.81021   0.12995   0.38722   0.00000  Uiso   1.00
C144   C     0.68171   0.08725   0.64260   0.00000  Uiso   1.00
C145   C     0.61233   0.96209   0.66910   0.00000  Uiso   1.00
C146   C     0.51386   0.03079   0.69045   0.00000  Uiso   1.00
C147   C     0.34495   0.07259   0.73211   0.00000  Uiso   1.00
C148   C     0.87112   0.17406   0.63873   0.00000  Uiso   1.00
C149   C     0.96098   0.12189   0.66199   0.00000  Uiso   1.00
C150   C     0.02197   0.26368   0.68010   0.00000  Uiso   1.00
C151   C     0.14715   0.44026   0.71575   0.00000  Uiso   1.00
C152   C     0.74175   0.38655   0.60708   0.00000  Uiso   1.00
C153   C     0.76361   0.28795   0.55618   0.00000  Uiso   1.00
C154   C     0.75759   0.36824   0.50904   0.00000  Uiso   1.00
C155   C     0.78056   0.25462   0.46700   0.00000  Uiso   1.00
C156   C     0.65374   0.27439   0.63761   0.00000  Uiso   1.00
C157   C     0.55536   0.34329   0.65893   0.00000  Uiso   1.00
C158   C     0.48584   0.21827   0.68545   0.00000  Uiso   1.00
C159   C     0.84316   0.36121   0.63374   0.00000  Uiso   1.00
C160   C     0.90401   0.50310   0.65182   0.00000  Uiso   1.00
C161   C     0.99395   0.45116   0.67510   0.00000  Uiso   1.00
H162   H     0.81501   0.89630   0.62015   0.00000  Uiso   1.00
H163   H     0.83619   0.84221   0.52308   0.00000  Uiso   1.00
H164   H     0.63400   0.81728   0.67296   0.00000  Uiso   1.00
H165   H     0.98260   0.97706   0.66584   0.00000  Uiso   1.00
H166   H     0.84731   0.86476   0.41326   0.00000  Uiso   1.00
H167   H     0.42098   0.81219   0.72929   0.00000  Uiso   1.00
H168   H     0.15608   0.14912   0.71430   0.00000  Uiso   1.00
H169   H     0.71997   0.53226   0.60319   0.00000  Uiso   1.00
H170   H     0.73595   0.51307   0.50519   0.00000  Uiso   1.00
H171   H     0.53374   0.48813   0.65506   0.00000  Uiso   1.00
H172   H     0.88235   0.64791   0.64795   0.00000  Uiso   1.00
H173   H     0.76594   0.40925   0.39874   0.00000  Uiso   1.00
H174   H     0.33961   0.35668   0.71477   0.00000  Uiso   1.00
H175   H     0.07471   0.69361   0.69977   0.00000  Uiso   1.00
O176   O     0.81882   0.11289   0.34183   0.00000  Uiso   1.00
O177   O     0.25950   0.04393   0.75646   0.00000  Uiso   1.00
O178   O     0.22393   0.48597   0.73679   0.00000  Uiso   1.00
N179   N     0.82599   0.99555   0.42329   0.00000  Uiso   1.00
N180   N     0.42739   0.94639   0.71875   0.00000  Uiso   1.00
N181   N     0.11463   0.26139   0.70475   0.00000  Uiso   1.00
N182   N     0.78221   0.28853   0.41548   0.00000  Uiso   1.00
N183   N     0.38361   0.23938   0.71094   0.00000  Uiso   1.00
N184   N     0.07085   0.55437   0.69693   0.00000  Uiso   1.00
