data_job_00513
_audit_creation_date              2018-12-19
_audit_creation_method            'Materials Studio'
_symmetry_space_group_name_H-M    'P1'
_symmetry_Int_Tables_number       1
_symmetry_cell_setting            triclinic
loop_
_symmetry_equiv_pos_as_xyz
  x,y,z
_cell_length_a                    7.3253
_cell_length_b                    21.5261
_cell_length_c                    16.8024
_cell_angle_alpha                 90.0000
_cell_angle_beta                  106.9654
_cell_angle_gamma                 90.0000
loop_
_atom_site_label
_atom_site_type_symbol
_atom_site_fract_x
_atom_site_fract_y
_atom_site_fract_z
_atom_site_U_iso_or_equiv
_atom_site_adp_type
_atom_site_occupancy
C1     C     0.21575   0.18143   0.83717   0.00000  Uiso   1.00
C2     C     0.26525   0.14717   0.76675   0.00000  Uiso   1.00
C3     C     0.14240   0.10952   0.70787   0.00000  Uiso   1.00
C4     C     0.21492   0.08233   0.64854   0.00000  Uiso   1.00
C5     C     0.26312   0.02757   0.53929   0.00000  Uiso   1.00
C6     C     0.36143   0.16010   0.91734   0.00000  Uiso   1.00
C7     C     0.31944   0.13332   0.98507   0.00000  Uiso   1.00
C8     C     0.47293   0.11702   0.05251   0.00000  Uiso   1.00
C9     C     0.67044   0.08236   0.17707   0.00000  Uiso   1.00
C10    C     0.25853   0.24980   0.82697   0.00000  Uiso   1.00
C11    C     0.13004   0.29846   0.81873   0.00000  Uiso   1.00
C12    C     0.19691   0.35769   0.81010   0.00000  Uiso   1.00
C13    C     0.23466   0.46232   0.79433   0.00000  Uiso   1.00
C14    C     0.56298   0.20009   0.83651   0.00000  Uiso   1.00
C15    C     0.45385   0.15731   0.76640   0.00000  Uiso   1.00
C16    C     0.52657   0.13017   0.70714   0.00000  Uiso   1.00
C17    C     0.40385   0.09249   0.64818   0.00000  Uiso   1.00
C18    C     0.55002   0.17023   0.91699   0.00000  Uiso   1.00
C19    C     0.70361   0.15397   0.98434   0.00000  Uiso   1.00
C20    C     0.66187   0.12717   0.05215   0.00000  Uiso   1.00
C21    C     0.44713   0.25994   0.82661   0.00000  Uiso   1.00
C22    C     0.51421   0.31911   0.81800   0.00000  Uiso   1.00
C23    C     0.38585   0.36784   0.80974   0.00000  Uiso   1.00
H24    H     0.06892   0.17354   0.83745   0.00000  Uiso   1.00
H25    H     0.99646   0.10169   0.70817   0.00000  Uiso   1.00
H26    H     0.17348   0.12549   0.98533   0.00000  Uiso   1.00
H27    H     0.98411   0.29060   0.81901   0.00000  Uiso   1.00
H28    H     0.99932   0.02648   0.56470   0.00000  Uiso   1.00
H29    H     0.37256   0.07668   0.14912   0.00000  Uiso   1.00
H30    H     0.97324   0.42486   0.79840   0.00000  Uiso   1.00
H31    H     0.70982   0.20798   0.83624   0.00000  Uiso   1.00
H32    H     0.67253   0.13802   0.70688   0.00000  Uiso   1.00
H33    H     0.84954   0.16182   0.98404   0.00000  Uiso   1.00
H34    H     0.66017   0.32693   0.81772   0.00000  Uiso   1.00
H35    H     0.54804   0.05596   0.56366   0.00000  Uiso   1.00
H36    H     0.92128   0.10617   0.14808   0.00000  Uiso   1.00
H37    H     0.52196   0.45434   0.79735   0.00000  Uiso   1.00
O38    O     0.23761   0.99456   0.47913   0.00000  Uiso   1.00
O39    O     0.72728   0.06044   0.24586   0.00000  Uiso   1.00
O40    O     0.20338   0.51723   0.78572   0.00000  Uiso   1.00
N41    N     0.13357   0.04303   0.58220   0.00000  Uiso   1.00
N42    N     0.48253   0.08996   0.12859   0.00000  Uiso   1.00
N43    N     0.10921   0.41547   0.80072   0.00000  Uiso   1.00
N44    N     0.42883   0.05890   0.58164   0.00000  Uiso   1.00
N45    N     0.77779   0.10583   0.12803   0.00000  Uiso   1.00
N46    N     0.40447   0.43134   0.80015   0.00000  Uiso   1.00
C47    C     0.78425   0.68143   0.66283   0.00000  Uiso   1.00
C48    C     0.73475   0.64717   0.73325   0.00000  Uiso   1.00
C49    C     0.85760   0.60952   0.79213   0.00000  Uiso   1.00
C50    C     0.78508   0.58233   0.85146   0.00000  Uiso   1.00
C51    C     0.73688   0.52757   0.96071   0.00000  Uiso   1.00
C52    C     0.63857   0.66010   0.58266   0.00000  Uiso   1.00
C53    C     0.68056   0.63332   0.51493   0.00000  Uiso   1.00
C54    C     0.52707   0.61702   0.44749   0.00000  Uiso   1.00
C55    C     0.32956   0.58236   0.32293   0.00000  Uiso   1.00
C56    C     0.74147   0.74980   0.67303   0.00000  Uiso   1.00
C57    C     0.86996   0.79846   0.68127   0.00000  Uiso   1.00
C58    C     0.80309   0.85769   0.68990   0.00000  Uiso   1.00
C59    C     0.76534   0.96232   0.70567   0.00000  Uiso   1.00
C60    C     0.43702   0.70009   0.66349   0.00000  Uiso   1.00
C61    C     0.54615   0.65731   0.73360   0.00000  Uiso   1.00
C62    C     0.47343   0.63017   0.79286   0.00000  Uiso   1.00
C63    C     0.59615   0.59249   0.85182   0.00000  Uiso   1.00
C64    C     0.44998   0.67023   0.58301   0.00000  Uiso   1.00
C65    C     0.29639   0.65397   0.51566   0.00000  Uiso   1.00
C66    C     0.33813   0.62717   0.44785   0.00000  Uiso   1.00
C67    C     0.55287   0.75994   0.67339   0.00000  Uiso   1.00
C68    C     0.48579   0.81911   0.68200   0.00000  Uiso   1.00
C69    C     0.61415   0.86784   0.69026   0.00000  Uiso   1.00
H70    H     0.93108   0.67354   0.66255   0.00000  Uiso   1.00
H71    H     0.00354   0.60169   0.79183   0.00000  Uiso   1.00
H72    H     0.82652   0.62549   0.51467   0.00000  Uiso   1.00
H73    H     0.01589   0.79060   0.68099   0.00000  Uiso   1.00
H74    H     0.00068   0.52648   0.93530   0.00000  Uiso   1.00
H75    H     0.62744   0.57668   0.35088   0.00000  Uiso   1.00
H76    H     0.02676   0.92486   0.70160   0.00000  Uiso   1.00
H77    H     0.29018   0.70798   0.66376   0.00000  Uiso   1.00
H78    H     0.32747   0.63802   0.79312   0.00000  Uiso   1.00
H79    H     0.15046   0.66182   0.51596   0.00000  Uiso   1.00
H80    H     0.33983   0.82693   0.68228   0.00000  Uiso   1.00
H81    H     0.45196   0.55596   0.93634   0.00000  Uiso   1.00
H82    H     0.07872   0.60617   0.35192   0.00000  Uiso   1.00
H83    H     0.47804   0.95434   0.70265   0.00000  Uiso   1.00
O84    O     0.76239   0.49456   0.02087   0.00000  Uiso   1.00
O85    O     0.27272   0.56044   0.25414   0.00000  Uiso   1.00
O86    O     0.79662   0.01723   0.71428   0.00000  Uiso   1.00
N87    N     0.86643   0.54303   0.91780   0.00000  Uiso   1.00
N88    N     0.51747   0.58996   0.37141   0.00000  Uiso   1.00
N89    N     0.89079   0.91547   0.69928   0.00000  Uiso   1.00
N90    N     0.57117   0.55890   0.91836   0.00000  Uiso   1.00
N91    N     0.22221   0.60583   0.37197   0.00000  Uiso   1.00
N92    N     0.59553   0.93134   0.69985   0.00000  Uiso   1.00
C93    C     0.78425   0.81857   0.16283   0.00000  Uiso   1.00
C94    C     0.73475   0.85283   0.23325   0.00000  Uiso   1.00
C95    C     0.85760   0.89048   0.29213   0.00000  Uiso   1.00
C96    C     0.78508   0.91767   0.35146   0.00000  Uiso   1.00
C97    C     0.73688   0.97243   0.46071   0.00000  Uiso   1.00
C98    C     0.63857   0.83990   0.08266   0.00000  Uiso   1.00
C99    C     0.68056   0.86668   0.01493   0.00000  Uiso   1.00
C100   C     0.52707   0.88298   0.94749   0.00000  Uiso   1.00
C101   C     0.32956   0.91764   0.82293   0.00000  Uiso   1.00
C102   C     0.74147   0.75020   0.17303   0.00000  Uiso   1.00
C103   C     0.86996   0.70154   0.18127   0.00000  Uiso   1.00
C104   C     0.80309   0.64231   0.18990   0.00000  Uiso   1.00
C105   C     0.76534   0.53768   0.20567   0.00000  Uiso   1.00
C106   C     0.43702   0.79991   0.16349   0.00000  Uiso   1.00
C107   C     0.54615   0.84269   0.23360   0.00000  Uiso   1.00
C108   C     0.47343   0.86983   0.29286   0.00000  Uiso   1.00
C109   C     0.59615   0.90751   0.35182   0.00000  Uiso   1.00
C110   C     0.44998   0.82977   0.08301   0.00000  Uiso   1.00
C111   C     0.29639   0.84603   0.01566   0.00000  Uiso   1.00
C112   C     0.33813   0.87283   0.94785   0.00000  Uiso   1.00
C113   C     0.55287   0.74006   0.17339   0.00000  Uiso   1.00
C114   C     0.48579   0.68089   0.18200   0.00000  Uiso   1.00
C115   C     0.61415   0.63216   0.19026   0.00000  Uiso   1.00
H116   H     0.93108   0.82646   0.16255   0.00000  Uiso   1.00
H117   H     0.00354   0.89831   0.29183   0.00000  Uiso   1.00
H118   H     0.82652   0.87451   0.01467   0.00000  Uiso   1.00
H119   H     0.01589   0.70940   0.18099   0.00000  Uiso   1.00
H120   H     0.00068   0.97352   0.43530   0.00000  Uiso   1.00
H121   H     0.62744   0.92332   0.85088   0.00000  Uiso   1.00
H122   H     0.02676   0.57514   0.20160   0.00000  Uiso   1.00
H123   H     0.29018   0.79202   0.16376   0.00000  Uiso   1.00
H124   H     0.32747   0.86198   0.29312   0.00000  Uiso   1.00
H125   H     0.15046   0.83818   0.01596   0.00000  Uiso   1.00
H126   H     0.33983   0.67307   0.18228   0.00000  Uiso   1.00
H127   H     0.45196   0.94404   0.43634   0.00000  Uiso   1.00
H128   H     0.07872   0.89383   0.85192   0.00000  Uiso   1.00
H129   H     0.47804   0.54566   0.20265   0.00000  Uiso   1.00
O130   O     0.76239   0.00544   0.52087   0.00000  Uiso   1.00
O131   O     0.27272   0.93956   0.75414   0.00000  Uiso   1.00
O132   O     0.79662   0.48277   0.21428   0.00000  Uiso   1.00
N133   N     0.86643   0.95697   0.41780   0.00000  Uiso   1.00
N134   N     0.51747   0.91004   0.87141   0.00000  Uiso   1.00
N135   N     0.89079   0.58453   0.19928   0.00000  Uiso   1.00
N136   N     0.57117   0.94110   0.41836   0.00000  Uiso   1.00
N137   N     0.22221   0.89417   0.87197   0.00000  Uiso   1.00
N138   N     0.59553   0.56866   0.19985   0.00000  Uiso   1.00
C139   C     0.21575   0.31857   0.33717   0.00000  Uiso   1.00
C140   C     0.26525   0.35283   0.26675   0.00000  Uiso   1.00
C141   C     0.14240   0.39048   0.20787   0.00000  Uiso   1.00
C142   C     0.21492   0.41767   0.14854   0.00000  Uiso   1.00
C143   C     0.26312   0.47243   0.03929   0.00000  Uiso   1.00
C144   C     0.36143   0.33990   0.41734   0.00000  Uiso   1.00
C145   C     0.31944   0.36668   0.48507   0.00000  Uiso   1.00
C146   C     0.47293   0.38298   0.55251   0.00000  Uiso   1.00
C147   C     0.67044   0.41764   0.67707   0.00000  Uiso   1.00
C148   C     0.25853   0.25020   0.32697   0.00000  Uiso   1.00
C149   C     0.13004   0.20154   0.31873   0.00000  Uiso   1.00
C150   C     0.19691   0.14231   0.31010   0.00000  Uiso   1.00
C151   C     0.23466   0.03768   0.29433   0.00000  Uiso   1.00
C152   C     0.56298   0.29991   0.33651   0.00000  Uiso   1.00
C153   C     0.45385   0.34269   0.26640   0.00000  Uiso   1.00
C154   C     0.52657   0.36983   0.20714   0.00000  Uiso   1.00
C155   C     0.40385   0.40751   0.14818   0.00000  Uiso   1.00
C156   C     0.55002   0.32977   0.41699   0.00000  Uiso   1.00
C157   C     0.70361   0.34603   0.48434   0.00000  Uiso   1.00
C158   C     0.66187   0.37283   0.55215   0.00000  Uiso   1.00
C159   C     0.44713   0.24006   0.32661   0.00000  Uiso   1.00
C160   C     0.51421   0.18089   0.31800   0.00000  Uiso   1.00
C161   C     0.38585   0.13216   0.30974   0.00000  Uiso   1.00
H162   H     0.06892   0.32646   0.33745   0.00000  Uiso   1.00
H163   H     0.99646   0.39831   0.20817   0.00000  Uiso   1.00
H164   H     0.17348   0.37451   0.48533   0.00000  Uiso   1.00
H165   H     0.98411   0.20940   0.31901   0.00000  Uiso   1.00
H166   H     0.99932   0.47352   0.06470   0.00000  Uiso   1.00
H167   H     0.37256   0.42332   0.64912   0.00000  Uiso   1.00
H168   H     0.97324   0.07514   0.29840   0.00000  Uiso   1.00
H169   H     0.70982   0.29202   0.33624   0.00000  Uiso   1.00
H170   H     0.67253   0.36198   0.20688   0.00000  Uiso   1.00
H171   H     0.84954   0.33818   0.48404   0.00000  Uiso   1.00
H172   H     0.66017   0.17307   0.31772   0.00000  Uiso   1.00
H173   H     0.54804   0.44404   0.06366   0.00000  Uiso   1.00
H174   H     0.92128   0.39383   0.64808   0.00000  Uiso   1.00
H175   H     0.52196   0.04566   0.29735   0.00000  Uiso   1.00
O176   O     0.23761   0.50544   0.97913   0.00000  Uiso   1.00
O177   O     0.72728   0.43956   0.74586   0.00000  Uiso   1.00
O178   O     0.20338   0.98277   0.28572   0.00000  Uiso   1.00
N179   N     0.13357   0.45697   0.08220   0.00000  Uiso   1.00
N180   N     0.48253   0.41004   0.62859   0.00000  Uiso   1.00
N181   N     0.10921   0.08453   0.30072   0.00000  Uiso   1.00
N182   N     0.42883   0.44110   0.08164   0.00000  Uiso   1.00
N183   N     0.77779   0.39417   0.62803   0.00000  Uiso   1.00
N184   N     0.40447   0.06866   0.30015   0.00000  Uiso   1.00
