data_job_06423
_audit_creation_date              2018-12-19
_audit_creation_method            'Materials Studio'
_symmetry_space_group_name_H-M    'P1'
_symmetry_Int_Tables_number       1
_symmetry_cell_setting            triclinic
loop_
_symmetry_equiv_pos_as_xyz
  x,y,z
_cell_length_a                    17.2166
_cell_length_b                    16.7321
_cell_length_c                    15.5683
_cell_angle_alpha                 99.3992
_cell_angle_beta                  99.6630
_cell_angle_gamma                 97.9109
loop_
_atom_site_label
_atom_site_type_symbol
_atom_site_fract_x
_atom_site_fract_y
_atom_site_fract_z
_atom_site_U_iso_or_equiv
_atom_site_adp_type
_atom_site_occupancy
C1     C     0.11001   0.24149   0.67093   0.00000  Uiso   1.00
C2     C     0.18749   0.26565   0.63917   0.00000  Uiso   1.00
C3     C     0.20373   0.23567   0.55673   0.00000  Uiso   1.00
C4     C     0.27813   0.26543   0.54045   0.00000  Uiso   1.00
C5     C     0.38992   0.29414   0.48144   0.00000  Uiso   1.00
C6     C     0.13396   0.21019   0.75658   0.00000  Uiso   1.00
C7     C     0.10518   0.13358   0.77285   0.00000  Uiso   1.00
C8     C     0.13452   0.11665   0.85542   0.00000  Uiso   1.00
C9     C     0.16316   0.05929   0.97870   0.00000  Uiso   1.00
C10    C     0.07934   0.32138   0.69769   0.00000  Uiso   1.00
C11    C     0.00463   0.33825   0.66447   0.00000  Uiso   1.00
C12    C     0.98798   0.41493   0.69747   0.00000  Uiso   1.00
C13    C     0.93182   0.53020   0.72931   0.00000  Uiso   1.00
C14    C     0.21327   0.34765   0.78863   0.00000  Uiso   1.00
C15    C     0.24358   0.32331   0.70311   0.00000  Uiso   1.00
C16    C     0.31797   0.35313   0.68695   0.00000  Uiso   1.00
C17    C     0.33432   0.32320   0.60450   0.00000  Uiso   1.00
C18    C     0.19005   0.26785   0.82051   0.00000  Uiso   1.00
C19    C     0.21943   0.25104   0.90307   0.00000  Uiso   1.00
C20    C     0.19071   0.17442   0.91946   0.00000  Uiso   1.00
C21    C     0.13543   0.37904   0.76162   0.00000  Uiso   1.00
C22    C     0.11888   0.45571   0.79468   0.00000  Uiso   1.00
C23    C     0.04417   0.47270   0.76151   0.00000  Uiso   1.00
H24    H     0.06634   0.19659   0.62116   0.00000  Uiso   1.00
H25    H     0.16031   0.19103   0.50728   0.00000  Uiso   1.00
H26    H     0.06177   0.08897   0.72337   0.00000  Uiso   1.00
H27    H     0.96124   0.29361   0.61500   0.00000  Uiso   1.00
H28    H     0.28923   0.21029   0.40922   0.00000  Uiso   1.00
H29    H     0.08145   0.99508   0.86487   0.00000  Uiso   1.00
H30    H     0.86946   0.42660   0.63635   0.00000  Uiso   1.00
H31    H     0.25694   0.39255   0.83840   0.00000  Uiso   1.00
H32    H     0.36137   0.39775   0.73643   0.00000  Uiso   1.00
H33    H     0.26283   0.29568   0.95253   0.00000  Uiso   1.00
H34    H     0.16230   0.50032   0.84415   0.00000  Uiso   1.00
H35    H     0.45242   0.37806   0.59522   0.00000  Uiso   1.00
H36    H     0.24463   0.16285   0.05087   0.00000  Uiso   1.00
H37    H     0.03264   0.59438   0.82234   0.00000  Uiso   1.00
O38    O     0.43609   0.29404   0.43123   0.00000  Uiso   1.00
O39    O     0.16347   0.01170   0.02903   0.00000  Uiso   1.00
O40    O     0.88535   0.57785   0.72921   0.00000  Uiso   1.00
N41    N     0.31330   0.24907   0.46698   0.00000  Uiso   1.00
N42    N     0.11904   0.04786   0.89298   0.00000  Uiso   1.00
N43    N     0.92084   0.45129   0.67935   0.00000  Uiso   1.00
N44    N     0.40111   0.33935   0.56706   0.00000  Uiso   1.00
N45    N     0.20685   0.13814   0.99307   0.00000  Uiso   1.00
N46    N     0.00865   0.54157   0.77943   0.00000  Uiso   1.00
C47    C     0.67303   0.10671   0.23563   0.00000  Uiso   1.00
C48    C     0.64283   0.18687   0.26244   0.00000  Uiso   1.00
C49    C     0.56810   0.20398   0.22971   0.00000  Uiso   1.00
C50    C     0.55194   0.28090   0.26263   0.00000  Uiso   1.00
C51    C     0.49646   0.39662   0.29459   0.00000  Uiso   1.00
C52    C     0.75018   0.13033   0.20303   0.00000  Uiso   1.00
C53    C     0.76571   0.09989   0.12036   0.00000  Uiso   1.00
C54    C     0.83991   0.12920   0.10328   0.00000  Uiso   1.00
C55    C     0.95112   0.15708   0.04303   0.00000  Uiso   1.00
C56    C     0.69747   0.07569   0.32135   0.00000  Uiso   1.00
C57    C     0.66869   0.99930   0.33816   0.00000  Uiso   1.00
C58    C     0.69854   0.98261   0.42069   0.00000  Uiso   1.00
C59    C     0.72789   0.92567   0.54415   0.00000  Uiso   1.00
C60    C     0.77721   0.21289   0.35229   0.00000  Uiso   1.00
C61    C     0.69943   0.24454   0.32580   0.00000  Uiso   1.00
C62    C     0.68337   0.32146   0.35878   0.00000  Uiso   1.00
C63    C     0.60863   0.33868   0.32612   0.00000  Uiso   1.00
C64    C     0.80677   0.18800   0.26639   0.00000  Uiso   1.00
C65    C     0.88097   0.21736   0.24943   0.00000  Uiso   1.00
C66    C     0.89661   0.18698   0.16676   0.00000  Uiso   1.00
C67    C     0.75406   0.13336   0.38472   0.00000  Uiso   1.00
C68    C     0.78396   0.11679   0.46723   0.00000  Uiso   1.00
C69    C     0.75523   0.04039   0.48417   0.00000  Uiso   1.00
H70    H     0.62897   0.06181   0.18629   0.00000  Uiso   1.00
H71    H     0.52433   0.15933   0.18067   0.00000  Uiso   1.00
H72    H     0.72190   0.05525   0.07135   0.00000  Uiso   1.00
H73    H     0.62490   0.95469   0.28911   0.00000  Uiso   1.00
H74    H     0.43327   0.29291   0.20236   0.00000  Uiso   1.00
H75    H     0.84988   0.07342   0.97185   0.00000  Uiso   1.00
H76    H     0.64534   0.86136   0.43105   0.00000  Uiso   1.00
H77    H     0.82127   0.25779   0.40162   0.00000  Uiso   1.00
H78    H     0.72718   0.36608   0.40782   0.00000  Uiso   1.00
H79    H     0.92475   0.26199   0.29849   0.00000  Uiso   1.00
H80    H     0.82775   0.16143   0.51625   0.00000  Uiso   1.00
H81    H     0.59791   0.46071   0.38672   0.00000  Uiso   1.00
H82    H     0.01453   0.24121   0.15620   0.00000  Uiso   1.00
H83    H     0.80998   0.02916   0.61541   0.00000  Uiso   1.00
O84    O     0.45023   0.44451   0.29471   0.00000  Uiso   1.00
O85    O     0.99681   0.15654   0.99229   0.00000  Uiso   1.00
O86    O     0.72845   0.87833   0.59475   0.00000  Uiso   1.00
N87    N     0.48493   0.31753   0.24491   0.00000  Uiso   1.00
N88    N     0.87443   0.11233   0.02939   0.00000  Uiso   1.00
N89    N     0.68321   0.91407   0.45869   0.00000  Uiso   1.00
N90    N     0.57352   0.40782   0.34411   0.00000  Uiso   1.00
N91    N     0.96302   0.20262   0.12859   0.00000  Uiso   1.00
N92    N     0.77180   0.00436   0.55790   0.00000  Uiso   1.00
C93    C     0.24216   0.67260   0.09846   0.00000  Uiso   1.00
C94    C     0.26664   0.64207   0.18449   0.00000  Uiso   1.00
C95    C     0.23831   0.56566   0.20156   0.00000  Uiso   1.00
C96    C     0.26808   0.54948   0.28435   0.00000  Uiso   1.00
C97    C     0.29752   0.49324   0.40830   0.00000  Uiso   1.00
C98    C     0.21122   0.75243   0.12468   0.00000  Uiso   1.00
C99    C     0.13629   0.76880   0.09145   0.00000  Uiso   1.00
C100   C     0.11941   0.84553   0.12388   0.00000  Uiso   1.00
C101   C     0.06283   0.96064   0.15493   0.00000  Uiso   1.00
C102   C     0.31937   0.69672   0.06618   0.00000  Uiso   1.00
C103   C     0.33538   0.66628   0.98375   0.00000  Uiso   1.00
C104   C     0.40955   0.69612   0.96693   0.00000  Uiso   1.00
C105   C     0.52090   0.72474   0.90715   0.00000  Uiso   1.00
C106   C     0.34539   0.77974   0.21514   0.00000  Uiso   1.00
C107   C     0.32271   0.70027   0.24786   0.00000  Uiso   1.00
C108   C     0.35253   0.68420   0.33065   0.00000  Uiso   1.00
C109   C     0.32425   0.60778   0.34784   0.00000  Uiso   1.00
C110   C     0.26728   0.81062   0.18805   0.00000  Uiso   1.00
C111   C     0.25051   0.88734   0.22054   0.00000  Uiso   1.00
C112   C     0.17558   0.90383   0.18737   0.00000  Uiso   1.00
C113   C     0.37545   0.75492   0.12956   0.00000  Uiso   1.00
C114   C     0.44960   0.78481   0.11285   0.00000  Uiso   1.00
C115   C     0.46572   0.75442   0.03042   0.00000  Uiso   1.00
H116   H     0.19851   0.62730   0.04912   0.00000  Uiso   1.00
H117   H     0.19491   0.52064   0.15250   0.00000  Uiso   1.00
H118   H     0.09292   0.72376   0.04240   0.00000  Uiso   1.00
H119   H     0.29198   0.62125   0.93473   0.00000  Uiso   1.00
H120   H     0.21564   0.42807   0.29507   0.00000  Uiso   1.00
H121   H     0.00058   0.85637   0.06290   0.00000  Uiso   1.00
H122   H     0.42033   0.64020   0.83585   0.00000  Uiso   1.00
H123   H     0.38905   0.82505   0.26448   0.00000  Uiso   1.00
H124   H     0.39592   0.72924   0.37968   0.00000  Uiso   1.00
H125   H     0.29392   0.93236   0.26958   0.00000  Uiso   1.00
H126   H     0.49297   0.82985   0.16191   0.00000  Uiso   1.00
H127   H     0.37877   0.59738   0.47946   0.00000  Uiso   1.00
H128   H     0.16372   0.02568   0.24728   0.00000  Uiso   1.00
H129   H     0.58347   0.80951   0.02024   0.00000  Uiso   1.00
O130   O     0.29827   0.44615   0.45917   0.00000  Uiso   1.00
O131   O     0.01613   0.00805   0.15455   0.00000  Uiso   1.00
O132   O     0.56683   0.72445   0.85668   0.00000  Uiso   1.00
N133   N     0.25310   0.48106   0.32265   0.00000  Uiso   1.00
N134   N     0.05203   0.88149   0.10559   0.00000  Uiso   1.00
N135   N     0.44446   0.67941   0.89331   0.00000  Uiso   1.00
N136   N     0.34089   0.57217   0.42187   0.00000  Uiso   1.00
N137   N     0.13982   0.97259   0.20481   0.00000  Uiso   1.00
N138   N     0.53224   0.77051   0.99253   0.00000  Uiso   1.00
C139   C     0.60938   0.17297   0.73531   0.00000  Uiso   1.00
C140   C     0.68745   0.14203   0.76248   0.00000  Uiso   1.00
C141   C     0.70418   0.06528   0.73007   0.00000  Uiso   1.00
C142   C     0.77908   0.04876   0.76329   0.00000  Uiso   1.00
C143   C     0.89178   0.99189   0.79582   0.00000  Uiso   1.00
C144   C     0.63216   0.25239   0.70253   0.00000  Uiso   1.00
C145   C     0.60239   0.26843   0.61971   0.00000  Uiso   1.00
C146   C     0.63074   0.34481   0.60247   0.00000  Uiso   1.00
C147   C     0.65755   0.45929   0.54194   0.00000  Uiso   1.00
C148   C     0.57930   0.19790   0.82085   0.00000  Uiso   1.00
C149   C     0.50509   0.16814   0.83750   0.00000  Uiso   1.00
C150   C     0.48892   0.19866   0.91988   0.00000  Uiso   1.00
C151   C     0.43367   0.22855   0.04306   0.00000  Uiso   1.00
C152   C     0.71263   0.28011   0.85196   0.00000  Uiso   1.00
C153   C     0.74353   0.20023   0.82584   0.00000  Uiso   1.00
C154   C     0.81842   0.18382   0.85913   0.00000  Uiso   1.00
C155   C     0.83526   0.10706   0.82677   0.00000  Uiso   1.00
C156   C     0.68824   0.31058   0.76589   0.00000  Uiso   1.00
C157   C     0.71663   0.38696   0.74877   0.00000  Uiso   1.00
C158   C     0.68692   0.40311   0.66595   0.00000  Uiso   1.00
C159   C     0.63538   0.25610   0.88421   0.00000  Uiso   1.00
C160   C     0.61933   0.28668   0.96657   0.00000  Uiso   1.00
C161   C     0.54511   0.25697   0.98335   0.00000  Uiso   1.00
H162   H     0.56572   0.12767   0.68597   0.00000  Uiso   1.00
H163   H     0.66077   0.02027   0.68102   0.00000  Uiso   1.00
H164   H     0.55899   0.22338   0.57069   0.00000  Uiso   1.00
H165   H     0.46170   0.12311   0.78846   0.00000  Uiso   1.00
H166   H     0.79089   0.92687   0.70346   0.00000  Uiso   1.00
H167   H     0.57626   0.35516   0.47082   0.00000  Uiso   1.00
H168   H     0.37111   0.14372   0.93002   0.00000  Uiso   1.00
H169   H     0.75630   0.32542   0.90130   0.00000  Uiso   1.00
H170   H     0.86181   0.22887   0.90817   0.00000  Uiso   1.00
H171   H     0.76002   0.43198   0.79783   0.00000  Uiso   1.00
H172   H     0.66274   0.33171   0.01559   0.00000  Uiso   1.00
H173   H     0.95406   0.09618   0.88781   0.00000  Uiso   1.00
H174   H     0.73942   0.52447   0.65517   0.00000  Uiso   1.00
H175   H     0.53429   0.31303   0.11437   0.00000  Uiso   1.00
O176   O     0.93845   0.94445   0.79624   0.00000  Uiso   1.00
O177   O     0.65685   0.50635   0.49104   0.00000  Uiso   1.00
O178   O     0.38771   0.22895   0.09350   0.00000  Uiso   1.00
N179   N     0.81481   0.97996   0.74591   0.00000  Uiso   1.00
N180   N     0.61415   0.38038   0.52841   0.00000  Uiso   1.00
N181   N     0.42235   0.18272   0.95771   0.00000  Uiso   1.00
N182   N     0.90261   0.07107   0.84511   0.00000  Uiso   1.00
N183   N     0.70195   0.47148   0.62761   0.00000  Uiso   1.00
N184   N     0.51015   0.27382   0.05691   0.00000  Uiso   1.00
C185   C     0.17254   0.74069   0.59866   0.00000  Uiso   1.00
C186   C     0.14293   0.76566   0.68451   0.00000  Uiso   1.00
C187   C     0.06870   0.73637   0.70142   0.00000  Uiso   1.00
C188   C     0.05303   0.76680   0.78406   0.00000  Uiso   1.00
C189   C     0.99846   0.79678   0.90773   0.00000  Uiso   1.00
C190   C     0.25028   0.70899   0.62525   0.00000  Uiso   1.00
C191   C     0.26630   0.63204   0.59232   0.00000  Uiso   1.00
C192   C     0.34100   0.61477   0.62506   0.00000  Uiso   1.00
C193   C     0.45312   0.55677   0.65668   0.00000  Uiso   1.00
C194   C     0.19580   0.82017   0.56620   0.00000  Uiso   1.00
C195   C     0.16604   0.83671   0.48362   0.00000  Uiso   1.00
C196   C     0.19489   0.91305   0.46664   0.00000  Uiso   1.00
C197   C     0.22242   0.02768   0.40658   0.00000  Uiso   1.00
C198   C     0.27672   0.84685   0.71534   0.00000  Uiso   1.00
C199   C     0.19952   0.82332   0.74788   0.00000  Uiso   1.00
C200   C     0.18396   0.85382   0.83052   0.00000  Uiso   1.00
C201   C     0.10971   0.82457   0.84755   0.00000  Uiso   1.00
C202   C     0.30687   0.76664   0.68862   0.00000  Uiso   1.00
C203   C     0.38157   0.74949   0.72142   0.00000  Uiso   1.00
C204   C     0.39770   0.67254   0.68855   0.00000  Uiso   1.00
C205   C     0.25239   0.87784   0.62958   0.00000  Uiso   1.00
C206   C     0.28130   0.95416   0.61272   0.00000  Uiso   1.00
C207   C     0.25158   0.97081   0.53013   0.00000  Uiso   1.00
H208   H     0.12849   0.69580   0.54932   0.00000  Uiso   1.00
H209   H     0.02492   0.69174   0.65236   0.00000  Uiso   1.00
H210   H     0.22250   0.58743   0.54327   0.00000  Uiso   1.00
H211   H     0.12225   0.79207   0.43459   0.00000  Uiso   1.00
H212   H     0.93506   0.71264   0.79456   0.00000  Uiso   1.00
H213   H     0.35168   0.49272   0.56451   0.00000  Uiso   1.00
H214   H     0.14028   0.92424   0.33534   0.00000  Uiso   1.00
H215   H     0.32079   0.89175   0.76469   0.00000  Uiso   1.00
H216   H     0.22777   0.89844   0.87955   0.00000  Uiso   1.00
H217   H     0.42535   0.79413   0.77046   0.00000  Uiso   1.00
H218   H     0.32510   0.99877   0.66178   0.00000  Uiso   1.00
H219   H     0.09971   0.88040   0.97896   0.00000  Uiso   1.00
H220   H     0.51632   0.66048   0.74890   0.00000  Uiso   1.00
H221   H     0.30492   0.09200   0.51974   0.00000  Uiso   1.00
O222   O     0.95274   0.79737   0.95844   0.00000  Uiso   1.00
O223   O     0.49932   0.50884   0.65661   0.00000  Uiso   1.00
O224   O     0.22197   0.07498   0.35595   0.00000  Uiso   1.00
N225   N     0.98657   0.75122   0.82219   0.00000  Uiso   1.00
N226   N     0.37608   0.54560   0.60712   0.00000  Uiso   1.00
N227   N     0.17845   0.94902   0.39285   0.00000  Uiso   1.00
N228   N     0.07517   0.84149   0.92141   0.00000  Uiso   1.00
N229   N     0.46467   0.63587   0.70634   0.00000  Uiso   1.00
N230   N     0.26705   0.03930   0.49207   0.00000  Uiso   1.00
C231   C     0.74328   0.60713   0.17105   0.00000  Uiso   1.00
C232   C     0.76658   0.68689   0.13911   0.00000  Uiso   1.00
C233   C     0.73726   0.70366   0.05652   0.00000  Uiso   1.00
C234   C     0.76604   0.78024   0.04009   0.00000  Uiso   1.00
C235   C     0.79366   0.89533   0.98079   0.00000  Uiso   1.00
C236   C     0.71292   0.63157   0.25652   0.00000  Uiso   1.00
C237   C     0.63849   0.60180   0.27264   0.00000  Uiso   1.00
C238   C     0.62210   0.63181   0.35504   0.00000  Uiso   1.00
C239   C     0.56644   0.66095   0.47805   0.00000  Uiso   1.00
C240   C     0.82108   0.57571   0.19818   0.00000  Uiso   1.00
C241   C     0.83758   0.49898   0.16526   0.00000  Uiso   1.00
C242   C     0.91225   0.48196   0.19857   0.00000  Uiso   1.00
C243   C     0.02451   0.42439   0.23098   0.00000  Uiso   1.00
C244   C     0.84652   0.71332   0.28875   0.00000  Uiso   1.00
C245   C     0.82266   0.74457   0.20304   0.00000  Uiso   1.00
C246   C     0.85149   0.82114   0.18673   0.00000  Uiso   1.00
C247   C     0.82222   0.83802   0.10413   0.00000  Uiso   1.00
C248   C     0.76899   0.68924   0.32045   0.00000  Uiso   1.00
C249   C     0.75272   0.71929   0.40285   0.00000  Uiso   1.00
C250   C     0.67828   0.68959   0.41909   0.00000  Uiso   1.00
C251   C     0.87716   0.63339   0.26210   0.00000  Uiso   1.00
C252   C     0.95181   0.61647   0.29547   0.00000  Uiso   1.00
C253   C     0.96843   0.53974   0.26261   0.00000  Uiso   1.00
H254   H     0.69962   0.56223   0.12128   0.00000  Uiso   1.00
H255   H     0.69386   0.65901   0.00706   0.00000  Uiso   1.00
H256   H     0.59511   0.55717   0.22315   0.00000  Uiso   1.00
H257   H     0.79417   0.45437   0.11579   0.00000  Uiso   1.00
H258   H     0.71218   0.79176   0.90863   0.00000  Uiso   1.00
H259   H     0.50398   0.57699   0.36428   0.00000  Uiso   1.00
H260   H     0.92373   0.36022   0.13789   0.00000  Uiso   1.00
H261   H     0.89018   0.75823   0.33852   0.00000  Uiso   1.00
H262   H     0.89488   0.86576   0.23622   0.00000  Uiso   1.00
H263   H     0.79613   0.76392   0.45231   0.00000  Uiso   1.00
H264   H     0.99519   0.66112   0.34495   0.00000  Uiso   1.00
H265   H     0.87534   0.95957   0.09463   0.00000  Uiso   1.00
H266   H     0.66713   0.74480   0.55028   0.00000  Uiso   1.00
H267   H     0.08689   0.52803   0.32388   0.00000  Uiso   1.00
O268   O     0.79339   0.94288   0.93042   0.00000  Uiso   1.00
O269   O     0.52024   0.66110   0.52822   0.00000  Uiso   1.00
O270   O     0.07095   0.37670   0.23119   0.00000  Uiso   1.00
N271   N     0.74995   0.81649   0.96644   0.00000  Uiso   1.00
N272   N     0.55528   0.61570   0.39244   0.00000  Uiso   1.00
N273   N     0.94771   0.41303   0.18080   0.00000  Uiso   1.00
N274   N     0.83774   0.90678   0.06652   0.00000  Uiso   1.00
N275   N     0.64307   0.70600   0.49252   0.00000  Uiso   1.00
N276   N     0.03550   0.50333   0.28088   0.00000  Uiso   1.00
