data_job_05086
_audit_creation_date              2018-12-19
_audit_creation_method            'Materials Studio'
_symmetry_space_group_name_H-M    'P1'
_symmetry_Int_Tables_number       1
_symmetry_cell_setting            triclinic
loop_
_symmetry_equiv_pos_as_xyz
  x,y,z
_cell_length_a                    16.7125
_cell_length_b                    11.0887
_cell_length_c                    12.8514
_cell_angle_alpha                 90.0000
_cell_angle_beta                  89.2170
_cell_angle_gamma                 90.0000
loop_
_atom_site_label
_atom_site_type_symbol
_atom_site_fract_x
_atom_site_fract_y
_atom_site_fract_z
_atom_site_U_iso_or_equiv
_atom_site_adp_type
_atom_site_occupancy
C1     C     0.26464   0.57251   0.67331   0.00000  Uiso   1.00
C2     C     0.18947   0.49728   0.65699   0.00000  Uiso   1.00
C3     C     0.18379   0.37308   0.66810   0.00000  Uiso   1.00
C4     C     0.10973   0.32117   0.64967   0.00000  Uiso   1.00
C5     C     0.00305   0.19371   0.62860   0.00000  Uiso   1.00
C6     C     0.27889   0.64146   0.57208   0.00000  Uiso   1.00
C7     C     0.34841   0.63848   0.51181   0.00000  Uiso   1.00
C8     C     0.34962   0.70795   0.42191   0.00000  Uiso   1.00
C9     C     0.38179   0.80440   0.26906   0.00000  Uiso   1.00
C10    C     0.24234   0.66698   0.75491   0.00000  Uiso   1.00
C11    C     0.28113   0.68550   0.84836   0.00000  Uiso   1.00
C12    C     0.25158   0.77648   0.91239   0.00000  Uiso   1.00
C13    C     0.22700   0.91256   0.04342   0.00000  Uiso   1.00
C14    C     0.14319   0.70120   0.62084   0.00000  Uiso   1.00
C15    C     0.12351   0.56718   0.62848   0.00000  Uiso   1.00
C16    C     0.04943   0.51545   0.61004   0.00000  Uiso   1.00
C17    C     0.04364   0.39118   0.62113   0.00000  Uiso   1.00
C18    C     0.21293   0.71135   0.54357   0.00000  Uiso   1.00
C19    C     0.21404   0.78085   0.45375   0.00000  Uiso   1.00
C20    C     0.28354   0.77797   0.39336   0.00000  Uiso   1.00
C21    C     0.17637   0.73688   0.72641   0.00000  Uiso   1.00
C22    C     0.14676   0.82786   0.79031   0.00000  Uiso   1.00
C23    C     0.18550   0.84650   0.88384   0.00000  Uiso   1.00
H24    H     0.31600   0.51810   0.69550   0.00000  Uiso   1.00
H25    H     0.23486   0.31902   0.69014   0.00000  Uiso   1.00
H26    H     0.39945   0.58439   0.53389   0.00000  Uiso   1.00
H27    H     0.33217   0.63139   0.87039   0.00000  Uiso   1.00
H28    H     0.11581   0.12911   0.67160   0.00000  Uiso   1.00
H29    H     0.46287   0.68870   0.34214   0.00000  Uiso   1.00
H30    H     0.32102   0.78781   0.05173   0.00000  Uiso   1.00
H31    H     0.09184   0.75562   0.59865   0.00000  Uiso   1.00
H32    H     0.99839   0.56956   0.58799   0.00000  Uiso   1.00
H33    H     0.16298   0.83493   0.43173   0.00000  Uiso   1.00
H34    H     0.09571   0.88193   0.76823   0.00000  Uiso   1.00
H35    H     0.92389   0.33246   0.58869   0.00000  Uiso   1.00
H36    H     0.27095   0.89205   0.25923   0.00000  Uiso   1.00
H37    H     0.12910   0.99116   0.96881   0.00000  Uiso   1.00
O38    O     0.96243   0.10410   0.62484   0.00000  Uiso   1.00
O39    O     0.41776   0.83827   0.19262   0.00000  Uiso   1.00
O40    O     0.23165   0.96830   0.12357   0.00000  Uiso   1.00
N41    N     0.08346   0.20251   0.65357   0.00000  Uiso   1.00
N42    N     0.40794   0.72567   0.34554   0.00000  Uiso   1.00
N43    N     0.27533   0.81836   0.00893   0.00000  Uiso   1.00
N44    N     0.98019   0.31193   0.60896   0.00000  Uiso   1.00
N45    N     0.30467   0.83509   0.30092   0.00000  Uiso   1.00
N46    N     0.17206   0.92778   0.96431   0.00000  Uiso   1.00
C47    C     0.73536   0.57251   0.82669   0.00000  Uiso   1.00
C48    C     0.81053   0.49728   0.84301   0.00000  Uiso   1.00
C49    C     0.81621   0.37308   0.83190   0.00000  Uiso   1.00
C50    C     0.89027   0.32117   0.85033   0.00000  Uiso   1.00
C51    C     0.99695   0.19371   0.87140   0.00000  Uiso   1.00
C52    C     0.72111   0.64146   0.92792   0.00000  Uiso   1.00
C53    C     0.65159   0.63848   0.98819   0.00000  Uiso   1.00
C54    C     0.65038   0.70795   0.07809   0.00000  Uiso   1.00
C55    C     0.61821   0.80440   0.23094   0.00000  Uiso   1.00
C56    C     0.75766   0.66698   0.74509   0.00000  Uiso   1.00
C57    C     0.71887   0.68550   0.65164   0.00000  Uiso   1.00
C58    C     0.74842   0.77648   0.58761   0.00000  Uiso   1.00
C59    C     0.77300   0.91256   0.45658   0.00000  Uiso   1.00
C60    C     0.85681   0.70120   0.87916   0.00000  Uiso   1.00
C61    C     0.87649   0.56718   0.87152   0.00000  Uiso   1.00
C62    C     0.95057   0.51545   0.88996   0.00000  Uiso   1.00
C63    C     0.95636   0.39118   0.87887   0.00000  Uiso   1.00
C64    C     0.78707   0.71135   0.95643   0.00000  Uiso   1.00
C65    C     0.78596   0.78085   0.04625   0.00000  Uiso   1.00
C66    C     0.71646   0.77797   0.10664   0.00000  Uiso   1.00
C67    C     0.82363   0.73688   0.77359   0.00000  Uiso   1.00
C68    C     0.85324   0.82786   0.70969   0.00000  Uiso   1.00
C69    C     0.81450   0.84650   0.61616   0.00000  Uiso   1.00
H70    H     0.68400   0.51810   0.80450   0.00000  Uiso   1.00
H71    H     0.76514   0.31902   0.80986   0.00000  Uiso   1.00
H72    H     0.60055   0.58439   0.96611   0.00000  Uiso   1.00
H73    H     0.66783   0.63139   0.62961   0.00000  Uiso   1.00
H74    H     0.88419   0.12911   0.82840   0.00000  Uiso   1.00
H75    H     0.53713   0.68870   0.15786   0.00000  Uiso   1.00
H76    H     0.67898   0.78781   0.44827   0.00000  Uiso   1.00
H77    H     0.90816   0.75562   0.90135   0.00000  Uiso   1.00
H78    H     0.00161   0.56956   0.91201   0.00000  Uiso   1.00
H79    H     0.83702   0.83493   0.06827   0.00000  Uiso   1.00
H80    H     0.90429   0.88193   0.73177   0.00000  Uiso   1.00
H81    H     0.07611   0.33246   0.91131   0.00000  Uiso   1.00
H82    H     0.72905   0.89205   0.24077   0.00000  Uiso   1.00
H83    H     0.87090   0.99116   0.53119   0.00000  Uiso   1.00
O84    O     0.03757   0.10410   0.87516   0.00000  Uiso   1.00
O85    O     0.58224   0.83827   0.30738   0.00000  Uiso   1.00
O86    O     0.76835   0.96830   0.37643   0.00000  Uiso   1.00
N87    N     0.91654   0.20251   0.84643   0.00000  Uiso   1.00
N88    N     0.59206   0.72567   0.15446   0.00000  Uiso   1.00
N89    N     0.72467   0.81836   0.49107   0.00000  Uiso   1.00
N90    N     0.01981   0.31193   0.89104   0.00000  Uiso   1.00
N91    N     0.69533   0.83509   0.19908   0.00000  Uiso   1.00
N92    N     0.82794   0.92778   0.53569   0.00000  Uiso   1.00
C93    C     0.73536   0.42749   0.32669   0.00000  Uiso   1.00
C94    C     0.81053   0.50272   0.34301   0.00000  Uiso   1.00
C95    C     0.81621   0.62692   0.33190   0.00000  Uiso   1.00
C96    C     0.89027   0.67883   0.35033   0.00000  Uiso   1.00
C97    C     0.99695   0.80629   0.37140   0.00000  Uiso   1.00
C98    C     0.72111   0.35854   0.42792   0.00000  Uiso   1.00
C99    C     0.65159   0.36152   0.48819   0.00000  Uiso   1.00
C100   C     0.65038   0.29205   0.57809   0.00000  Uiso   1.00
C101   C     0.61821   0.19560   0.73094   0.00000  Uiso   1.00
C102   C     0.75766   0.33302   0.24509   0.00000  Uiso   1.00
C103   C     0.71887   0.31450   0.15164   0.00000  Uiso   1.00
C104   C     0.74842   0.22352   0.08761   0.00000  Uiso   1.00
C105   C     0.77300   0.08744   0.95658   0.00000  Uiso   1.00
C106   C     0.85681   0.29880   0.37916   0.00000  Uiso   1.00
C107   C     0.87649   0.43282   0.37152   0.00000  Uiso   1.00
C108   C     0.95057   0.48455   0.38996   0.00000  Uiso   1.00
C109   C     0.95636   0.60882   0.37887   0.00000  Uiso   1.00
C110   C     0.78707   0.28865   0.45643   0.00000  Uiso   1.00
C111   C     0.78596   0.21915   0.54625   0.00000  Uiso   1.00
C112   C     0.71646   0.22203   0.60664   0.00000  Uiso   1.00
C113   C     0.82363   0.26312   0.27359   0.00000  Uiso   1.00
C114   C     0.85324   0.17214   0.20969   0.00000  Uiso   1.00
C115   C     0.81450   0.15350   0.11616   0.00000  Uiso   1.00
H116   H     0.68400   0.48190   0.30450   0.00000  Uiso   1.00
H117   H     0.76514   0.68098   0.30986   0.00000  Uiso   1.00
H118   H     0.60055   0.41561   0.46611   0.00000  Uiso   1.00
H119   H     0.66783   0.36861   0.12961   0.00000  Uiso   1.00
H120   H     0.88419   0.87089   0.32840   0.00000  Uiso   1.00
H121   H     0.53713   0.31130   0.65786   0.00000  Uiso   1.00
H122   H     0.67898   0.21219   0.94827   0.00000  Uiso   1.00
H123   H     0.90816   0.24438   0.40135   0.00000  Uiso   1.00
H124   H     0.00161   0.43044   0.41201   0.00000  Uiso   1.00
H125   H     0.83702   0.16507   0.56827   0.00000  Uiso   1.00
H126   H     0.90429   0.11807   0.23177   0.00000  Uiso   1.00
H127   H     0.07611   0.66754   0.41131   0.00000  Uiso   1.00
H128   H     0.72905   0.10795   0.74077   0.00000  Uiso   1.00
H129   H     0.87090   0.00884   0.03119   0.00000  Uiso   1.00
O130   O     0.03757   0.89590   0.37516   0.00000  Uiso   1.00
O131   O     0.58224   0.16173   0.80738   0.00000  Uiso   1.00
O132   O     0.76835   0.03170   0.87643   0.00000  Uiso   1.00
N133   N     0.91654   0.79749   0.34643   0.00000  Uiso   1.00
N134   N     0.59206   0.27433   0.65446   0.00000  Uiso   1.00
N135   N     0.72467   0.18164   0.99107   0.00000  Uiso   1.00
N136   N     0.01981   0.68807   0.39104   0.00000  Uiso   1.00
N137   N     0.69533   0.16491   0.69908   0.00000  Uiso   1.00
N138   N     0.82794   0.07222   0.03569   0.00000  Uiso   1.00
C139   C     0.26464   0.42749   0.17331   0.00000  Uiso   1.00
C140   C     0.18947   0.50272   0.15699   0.00000  Uiso   1.00
C141   C     0.18379   0.62692   0.16810   0.00000  Uiso   1.00
C142   C     0.10973   0.67883   0.14967   0.00000  Uiso   1.00
C143   C     0.00305   0.80629   0.12860   0.00000  Uiso   1.00
C144   C     0.27889   0.35854   0.07208   0.00000  Uiso   1.00
C145   C     0.34841   0.36152   0.01181   0.00000  Uiso   1.00
C146   C     0.34962   0.29205   0.92191   0.00000  Uiso   1.00
C147   C     0.38179   0.19560   0.76906   0.00000  Uiso   1.00
C148   C     0.24234   0.33302   0.25491   0.00000  Uiso   1.00
C149   C     0.28113   0.31450   0.34836   0.00000  Uiso   1.00
C150   C     0.25158   0.22352   0.41239   0.00000  Uiso   1.00
C151   C     0.22700   0.08744   0.54342   0.00000  Uiso   1.00
C152   C     0.14319   0.29880   0.12084   0.00000  Uiso   1.00
C153   C     0.12351   0.43282   0.12848   0.00000  Uiso   1.00
C154   C     0.04943   0.48455   0.11004   0.00000  Uiso   1.00
C155   C     0.04364   0.60882   0.12113   0.00000  Uiso   1.00
C156   C     0.21293   0.28865   0.04357   0.00000  Uiso   1.00
C157   C     0.21404   0.21915   0.95375   0.00000  Uiso   1.00
C158   C     0.28354   0.22203   0.89336   0.00000  Uiso   1.00
C159   C     0.17637   0.26312   0.22641   0.00000  Uiso   1.00
C160   C     0.14676   0.17214   0.29031   0.00000  Uiso   1.00
C161   C     0.18550   0.15350   0.38384   0.00000  Uiso   1.00
H162   H     0.31600   0.48190   0.19550   0.00000  Uiso   1.00
H163   H     0.23486   0.68098   0.19014   0.00000  Uiso   1.00
H164   H     0.39945   0.41561   0.03389   0.00000  Uiso   1.00
H165   H     0.33217   0.36861   0.37039   0.00000  Uiso   1.00
H166   H     0.11581   0.87089   0.17160   0.00000  Uiso   1.00
H167   H     0.46287   0.31130   0.84214   0.00000  Uiso   1.00
H168   H     0.32102   0.21219   0.55173   0.00000  Uiso   1.00
H169   H     0.09184   0.24438   0.09865   0.00000  Uiso   1.00
H170   H     0.99839   0.43044   0.08799   0.00000  Uiso   1.00
H171   H     0.16298   0.16507   0.93173   0.00000  Uiso   1.00
H172   H     0.09571   0.11807   0.26823   0.00000  Uiso   1.00
H173   H     0.92389   0.66754   0.08869   0.00000  Uiso   1.00
H174   H     0.27095   0.10795   0.75923   0.00000  Uiso   1.00
H175   H     0.12910   0.00884   0.46881   0.00000  Uiso   1.00
O176   O     0.96243   0.89590   0.12484   0.00000  Uiso   1.00
O177   O     0.41776   0.16173   0.69262   0.00000  Uiso   1.00
O178   O     0.23165   0.03170   0.62357   0.00000  Uiso   1.00
N179   N     0.08346   0.79749   0.15357   0.00000  Uiso   1.00
N180   N     0.40794   0.27433   0.84554   0.00000  Uiso   1.00
N181   N     0.27533   0.18164   0.50893   0.00000  Uiso   1.00
N182   N     0.98019   0.68807   0.10896   0.00000  Uiso   1.00
N183   N     0.30467   0.16491   0.80092   0.00000  Uiso   1.00
N184   N     0.17206   0.07222   0.46431   0.00000  Uiso   1.00
