data_job_04376
_audit_creation_date              2018-12-19
_audit_creation_method            'Materials Studio'
_symmetry_space_group_name_H-M    'P1'
_symmetry_Int_Tables_number       1
_symmetry_cell_setting            triclinic
loop_
_symmetry_equiv_pos_as_xyz
  x,y,z
_cell_length_a                    12.5950
_cell_length_b                    12.7077
_cell_length_c                    13.9987
_cell_angle_alpha                 85.1537
_cell_angle_beta                  88.4614
_cell_angle_gamma                 109.1283
loop_
_atom_site_label
_atom_site_type_symbol
_atom_site_fract_x
_atom_site_fract_y
_atom_site_fract_z
_atom_site_U_iso_or_equiv
_atom_site_adp_type
_atom_site_occupancy
C1     C     0.18351   0.60712   0.20805   0.00000  Uiso   1.00
C2     C     0.29487   0.68952   0.16404   0.00000  Uiso   1.00
C3     C     0.38236   0.66131   0.12341   0.00000  Uiso   1.00
C4     C     0.47728   0.74896   0.08706   0.00000  Uiso   1.00
C5     C     0.64915   0.85990   0.01814   0.00000  Uiso   1.00
C6     C     0.17308   0.63620   0.31058   0.00000  Uiso   1.00
C7     C     0.15815   0.56315   0.39317   0.00000  Uiso   1.00
C8     C     0.15053   0.60591   0.48017   0.00000  Uiso   1.00
C9     C     0.13324   0.63404   0.63876   0.00000  Uiso   1.00
C10    C     0.09147   0.63669   0.15479   0.00000  Uiso   1.00
C11    C     0.00790   0.56405   0.10640   0.00000  Uiso   1.00
C12    C     0.93155   0.60722   0.06226   0.00000  Uiso   1.00
C13    C     0.78755   0.63612   0.97896   0.00000  Uiso   1.00
C14    C     0.19650   0.81295   0.21573   0.00000  Uiso   1.00
C15    C     0.30193   0.80132   0.16822   0.00000  Uiso   1.00
C16    C     0.39673   0.88903   0.13191   0.00000  Uiso   1.00
C17    C     0.48435   0.86096   0.09124   0.00000  Uiso   1.00
C18    C     0.18014   0.74799   0.31476   0.00000  Uiso   1.00
C19    C     0.17253   0.79087   0.40167   0.00000  Uiso   1.00
C20    C     0.15760   0.71791   0.48436   0.00000  Uiso   1.00
C21    C     0.09853   0.74849   0.15896   0.00000  Uiso   1.00
C22    C     0.02228   0.79178   0.11490   0.00000  Uiso   1.00
C23    C     0.93862   0.71922   0.06645   0.00000  Uiso   1.00
H24    H     0.17801   0.52008   0.20480   0.00000  Uiso   1.00
H25    H     0.37687   0.57478   0.12021   0.00000  Uiso   1.00
H26    H     0.15269   0.47664   0.38991   0.00000  Uiso   1.00
H27    H     0.00247   0.47755   0.10319   0.00000  Uiso   1.00
H28    H     0.60047   0.68473   0.02828   0.00000  Uiso   1.00
H29    H     0.12773   0.47777   0.59697   0.00000  Uiso   1.00
H30    H     0.81096   0.47968   0.99237   0.00000  Uiso   1.00
H31    H     0.20199   0.89999   0.21898   0.00000  Uiso   1.00
H32    H     0.40217   0.97554   0.13516   0.00000  Uiso   1.00
H33    H     0.17799   0.87739   0.40487   0.00000  Uiso   1.00
H34    H     0.02777   0.87830   0.11815   0.00000  Uiso   1.00
H35    H     0.62101   0.01000   0.04042   0.00000  Uiso   1.00
H36    H     0.14826   0.80303   0.60912   0.00000  Uiso   1.00
H37    H     0.83150   0.80495   0.00451   0.00000  Uiso   1.00
O38    O     0.74201   0.89021   0.97898   0.00000  Uiso   1.00
O39    O     0.12177   0.61868   0.72508   0.00000  Uiso   1.00
O40    O     0.70618   0.62119   0.93185   0.00000  Uiso   1.00
N41    N     0.57783   0.75091   0.04263   0.00000  Uiso   1.00
N42    N     0.13586   0.55742   0.57432   0.00000  Uiso   1.00
N43    N     0.83969   0.55920   0.00908   0.00000  Uiso   1.00
N44    N     0.58887   0.92594   0.04916   0.00000  Uiso   1.00
N45    N     0.14691   0.73245   0.58085   0.00000  Uiso   1.00
N46    N     0.85074   0.73423   0.01561   0.00000  Uiso   1.00
C47    C     0.29383   0.33300   0.33483   0.00000  Uiso   1.00
C48    C     0.18342   0.24473   0.31455   0.00000  Uiso   1.00
C49    C     0.09595   0.26505   0.26671   0.00000  Uiso   1.00
C50    C     0.00198   0.17302   0.25542   0.00000  Uiso   1.00
C51    C     0.83145   0.05245   0.21861   0.00000  Uiso   1.00
C52    C     0.30312   0.32046   0.44329   0.00000  Uiso   1.00
C53    C     0.31631   0.40447   0.50370   0.00000  Uiso   1.00
C54    C     0.32312   0.37619   0.60079   0.00000  Uiso   1.00
C55    C     0.33851   0.37322   0.76384   0.00000  Uiso   1.00
C56    C     0.38719   0.29703   0.29121   0.00000  Uiso   1.00
C57    C     0.47109   0.36135   0.22376   0.00000  Uiso   1.00
C58    C     0.54870   0.31335   0.19282   0.00000  Uiso   1.00
C59    C     0.69463   0.27401   0.11973   0.00000  Uiso   1.00
C60    C     0.28252   0.13341   0.39984   0.00000  Uiso   1.00
C61    C     0.17728   0.13632   0.34986   0.00000  Uiso   1.00
C62    C     0.08342   0.04423   0.33864   0.00000  Uiso   1.00
C63    C     0.99582   0.06441   0.29080   0.00000  Uiso   1.00
C64    C     0.29697   0.21206   0.47861   0.00000  Uiso   1.00
C65    C     0.30378   0.18365   0.57563   0.00000  Uiso   1.00
C66    C     0.31696   0.26758   0.63617   0.00000  Uiso   1.00
C67    C     0.38105   0.18862   0.32652   0.00000  Uiso   1.00
C68    C     0.45855   0.14052   0.29569   0.00000  Uiso   1.00
C69    C     0.54254   0.20475   0.22820   0.00000  Uiso   1.00
H70    H     0.29862   0.41740   0.30734   0.00000  Uiso   1.00
H71    H     0.10073   0.34896   0.23940   0.00000  Uiso   1.00
H72    H     0.32107   0.48836   0.47635   0.00000  Uiso   1.00
H73    H     0.47582   0.44524   0.19644   0.00000  Uiso   1.00
H74    H     0.87861   0.22528   0.17968   0.00000  Uiso   1.00
H75    H     0.34324   0.51921   0.67929   0.00000  Uiso   1.00
H76    H     0.66956   0.42830   0.08907   0.00000  Uiso   1.00
H77    H     0.27773   0.04901   0.42734   0.00000  Uiso   1.00
H78    H     0.07869   0.96035   0.36598   0.00000  Uiso   1.00
H79    H     0.29902   0.09975   0.60293   0.00000  Uiso   1.00
H80    H     0.45377   0.05663   0.32303   0.00000  Uiso   1.00
H81    H     0.86071   0.90987   0.28243   0.00000  Uiso   1.00
H82    H     0.32535   0.20380   0.78204   0.00000  Uiso   1.00
H83    H     0.65166   0.11288   0.19181   0.00000  Uiso   1.00
O84    O     0.73908   0.01590   0.18855   0.00000  Uiso   1.00
O85    O     0.34868   0.40154   0.84402   0.00000  Uiso   1.00
O86    O     0.77680   0.28225   0.06965   0.00000  Uiso   1.00
N87    N     0.90172   0.16321   0.21227   0.00000  Uiso   1.00
N88    N     0.33610   0.43802   0.67937   0.00000  Uiso   1.00
N89    N     0.64121   0.35303   0.12758   0.00000  Uiso   1.00
N90    N     0.89209   0.99349   0.26755   0.00000  Uiso   1.00
N91    N     0.32647   0.26830   0.73466   0.00000  Uiso   1.00
N92    N     0.63158   0.18331   0.18287   0.00000  Uiso   1.00
C93    C     0.81649   0.39288   0.79195   0.00000  Uiso   1.00
C94    C     0.70513   0.31048   0.83596   0.00000  Uiso   1.00
C95    C     0.61764   0.33869   0.87659   0.00000  Uiso   1.00
C96    C     0.52272   0.25104   0.91294   0.00000  Uiso   1.00
C97    C     0.35085   0.14010   0.98186   0.00000  Uiso   1.00
C98    C     0.82692   0.36380   0.68942   0.00000  Uiso   1.00
C99    C     0.84185   0.43685   0.60683   0.00000  Uiso   1.00
C100   C     0.84947   0.39409   0.51983   0.00000  Uiso   1.00
C101   C     0.86676   0.36596   0.36124   0.00000  Uiso   1.00
C102   C     0.90853   0.36331   0.84521   0.00000  Uiso   1.00
C103   C     0.99210   0.43595   0.89360   0.00000  Uiso   1.00
C104   C     0.06845   0.39278   0.93774   0.00000  Uiso   1.00
C105   C     0.21245   0.36388   0.02104   0.00000  Uiso   1.00
C106   C     0.80350   0.18705   0.78427   0.00000  Uiso   1.00
C107   C     0.69807   0.19868   0.83178   0.00000  Uiso   1.00
C108   C     0.60327   0.11097   0.86809   0.00000  Uiso   1.00
C109   C     0.51565   0.13904   0.90876   0.00000  Uiso   1.00
C110   C     0.81986   0.25201   0.68524   0.00000  Uiso   1.00
C111   C     0.82747   0.20913   0.59833   0.00000  Uiso   1.00
C112   C     0.84240   0.28209   0.51564   0.00000  Uiso   1.00
C113   C     0.90147   0.25151   0.84104   0.00000  Uiso   1.00
C114   C     0.97772   0.20822   0.88510   0.00000  Uiso   1.00
C115   C     0.06138   0.28078   0.93355   0.00000  Uiso   1.00
H116   H     0.82199   0.47992   0.79520   0.00000  Uiso   1.00
H117   H     0.62313   0.42522   0.87979   0.00000  Uiso   1.00
H118   H     0.84731   0.52336   0.61009   0.00000  Uiso   1.00
H119   H     0.99753   0.52245   0.89681   0.00000  Uiso   1.00
H120   H     0.39953   0.31527   0.97172   0.00000  Uiso   1.00
H121   H     0.87227   0.52223   0.40303   0.00000  Uiso   1.00
H122   H     0.18904   0.52032   0.00763   0.00000  Uiso   1.00
H123   H     0.79801   0.10001   0.78102   0.00000  Uiso   1.00
H124   H     0.59783   0.02446   0.86484   0.00000  Uiso   1.00
H125   H     0.82201   0.12261   0.59513   0.00000  Uiso   1.00
H126   H     0.97223   0.12170   0.88185   0.00000  Uiso   1.00
H127   H     0.37899   0.99000   0.95958   0.00000  Uiso   1.00
H128   H     0.85174   0.19697   0.39088   0.00000  Uiso   1.00
H129   H     0.16850   0.19505   0.99549   0.00000  Uiso   1.00
O130   O     0.25799   0.10979   0.02102   0.00000  Uiso   1.00
O131   O     0.87823   0.38132   0.27492   0.00000  Uiso   1.00
O132   O     0.29382   0.37881   0.06815   0.00000  Uiso   1.00
N133   N     0.42217   0.24909   0.95737   0.00000  Uiso   1.00
N134   N     0.86414   0.44258   0.42568   0.00000  Uiso   1.00
N135   N     0.16031   0.44080   0.99092   0.00000  Uiso   1.00
N136   N     0.41113   0.07406   0.95084   0.00000  Uiso   1.00
N137   N     0.85309   0.26755   0.41915   0.00000  Uiso   1.00
N138   N     0.14926   0.26577   0.98439   0.00000  Uiso   1.00
C139   C     0.70617   0.66700   0.66517   0.00000  Uiso   1.00
C140   C     0.81658   0.75527   0.68545   0.00000  Uiso   1.00
C141   C     0.90405   0.73495   0.73329   0.00000  Uiso   1.00
C142   C     0.99802   0.82698   0.74458   0.00000  Uiso   1.00
C143   C     0.16855   0.94755   0.78139   0.00000  Uiso   1.00
C144   C     0.69688   0.67954   0.55671   0.00000  Uiso   1.00
C145   C     0.68369   0.59553   0.49630   0.00000  Uiso   1.00
C146   C     0.67688   0.62381   0.39921   0.00000  Uiso   1.00
C147   C     0.66149   0.62678   0.23616   0.00000  Uiso   1.00
C148   C     0.61281   0.70297   0.70879   0.00000  Uiso   1.00
C149   C     0.52891   0.63865   0.77624   0.00000  Uiso   1.00
C150   C     0.45130   0.68665   0.80718   0.00000  Uiso   1.00
C151   C     0.30537   0.72599   0.88027   0.00000  Uiso   1.00
C152   C     0.71748   0.86659   0.60016   0.00000  Uiso   1.00
C153   C     0.82272   0.86368   0.65014   0.00000  Uiso   1.00
C154   C     0.91658   0.95577   0.66136   0.00000  Uiso   1.00
C155   C     0.00418   0.93559   0.70920   0.00000  Uiso   1.00
C156   C     0.70303   0.78794   0.52139   0.00000  Uiso   1.00
C157   C     0.69622   0.81635   0.42437   0.00000  Uiso   1.00
C158   C     0.68304   0.73242   0.36383   0.00000  Uiso   1.00
C159   C     0.61895   0.81138   0.67348   0.00000  Uiso   1.00
C160   C     0.54145   0.85948   0.70431   0.00000  Uiso   1.00
C161   C     0.45746   0.79525   0.77180   0.00000  Uiso   1.00
H162   H     0.70138   0.58260   0.69266   0.00000  Uiso   1.00
H163   H     0.89927   0.65104   0.76060   0.00000  Uiso   1.00
H164   H     0.67893   0.51164   0.52365   0.00000  Uiso   1.00
H165   H     0.52418   0.55476   0.80356   0.00000  Uiso   1.00
H166   H     0.12139   0.77472   0.82032   0.00000  Uiso   1.00
H167   H     0.65676   0.48079   0.32071   0.00000  Uiso   1.00
H168   H     0.33044   0.57170   0.91093   0.00000  Uiso   1.00
H169   H     0.72227   0.95099   0.57266   0.00000  Uiso   1.00
H170   H     0.92131   0.03965   0.63402   0.00000  Uiso   1.00
H171   H     0.70098   0.90025   0.39707   0.00000  Uiso   1.00
H172   H     0.54623   0.94337   0.67697   0.00000  Uiso   1.00
H173   H     0.13929   0.09013   0.71757   0.00000  Uiso   1.00
H174   H     0.67465   0.79620   0.21796   0.00000  Uiso   1.00
H175   H     0.34834   0.88712   0.80819   0.00000  Uiso   1.00
O176   O     0.26092   0.98410   0.81145   0.00000  Uiso   1.00
O177   O     0.65132   0.59846   0.15598   0.00000  Uiso   1.00
O178   O     0.22320   0.71775   0.93035   0.00000  Uiso   1.00
N179   N     0.09828   0.83679   0.78773   0.00000  Uiso   1.00
N180   N     0.66390   0.56198   0.32063   0.00000  Uiso   1.00
N181   N     0.35879   0.64697   0.87242   0.00000  Uiso   1.00
N182   N     0.10791   0.00651   0.73245   0.00000  Uiso   1.00
N183   N     0.67353   0.73170   0.26534   0.00000  Uiso   1.00
N184   N     0.36842   0.81669   0.81713   0.00000  Uiso   1.00
