data_job_00587
_audit_creation_date              2018-12-19
_audit_creation_method            'Materials Studio'
_symmetry_space_group_name_H-M    'P1'
_symmetry_Int_Tables_number       1
_symmetry_cell_setting            triclinic
loop_
_symmetry_equiv_pos_as_xyz
  x,y,z
_cell_length_a                    10.1208
_cell_length_b                    12.4179
_cell_length_c                    13.7140
_cell_angle_alpha                 107.5807
_cell_angle_beta                  80.1774
_cell_angle_gamma                 83.2826
loop_
_atom_site_label
_atom_site_type_symbol
_atom_site_fract_x
_atom_site_fract_y
_atom_site_fract_z
_atom_site_U_iso_or_equiv
_atom_site_adp_type
_atom_site_occupancy
C1     C     0.62710   0.76241   0.58453   0.00000  Uiso   1.00
C2     C     0.69436   0.86533   0.58138   0.00000  Uiso   1.00
C3     C     0.73128   0.89773   0.49358   0.00000  Uiso   1.00
C4     C     0.79161   0.99450   0.50689   0.00000  Uiso   1.00
C5     C     0.89269   0.14483   0.48713   0.00000  Uiso   1.00
C6     C     0.71962   0.69009   0.62691   0.00000  Uiso   1.00
C7     C     0.77776   0.57516   0.57739   0.00000  Uiso   1.00
C8     C     0.85934   0.52442   0.62904   0.00000  Uiso   1.00
C9     C     0.99955   0.40267   0.68000   0.00000  Uiso   1.00
C10    C     0.49576   0.81010   0.66850   0.00000  Uiso   1.00
C11    C     0.36567   0.79604   0.65396   0.00000  Uiso   1.00
C12    C     0.25878   0.84633   0.74062   0.00000  Uiso   1.00
C13    C     0.05142   0.91091   0.85616   0.00000  Uiso   1.00
C14    C     0.66860   0.87666   0.76431   0.00000  Uiso   1.00
C15    C     0.71690   0.92738   0.67903   0.00000  Uiso   1.00
C16    C     0.77719   0.02414   0.69248   0.00000  Uiso   1.00
C17    C     0.81419   0.05668   0.60471   0.00000  Uiso   1.00
C18    C     0.74217   0.75214   0.72456   0.00000  Uiso   1.00
C19    C     0.82367   0.70157   0.77630   0.00000  Uiso   1.00
C20    C     0.88192   0.58659   0.72686   0.00000  Uiso   1.00
C21    C     0.51830   0.87216   0.76615   0.00000  Uiso   1.00
C22    C     0.41159   0.92246   0.85286   0.00000  Uiso   1.00
C23    C     0.28136   0.90849   0.83845   0.00000  Uiso   1.00
H24    H     0.60955   0.71409   0.50851   0.00000  Uiso   1.00
H25    H     0.71383   0.84967   0.41802   0.00000  Uiso   1.00
H26    H     0.76029   0.52715   0.50183   0.00000  Uiso   1.00
H27    H     0.34827   0.74802   0.57838   0.00000  Uiso   1.00
H28    H     0.83942   0.02733   0.36075   0.00000  Uiso   1.00
H29    H     0.93735   0.34727   0.53748   0.00000  Uiso   1.00
H30    H     0.06852   0.81300   0.69890   0.00000  Uiso   1.00
H31    H     0.68615   0.92498   0.84034   0.00000  Uiso   1.00
H32    H     0.79462   0.07214   0.76806   0.00000  Uiso   1.00
H33    H     0.84109   0.74962   0.85186   0.00000  Uiso   1.00
H34    H     0.42907   0.97048   0.92841   0.00000  Uiso   1.00
H35    H     0.90500   0.20790   0.64485   0.00000  Uiso   1.00
H36    H     0.00293   0.52783   0.82158   0.00000  Uiso   1.00
H37    H     0.13411   0.99356   0.98301   0.00000  Uiso   1.00
O38    O     0.94223   0.21060   0.44925   0.00000  Uiso   1.00
O39    O     0.07068   0.31838   0.68113   0.00000  Uiso   1.00
O40    O     0.93081   0.92940   0.89291   0.00000  Uiso   1.00
N41    N     0.83994   0.04965   0.43754   0.00000  Uiso   1.00
N42    N     0.93152   0.41383   0.60276   0.00000  Uiso   1.00
N43    N     0.11925   0.84922   0.75368   0.00000  Uiso   1.00
N44    N     0.87523   0.14681   0.59041   0.00000  Uiso   1.00
N45    N     0.96680   0.51099   0.75564   0.00000  Uiso   1.00
N46    N     0.15453   0.94638   0.90656   0.00000  Uiso   1.00
C47    C     0.37290   0.23759   0.41547   0.00000  Uiso   1.00
C48    C     0.30564   0.13467   0.41862   0.00000  Uiso   1.00
C49    C     0.26872   0.10227   0.50642   0.00000  Uiso   1.00
C50    C     0.20839   0.00550   0.49311   0.00000  Uiso   1.00
C51    C     0.10731   0.85517   0.51287   0.00000  Uiso   1.00
C52    C     0.28038   0.30991   0.37309   0.00000  Uiso   1.00
C53    C     0.22224   0.42484   0.42261   0.00000  Uiso   1.00
C54    C     0.14066   0.47558   0.37096   0.00000  Uiso   1.00
C55    C     0.00045   0.59733   0.32000   0.00000  Uiso   1.00
C56    C     0.50424   0.18990   0.33150   0.00000  Uiso   1.00
C57    C     0.63433   0.20396   0.34604   0.00000  Uiso   1.00
C58    C     0.74122   0.15367   0.25938   0.00000  Uiso   1.00
C59    C     0.94858   0.08909   0.14384   0.00000  Uiso   1.00
C60    C     0.33140   0.12334   0.23569   0.00000  Uiso   1.00
C61    C     0.28310   0.07262   0.32097   0.00000  Uiso   1.00
C62    C     0.22281   0.97586   0.30752   0.00000  Uiso   1.00
C63    C     0.18581   0.94332   0.39529   0.00000  Uiso   1.00
C64    C     0.25783   0.24786   0.27544   0.00000  Uiso   1.00
C65    C     0.17633   0.29843   0.22370   0.00000  Uiso   1.00
C66    C     0.11808   0.41341   0.27314   0.00000  Uiso   1.00
C67    C     0.48170   0.12784   0.23385   0.00000  Uiso   1.00
C68    C     0.58841   0.07754   0.14714   0.00000  Uiso   1.00
C69    C     0.71864   0.09151   0.16155   0.00000  Uiso   1.00
H70    H     0.39045   0.28591   0.49149   0.00000  Uiso   1.00
H71    H     0.28617   0.15033   0.58198   0.00000  Uiso   1.00
H72    H     0.23971   0.47285   0.49817   0.00000  Uiso   1.00
H73    H     0.65173   0.25198   0.42162   0.00000  Uiso   1.00
H74    H     0.16058   0.97267   0.63925   0.00000  Uiso   1.00
H75    H     0.06265   0.65273   0.46252   0.00000  Uiso   1.00
H76    H     0.93148   0.18700   0.30110   0.00000  Uiso   1.00
H77    H     0.31385   0.07502   0.15966   0.00000  Uiso   1.00
H78    H     0.20538   0.92786   0.23194   0.00000  Uiso   1.00
H79    H     0.15891   0.25038   0.14814   0.00000  Uiso   1.00
H80    H     0.57093   0.02952   0.07159   0.00000  Uiso   1.00
H81    H     0.09500   0.79210   0.35515   0.00000  Uiso   1.00
H82    H     0.99707   0.47217   0.17842   0.00000  Uiso   1.00
H83    H     0.86589   0.00644   0.01699   0.00000  Uiso   1.00
O84    O     0.05777   0.78940   0.55075   0.00000  Uiso   1.00
O85    O     0.92932   0.68162   0.31887   0.00000  Uiso   1.00
O86    O     0.06919   0.07060   0.10709   0.00000  Uiso   1.00
N87    N     0.16006   0.95035   0.56246   0.00000  Uiso   1.00
N88    N     0.06848   0.58617   0.39724   0.00000  Uiso   1.00
N89    N     0.88075   0.15078   0.24632   0.00000  Uiso   1.00
N90    N     0.12477   0.85319   0.40959   0.00000  Uiso   1.00
N91    N     0.03320   0.48901   0.24436   0.00000  Uiso   1.00
N92    N     0.84547   0.05362   0.09344   0.00000  Uiso   1.00
