data_job_03531
_audit_creation_date              2018-12-19
_audit_creation_method            'Materials Studio'
_symmetry_space_group_name_H-M    'P1'
_symmetry_Int_Tables_number       1
_symmetry_cell_setting            triclinic
loop_
_symmetry_equiv_pos_as_xyz
  x,y,z
_cell_length_a                    21.2618
_cell_length_b                    21.2618
_cell_length_c                    10.5188
_cell_angle_alpha                 90.0000
_cell_angle_beta                  90.0000
_cell_angle_gamma                 120.0000
loop_
_atom_site_label
_atom_site_type_symbol
_atom_site_fract_x
_atom_site_fract_y
_atom_site_fract_z
_atom_site_U_iso_or_equiv
_atom_site_adp_type
_atom_site_occupancy
C1     C     0.54133   0.80126   0.15589   0.00000  Uiso   1.00
C2     C     0.61214   0.86469   0.20529   0.00000  Uiso   1.00
C3     C     0.61807   0.91751   0.28980   0.00000  Uiso   1.00
C4     C     0.68773   0.97103   0.32332   0.00000  Uiso   1.00
C5     C     0.78833   0.06946   0.40748   0.00000  Uiso   1.00
C6     C     0.54552   0.80710   0.01130   0.00000  Uiso   1.00
C7     C     0.49542   0.81148   0.93271   0.00000  Uiso   1.00
C8     C     0.50900   0.81650   0.80292   0.00000  Uiso   1.00
C9     C     0.50614   0.82545   0.58589   0.00000  Uiso   1.00
C10    C     0.54390   0.73274   0.18887   0.00000  Uiso   1.00
C11    C     0.49243   0.67459   0.25956   0.00000  Uiso   1.00
C12    C     0.50464   0.61699   0.27924   0.00000  Uiso   1.00
C13    C     0.49926   0.51050   0.33793   0.00000  Uiso   1.00
C14    C     0.65453   0.80236   0.06514   0.00000  Uiso   1.00
C15    C     0.67363   0.86529   0.15599   0.00000  Uiso   1.00
C16    C     0.74330   0.91874   0.18940   0.00000  Uiso   1.00
C17    C     0.74933   0.97163   0.27394   0.00000  Uiso   1.00
C18    C     0.60700   0.80770   0.96200   0.00000  Uiso   1.00
C19    C     0.62066   0.81270   0.83230   0.00000  Uiso   1.00
C20    C     0.57059   0.81710   0.75353   0.00000  Uiso   1.00
C21    C     0.60538   0.73334   0.13958   0.00000  Uiso   1.00
C22    C     0.61767   0.67582   0.15915   0.00000  Uiso   1.00
C23    C     0.56623   0.61759   0.22986   0.00000  Uiso   1.00
H24    H     0.49346   0.80079   0.19426   0.00000  Uiso   1.00
H25    H     0.57047   0.91703   0.32792   0.00000  Uiso   1.00
H26    H     0.44784   0.81101   0.97088   0.00000  Uiso   1.00
H27    H     0.44486   0.67414   0.29768   0.00000  Uiso   1.00
H28    H     0.68296   0.04619   0.45433   0.00000  Uiso   1.00
H29    H     0.42438   0.82261   0.70149   0.00000  Uiso   1.00
H30    H     0.41808   0.53400   0.39062   0.00000  Uiso   1.00
H31    H     0.70239   0.80283   0.02675   0.00000  Uiso   1.00
H32    H     0.79087   0.91919   0.15123   0.00000  Uiso   1.00
H33    H     0.66824   0.81316   0.79419   0.00000  Uiso   1.00
H34    H     0.66525   0.67630   0.12099   0.00000  Uiso   1.00
H35    H     0.86185   0.04795   0.31092   0.00000  Uiso   1.00
H36    H     0.60326   0.82435   0.55808   0.00000  Uiso   1.00
H37    H     0.59697   0.53575   0.24721   0.00000  Uiso   1.00
O38    O     0.82684   0.12359   0.46750   0.00000  Uiso   1.00
O39    O     0.48758   0.83024   0.47981   0.00000  Uiso   1.00
O40    O     0.47932   0.45159   0.38393   0.00000  Uiso   1.00
N41    N     0.71292   0.03063   0.40352   0.00000  Uiso   1.00
N42    N     0.47116   0.82160   0.69966   0.00000  Uiso   1.00
N43    N     0.46527   0.55176   0.34391   0.00000  Uiso   1.00
N44    N     0.80918   0.03157   0.32635   0.00000  Uiso   1.00
N45    N     0.56742   0.82254   0.62249   0.00000  Uiso   1.00
N46    N     0.56152   0.55271   0.26674   0.00000  Uiso   1.00
C47    C     0.19874   0.74008   0.15589   0.00000  Uiso   1.00
C48    C     0.13531   0.74745   0.20529   0.00000  Uiso   1.00
C49    C     0.08249   0.70055   0.28980   0.00000  Uiso   1.00
C50    C     0.02897   0.71671   0.32332   0.00000  Uiso   1.00
C51    C     0.93054   0.71888   0.40748   0.00000  Uiso   1.00
C52    C     0.19290   0.73842   0.01130   0.00000  Uiso   1.00
C53    C     0.18852   0.68394   0.93271   0.00000  Uiso   1.00
C54    C     0.18350   0.69250   0.80292   0.00000  Uiso   1.00
C55    C     0.17455   0.68068   0.58589   0.00000  Uiso   1.00
C56    C     0.26726   0.81116   0.18887   0.00000  Uiso   1.00
C57    C     0.32541   0.81784   0.25956   0.00000  Uiso   1.00
C58    C     0.38301   0.88765   0.27924   0.00000  Uiso   1.00
C59    C     0.48950   0.98877   0.33793   0.00000  Uiso   1.00
C60    C     0.19764   0.85217   0.06514   0.00000  Uiso   1.00
C61    C     0.13471   0.80833   0.15599   0.00000  Uiso   1.00
C62    C     0.08126   0.82457   0.18940   0.00000  Uiso   1.00
C63    C     0.02837   0.77770   0.27394   0.00000  Uiso   1.00
C64    C     0.19230   0.79930   0.96200   0.00000  Uiso   1.00
C65    C     0.18730   0.80795   0.83230   0.00000  Uiso   1.00
C66    C     0.18290   0.75349   0.75353   0.00000  Uiso   1.00
C67    C     0.26666   0.87205   0.13958   0.00000  Uiso   1.00
C68    C     0.32418   0.94185   0.15915   0.00000  Uiso   1.00
C69    C     0.38241   0.94864   0.22986   0.00000  Uiso   1.00
H70    H     0.19921   0.69268   0.19426   0.00000  Uiso   1.00
H71    H     0.08297   0.65344   0.32792   0.00000  Uiso   1.00
H72    H     0.18899   0.63684   0.97088   0.00000  Uiso   1.00
H73    H     0.32586   0.77072   0.29768   0.00000  Uiso   1.00
H74    H     0.95381   0.63677   0.45433   0.00000  Uiso   1.00
H75    H     0.17739   0.60177   0.70149   0.00000  Uiso   1.00
H76    H     0.46600   0.88409   0.39062   0.00000  Uiso   1.00
H77    H     0.19717   0.89957   0.02675   0.00000  Uiso   1.00
H78    H     0.08081   0.87168   0.15123   0.00000  Uiso   1.00
H79    H     0.18684   0.85508   0.79419   0.00000  Uiso   1.00
H80    H     0.32370   0.98896   0.12099   0.00000  Uiso   1.00
H81    H     0.95205   0.81390   0.31092   0.00000  Uiso   1.00
H82    H     0.17565   0.77891   0.55808   0.00000  Uiso   1.00
H83    H     0.46425   0.06122   0.24721   0.00000  Uiso   1.00
O84    O     0.87641   0.70325   0.46750   0.00000  Uiso   1.00
O85    O     0.16976   0.65734   0.47981   0.00000  Uiso   1.00
O86    O     0.54841   0.02772   0.38393   0.00000  Uiso   1.00
N87    N     0.96937   0.68229   0.40352   0.00000  Uiso   1.00
N88    N     0.17840   0.64957   0.69966   0.00000  Uiso   1.00
N89    N     0.44824   0.91350   0.34391   0.00000  Uiso   1.00
N90    N     0.96843   0.77761   0.32635   0.00000  Uiso   1.00
N91    N     0.17746   0.74488   0.62249   0.00000  Uiso   1.00
N92    N     0.44729   0.00882   0.26674   0.00000  Uiso   1.00
C93    C     0.25992   0.45867   0.15589   0.00000  Uiso   1.00
C94    C     0.25255   0.38786   0.20529   0.00000  Uiso   1.00
C95    C     0.29945   0.38193   0.28980   0.00000  Uiso   1.00
C96    C     0.28329   0.31227   0.32332   0.00000  Uiso   1.00
C97    C     0.28112   0.21167   0.40748   0.00000  Uiso   1.00
C98    C     0.26158   0.45448   0.01130   0.00000  Uiso   1.00
C99    C     0.31606   0.50458   0.93271   0.00000  Uiso   1.00
C100   C     0.30750   0.49100   0.80292   0.00000  Uiso   1.00
C101   C     0.31932   0.49386   0.58589   0.00000  Uiso   1.00
C102   C     0.18884   0.45610   0.18887   0.00000  Uiso   1.00
C103   C     0.18216   0.50757   0.25956   0.00000  Uiso   1.00
C104   C     0.11235   0.49536   0.27924   0.00000  Uiso   1.00
C105   C     0.01123   0.50074   0.33793   0.00000  Uiso   1.00
C106   C     0.14783   0.34547   0.06514   0.00000  Uiso   1.00
C107   C     0.19167   0.32637   0.15599   0.00000  Uiso   1.00
C108   C     0.17543   0.25670   0.18940   0.00000  Uiso   1.00
C109   C     0.22230   0.25067   0.27394   0.00000  Uiso   1.00
C110   C     0.20070   0.39300   0.96200   0.00000  Uiso   1.00
C111   C     0.19205   0.37934   0.83230   0.00000  Uiso   1.00
C112   C     0.24651   0.42941   0.75353   0.00000  Uiso   1.00
C113   C     0.12795   0.39462   0.13958   0.00000  Uiso   1.00
C114   C     0.05815   0.38233   0.15915   0.00000  Uiso   1.00
C115   C     0.05136   0.43377   0.22986   0.00000  Uiso   1.00
H116   H     0.30732   0.50654   0.19426   0.00000  Uiso   1.00
H117   H     0.34656   0.42953   0.32792   0.00000  Uiso   1.00
H118   H     0.36316   0.55216   0.97088   0.00000  Uiso   1.00
H119   H     0.22928   0.55514   0.29768   0.00000  Uiso   1.00
H120   H     0.36323   0.31704   0.45433   0.00000  Uiso   1.00
H121   H     0.39823   0.57562   0.70149   0.00000  Uiso   1.00
H122   H     0.11591   0.58192   0.39062   0.00000  Uiso   1.00
H123   H     0.10043   0.29761   0.02675   0.00000  Uiso   1.00
H124   H     0.12832   0.20913   0.15123   0.00000  Uiso   1.00
H125   H     0.14492   0.33176   0.79419   0.00000  Uiso   1.00
H126   H     0.01104   0.33475   0.12099   0.00000  Uiso   1.00
H127   H     0.18610   0.13815   0.31092   0.00000  Uiso   1.00
H128   H     0.22109   0.39674   0.55808   0.00000  Uiso   1.00
H129   H     0.93878   0.40303   0.24721   0.00000  Uiso   1.00
O130   O     0.29675   0.17316   0.46750   0.00000  Uiso   1.00
O131   O     0.34266   0.51242   0.47981   0.00000  Uiso   1.00
O132   O     0.97228   0.52068   0.38393   0.00000  Uiso   1.00
N133   N     0.31771   0.28708   0.40352   0.00000  Uiso   1.00
N134   N     0.35043   0.52884   0.69966   0.00000  Uiso   1.00
N135   N     0.08650   0.53473   0.34391   0.00000  Uiso   1.00
N136   N     0.22239   0.19082   0.32635   0.00000  Uiso   1.00
N137   N     0.25512   0.43258   0.62249   0.00000  Uiso   1.00
N138   N     0.99118   0.43848   0.26674   0.00000  Uiso   1.00
C139   C     0.45867   0.19874   0.84411   0.00000  Uiso   1.00
C140   C     0.38786   0.13531   0.79471   0.00000  Uiso   1.00
C141   C     0.38193   0.08249   0.71020   0.00000  Uiso   1.00
C142   C     0.31227   0.02897   0.67668   0.00000  Uiso   1.00
C143   C     0.21167   0.93054   0.59252   0.00000  Uiso   1.00
C144   C     0.45448   0.19290   0.98870   0.00000  Uiso   1.00
C145   C     0.50458   0.18852   0.06729   0.00000  Uiso   1.00
C146   C     0.49100   0.18350   0.19708   0.00000  Uiso   1.00
C147   C     0.49386   0.17455   0.41411   0.00000  Uiso   1.00
C148   C     0.45610   0.26726   0.81113   0.00000  Uiso   1.00
C149   C     0.50757   0.32541   0.74044   0.00000  Uiso   1.00
C150   C     0.49536   0.38301   0.72076   0.00000  Uiso   1.00
C151   C     0.50074   0.48950   0.66207   0.00000  Uiso   1.00
C152   C     0.34547   0.19764   0.93486   0.00000  Uiso   1.00
C153   C     0.32637   0.13471   0.84401   0.00000  Uiso   1.00
C154   C     0.25670   0.08126   0.81060   0.00000  Uiso   1.00
C155   C     0.25067   0.02837   0.72606   0.00000  Uiso   1.00
C156   C     0.39300   0.19230   0.03800   0.00000  Uiso   1.00
C157   C     0.37934   0.18730   0.16770   0.00000  Uiso   1.00
C158   C     0.42941   0.18290   0.24647   0.00000  Uiso   1.00
C159   C     0.39462   0.26666   0.86042   0.00000  Uiso   1.00
C160   C     0.38233   0.32418   0.84085   0.00000  Uiso   1.00
C161   C     0.43377   0.38241   0.77014   0.00000  Uiso   1.00
H162   H     0.50654   0.19921   0.80574   0.00000  Uiso   1.00
H163   H     0.42953   0.08297   0.67208   0.00000  Uiso   1.00
H164   H     0.55216   0.18899   0.02912   0.00000  Uiso   1.00
H165   H     0.55514   0.32586   0.70232   0.00000  Uiso   1.00
H166   H     0.31704   0.95381   0.54567   0.00000  Uiso   1.00
H167   H     0.57562   0.17739   0.29851   0.00000  Uiso   1.00
H168   H     0.58192   0.46600   0.60938   0.00000  Uiso   1.00
H169   H     0.29761   0.19717   0.97325   0.00000  Uiso   1.00
H170   H     0.20913   0.08081   0.84877   0.00000  Uiso   1.00
H171   H     0.33176   0.18684   0.20581   0.00000  Uiso   1.00
H172   H     0.33475   0.32370   0.87901   0.00000  Uiso   1.00
H173   H     0.13815   0.95205   0.68908   0.00000  Uiso   1.00
H174   H     0.39674   0.17565   0.44192   0.00000  Uiso   1.00
H175   H     0.40303   0.46425   0.75279   0.00000  Uiso   1.00
O176   O     0.17316   0.87641   0.53250   0.00000  Uiso   1.00
O177   O     0.51242   0.16976   0.52019   0.00000  Uiso   1.00
O178   O     0.52068   0.54841   0.61607   0.00000  Uiso   1.00
N179   N     0.28708   0.96937   0.59648   0.00000  Uiso   1.00
N180   N     0.52884   0.17840   0.30034   0.00000  Uiso   1.00
N181   N     0.53473   0.44824   0.65609   0.00000  Uiso   1.00
N182   N     0.19082   0.96843   0.67365   0.00000  Uiso   1.00
N183   N     0.43258   0.17746   0.37751   0.00000  Uiso   1.00
N184   N     0.43848   0.44729   0.73326   0.00000  Uiso   1.00
C185   C     0.80126   0.25992   0.84411   0.00000  Uiso   1.00
C186   C     0.86469   0.25255   0.79471   0.00000  Uiso   1.00
C187   C     0.91751   0.29945   0.71020   0.00000  Uiso   1.00
C188   C     0.97103   0.28329   0.67668   0.00000  Uiso   1.00
C189   C     0.06946   0.28112   0.59252   0.00000  Uiso   1.00
C190   C     0.80710   0.26158   0.98870   0.00000  Uiso   1.00
C191   C     0.81148   0.31606   0.06729   0.00000  Uiso   1.00
C192   C     0.81650   0.30750   0.19708   0.00000  Uiso   1.00
C193   C     0.82545   0.31932   0.41411   0.00000  Uiso   1.00
C194   C     0.73274   0.18884   0.81113   0.00000  Uiso   1.00
C195   C     0.67459   0.18216   0.74044   0.00000  Uiso   1.00
C196   C     0.61699   0.11235   0.72076   0.00000  Uiso   1.00
C197   C     0.51050   0.01123   0.66207   0.00000  Uiso   1.00
C198   C     0.80236   0.14783   0.93486   0.00000  Uiso   1.00
C199   C     0.86529   0.19167   0.84401   0.00000  Uiso   1.00
C200   C     0.91874   0.17543   0.81060   0.00000  Uiso   1.00
C201   C     0.97163   0.22230   0.72606   0.00000  Uiso   1.00
C202   C     0.80770   0.20070   0.03800   0.00000  Uiso   1.00
C203   C     0.81270   0.19205   0.16770   0.00000  Uiso   1.00
C204   C     0.81710   0.24651   0.24647   0.00000  Uiso   1.00
C205   C     0.73334   0.12795   0.86042   0.00000  Uiso   1.00
C206   C     0.67582   0.05815   0.84085   0.00000  Uiso   1.00
C207   C     0.61759   0.05136   0.77014   0.00000  Uiso   1.00
H208   H     0.80079   0.30732   0.80574   0.00000  Uiso   1.00
H209   H     0.91703   0.34656   0.67208   0.00000  Uiso   1.00
H210   H     0.81101   0.36316   0.02912   0.00000  Uiso   1.00
H211   H     0.67414   0.22928   0.70232   0.00000  Uiso   1.00
H212   H     0.04619   0.36323   0.54567   0.00000  Uiso   1.00
H213   H     0.82261   0.39823   0.29851   0.00000  Uiso   1.00
H214   H     0.53400   0.11591   0.60938   0.00000  Uiso   1.00
H215   H     0.80283   0.10043   0.97325   0.00000  Uiso   1.00
H216   H     0.91919   0.12832   0.84877   0.00000  Uiso   1.00
H217   H     0.81316   0.14492   0.20581   0.00000  Uiso   1.00
H218   H     0.67630   0.01104   0.87901   0.00000  Uiso   1.00
H219   H     0.04795   0.18610   0.68908   0.00000  Uiso   1.00
H220   H     0.82435   0.22109   0.44192   0.00000  Uiso   1.00
H221   H     0.53575   0.93878   0.75279   0.00000  Uiso   1.00
O222   O     0.12359   0.29675   0.53250   0.00000  Uiso   1.00
O223   O     0.83024   0.34266   0.52019   0.00000  Uiso   1.00
O224   O     0.45159   0.97228   0.61607   0.00000  Uiso   1.00
N225   N     0.03063   0.31771   0.59648   0.00000  Uiso   1.00
N226   N     0.82160   0.35043   0.30034   0.00000  Uiso   1.00
N227   N     0.55176   0.08650   0.65609   0.00000  Uiso   1.00
N228   N     0.03157   0.22239   0.67365   0.00000  Uiso   1.00
N229   N     0.82254   0.25512   0.37751   0.00000  Uiso   1.00
N230   N     0.55271   0.99118   0.73326   0.00000  Uiso   1.00
C231   C     0.74008   0.54133   0.84411   0.00000  Uiso   1.00
C232   C     0.74745   0.61214   0.79471   0.00000  Uiso   1.00
C233   C     0.70055   0.61807   0.71020   0.00000  Uiso   1.00
C234   C     0.71671   0.68773   0.67668   0.00000  Uiso   1.00
C235   C     0.71888   0.78833   0.59252   0.00000  Uiso   1.00
C236   C     0.73842   0.54552   0.98870   0.00000  Uiso   1.00
C237   C     0.68394   0.49542   0.06729   0.00000  Uiso   1.00
C238   C     0.69250   0.50900   0.19708   0.00000  Uiso   1.00
C239   C     0.68068   0.50614   0.41411   0.00000  Uiso   1.00
C240   C     0.81116   0.54390   0.81113   0.00000  Uiso   1.00
C241   C     0.81784   0.49243   0.74044   0.00000  Uiso   1.00
C242   C     0.88765   0.50464   0.72076   0.00000  Uiso   1.00
C243   C     0.98877   0.49926   0.66207   0.00000  Uiso   1.00
C244   C     0.85217   0.65453   0.93486   0.00000  Uiso   1.00
C245   C     0.80833   0.67363   0.84401   0.00000  Uiso   1.00
C246   C     0.82457   0.74330   0.81060   0.00000  Uiso   1.00
C247   C     0.77770   0.74933   0.72606   0.00000  Uiso   1.00
C248   C     0.79930   0.60700   0.03800   0.00000  Uiso   1.00
C249   C     0.80795   0.62066   0.16770   0.00000  Uiso   1.00
C250   C     0.75349   0.57059   0.24647   0.00000  Uiso   1.00
C251   C     0.87205   0.60538   0.86042   0.00000  Uiso   1.00
C252   C     0.94185   0.61767   0.84085   0.00000  Uiso   1.00
C253   C     0.94864   0.56623   0.77014   0.00000  Uiso   1.00
H254   H     0.69268   0.49346   0.80574   0.00000  Uiso   1.00
H255   H     0.65344   0.57047   0.67208   0.00000  Uiso   1.00
H256   H     0.63684   0.44784   0.02912   0.00000  Uiso   1.00
H257   H     0.77072   0.44486   0.70232   0.00000  Uiso   1.00
H258   H     0.63677   0.68296   0.54567   0.00000  Uiso   1.00
H259   H     0.60177   0.42438   0.29851   0.00000  Uiso   1.00
H260   H     0.88409   0.41808   0.60938   0.00000  Uiso   1.00
H261   H     0.89957   0.70239   0.97325   0.00000  Uiso   1.00
H262   H     0.87168   0.79087   0.84877   0.00000  Uiso   1.00
H263   H     0.85508   0.66824   0.20581   0.00000  Uiso   1.00
H264   H     0.98896   0.66525   0.87901   0.00000  Uiso   1.00
H265   H     0.81390   0.86185   0.68908   0.00000  Uiso   1.00
H266   H     0.77891   0.60326   0.44192   0.00000  Uiso   1.00
H267   H     0.06122   0.59697   0.75279   0.00000  Uiso   1.00
O268   O     0.70325   0.82684   0.53250   0.00000  Uiso   1.00
O269   O     0.65734   0.48758   0.52019   0.00000  Uiso   1.00
O270   O     0.02772   0.47932   0.61607   0.00000  Uiso   1.00
N271   N     0.68229   0.71292   0.59648   0.00000  Uiso   1.00
N272   N     0.64957   0.47116   0.30034   0.00000  Uiso   1.00
N273   N     0.91350   0.46527   0.65609   0.00000  Uiso   1.00
N274   N     0.77761   0.80918   0.67365   0.00000  Uiso   1.00
N275   N     0.74488   0.56742   0.37751   0.00000  Uiso   1.00
N276   N     0.00882   0.56152   0.73326   0.00000  Uiso   1.00
