data_job_02606
_audit_creation_date              2018-12-19
_audit_creation_method            'Materials Studio'
_symmetry_space_group_name_H-M    'P1'
_symmetry_Int_Tables_number       1
_symmetry_cell_setting            triclinic
loop_
_symmetry_equiv_pos_as_xyz
  x,y,z
_cell_length_a                    12.0529
_cell_length_b                    34.6640
_cell_length_c                    20.0722
_cell_angle_alpha                 90.0000
_cell_angle_beta                  141.4171
_cell_angle_gamma                 90.0000
loop_
_atom_site_label
_atom_site_type_symbol
_atom_site_fract_x
_atom_site_fract_y
_atom_site_fract_z
_atom_site_U_iso_or_equiv
_atom_site_adp_type
_atom_site_occupancy
C1     C     0.51748   0.87986   0.05777   0.00000  Uiso   1.00
C2     C     0.62566   0.85052   0.06903   0.00000  Uiso   1.00
C3     C     0.68063   0.85462   0.02921   0.00000  Uiso   1.00
C4     C     0.77842   0.82452   0.04791   0.00000  Uiso   1.00
C5     C     0.94005   0.78396   0.05676   0.00000  Uiso   1.00
C6     C     0.35234   0.85851   0.00449   0.00000  Uiso   1.00
C7     C     0.17751   0.86934   0.91042   0.00000  Uiso   1.00
C8     C     0.04523   0.84597   0.87481   0.00000  Uiso   1.00
C9     C     0.78253   0.81784   0.78350   0.00000  Uiso   1.00
C10    C     0.62645   0.88892   0.17106   0.00000  Uiso   1.00
C11    C     0.68206   0.92532   0.21704   0.00000  Uiso   1.00
C12    C     0.78053   0.92755   0.32166   0.00000  Uiso   1.00
C13    C     0.94343   0.94663   0.48897   0.00000  Uiso   1.00
C14    C     0.59342   0.81909   0.16180   0.00000  Uiso   1.00
C15    C     0.66690   0.81751   0.12553   0.00000  Uiso   1.00
C16    C     0.76465   0.78739   0.14431   0.00000  Uiso   1.00
C17    C     0.81975   0.79145   0.10452   0.00000  Uiso   1.00
C18    C     0.39358   0.82550   0.06099   0.00000  Uiso   1.00
C19    C     0.26153   0.80211   0.02552   0.00000  Uiso   1.00
C20    C     0.08655   0.81290   0.93141   0.00000  Uiso   1.00
C21    C     0.66771   0.85591   0.22757   0.00000  Uiso   1.00
C22    C     0.76609   0.85808   0.33213   0.00000  Uiso   1.00
C23    C     0.82185   0.89448   0.37826   0.00000  Uiso   1.00
H24    H     0.48535   0.90556   0.01377   0.00000  Uiso   1.00
H25    H     0.64866   0.88017   0.98548   0.00000  Uiso   1.00
H26    H     0.14563   0.89489   0.86672   0.00000  Uiso   1.00
H27    H     0.65012   0.95086   0.17329   0.00000  Uiso   1.00
H28    H     0.84786   0.83746   0.97899   0.00000  Uiso   1.00
H29    H     0.78719   0.86850   0.72859   0.00000  Uiso   1.00
H30    H     0.85098   0.98652   0.37506   0.00000  Uiso   1.00
H31    H     0.62553   0.79339   0.20579   0.00000  Uiso   1.00
H32    H     0.79655   0.76185   0.18804   0.00000  Uiso   1.00
H33    H     0.29350   0.77657   0.06927   0.00000  Uiso   1.00
H34    H     0.79798   0.83253   0.37584   0.00000  Uiso   1.00
H35    H     0.96788   0.74142   0.14339   0.00000  Uiso   1.00
H36    H     0.90720   0.77247   0.89299   0.00000  Uiso   1.00
H37    H     0.97100   0.89048   0.53945   0.00000  Uiso   1.00
O38    O     0.01779   0.77071   0.04601   0.00000  Uiso   1.00
O39    O     0.62623   0.81144   0.71751   0.00000  Uiso   1.00
O40    O     0.02191   0.96627   0.56565   0.00000  Uiso   1.00
N41    N     0.85267   0.81919   0.02014   0.00000  Uiso   1.00
N42    N     0.86100   0.84821   0.78602   0.00000  Uiso   1.00
N43    N     0.85552   0.95855   0.39040   0.00000  Uiso   1.00
N44    N     0.91725   0.76751   0.10860   0.00000  Uiso   1.00
N45    N     0.92558   0.79653   0.87448   0.00000  Uiso   1.00
N46    N     0.92010   0.90687   0.47886   0.00000  Uiso   1.00
C47    C     0.01748   0.37986   0.05777   0.00000  Uiso   1.00
C48    C     0.12566   0.35052   0.06903   0.00000  Uiso   1.00
C49    C     0.18063   0.35462   0.02921   0.00000  Uiso   1.00
C50    C     0.27842   0.32452   0.04791   0.00000  Uiso   1.00
C51    C     0.44005   0.28396   0.05676   0.00000  Uiso   1.00
C52    C     0.85234   0.35851   0.00449   0.00000  Uiso   1.00
C53    C     0.67751   0.36934   0.91042   0.00000  Uiso   1.00
C54    C     0.54523   0.34597   0.87481   0.00000  Uiso   1.00
C55    C     0.28253   0.31784   0.78350   0.00000  Uiso   1.00
C56    C     0.12645   0.38892   0.17106   0.00000  Uiso   1.00
C57    C     0.18206   0.42532   0.21704   0.00000  Uiso   1.00
C58    C     0.28053   0.42755   0.32166   0.00000  Uiso   1.00
C59    C     0.44343   0.44663   0.48897   0.00000  Uiso   1.00
C60    C     0.09342   0.31909   0.16180   0.00000  Uiso   1.00
C61    C     0.16690   0.31751   0.12553   0.00000  Uiso   1.00
C62    C     0.26465   0.28739   0.14431   0.00000  Uiso   1.00
C63    C     0.31975   0.29145   0.10452   0.00000  Uiso   1.00
C64    C     0.89358   0.32550   0.06099   0.00000  Uiso   1.00
C65    C     0.76153   0.30211   0.02552   0.00000  Uiso   1.00
C66    C     0.58655   0.31290   0.93141   0.00000  Uiso   1.00
C67    C     0.16771   0.35591   0.22757   0.00000  Uiso   1.00
C68    C     0.26609   0.35808   0.33213   0.00000  Uiso   1.00
C69    C     0.32185   0.39448   0.37826   0.00000  Uiso   1.00
H70    H     0.98535   0.40556   0.01377   0.00000  Uiso   1.00
H71    H     0.14866   0.38017   0.98548   0.00000  Uiso   1.00
H72    H     0.64563   0.39489   0.86672   0.00000  Uiso   1.00
H73    H     0.15012   0.45086   0.17329   0.00000  Uiso   1.00
H74    H     0.34786   0.33746   0.97899   0.00000  Uiso   1.00
H75    H     0.28719   0.36850   0.72859   0.00000  Uiso   1.00
H76    H     0.35098   0.48652   0.37506   0.00000  Uiso   1.00
H77    H     0.12553   0.29339   0.20579   0.00000  Uiso   1.00
H78    H     0.29655   0.26185   0.18804   0.00000  Uiso   1.00
H79    H     0.79350   0.27657   0.06927   0.00000  Uiso   1.00
H80    H     0.29798   0.33253   0.37584   0.00000  Uiso   1.00
H81    H     0.46788   0.24142   0.14339   0.00000  Uiso   1.00
H82    H     0.40720   0.27247   0.89299   0.00000  Uiso   1.00
H83    H     0.47100   0.39048   0.53945   0.00000  Uiso   1.00
O84    O     0.51779   0.27071   0.04601   0.00000  Uiso   1.00
O85    O     0.12623   0.31144   0.71751   0.00000  Uiso   1.00
O86    O     0.52191   0.46627   0.56565   0.00000  Uiso   1.00
N87    N     0.35267   0.31919   0.02014   0.00000  Uiso   1.00
N88    N     0.36100   0.34821   0.78602   0.00000  Uiso   1.00
N89    N     0.35552   0.45855   0.39040   0.00000  Uiso   1.00
N90    N     0.41725   0.26751   0.10860   0.00000  Uiso   1.00
N91    N     0.42558   0.29653   0.87448   0.00000  Uiso   1.00
N92    N     0.42010   0.40687   0.47886   0.00000  Uiso   1.00
C93    C     0.48252   0.87986   0.44223   0.00000  Uiso   1.00
C94    C     0.37434   0.85052   0.43097   0.00000  Uiso   1.00
C95    C     0.31937   0.85462   0.47079   0.00000  Uiso   1.00
C96    C     0.22158   0.82452   0.45209   0.00000  Uiso   1.00
C97    C     0.05995   0.78396   0.44324   0.00000  Uiso   1.00
C98    C     0.64766   0.85851   0.49551   0.00000  Uiso   1.00
C99    C     0.82249   0.86934   0.58958   0.00000  Uiso   1.00
C100   C     0.95477   0.84597   0.62519   0.00000  Uiso   1.00
C101   C     0.21747   0.81784   0.71650   0.00000  Uiso   1.00
C102   C     0.37355   0.88892   0.32894   0.00000  Uiso   1.00
C103   C     0.31794   0.92532   0.28296   0.00000  Uiso   1.00
C104   C     0.21947   0.92755   0.17834   0.00000  Uiso   1.00
C105   C     0.05657   0.94663   0.01103   0.00000  Uiso   1.00
C106   C     0.40658   0.81909   0.33820   0.00000  Uiso   1.00
C107   C     0.33310   0.81751   0.37447   0.00000  Uiso   1.00
C108   C     0.23535   0.78739   0.35569   0.00000  Uiso   1.00
C109   C     0.18025   0.79145   0.39548   0.00000  Uiso   1.00
C110   C     0.60642   0.82550   0.43901   0.00000  Uiso   1.00
C111   C     0.73847   0.80211   0.47448   0.00000  Uiso   1.00
C112   C     0.91345   0.81290   0.56859   0.00000  Uiso   1.00
C113   C     0.33229   0.85591   0.27243   0.00000  Uiso   1.00
C114   C     0.23391   0.85808   0.16787   0.00000  Uiso   1.00
C115   C     0.17815   0.89448   0.12174   0.00000  Uiso   1.00
H116   H     0.51465   0.90556   0.48623   0.00000  Uiso   1.00
H117   H     0.35134   0.88017   0.51452   0.00000  Uiso   1.00
H118   H     0.85437   0.89489   0.63328   0.00000  Uiso   1.00
H119   H     0.34988   0.95086   0.32671   0.00000  Uiso   1.00
H120   H     0.15214   0.83746   0.52101   0.00000  Uiso   1.00
H121   H     0.21281   0.86850   0.77141   0.00000  Uiso   1.00
H122   H     0.14902   0.98652   0.12494   0.00000  Uiso   1.00
H123   H     0.37447   0.79339   0.29421   0.00000  Uiso   1.00
H124   H     0.20345   0.76185   0.31196   0.00000  Uiso   1.00
H125   H     0.70650   0.77657   0.43073   0.00000  Uiso   1.00
H126   H     0.20202   0.83253   0.12416   0.00000  Uiso   1.00
H127   H     0.03212   0.74142   0.35661   0.00000  Uiso   1.00
H128   H     0.09280   0.77247   0.60701   0.00000  Uiso   1.00
H129   H     0.02900   0.89048   0.96055   0.00000  Uiso   1.00
O130   O     0.98221   0.77071   0.45399   0.00000  Uiso   1.00
O131   O     0.37377   0.81144   0.78249   0.00000  Uiso   1.00
O132   O     0.97809   0.96627   0.93435   0.00000  Uiso   1.00
N133   N     0.14733   0.81919   0.47986   0.00000  Uiso   1.00
N134   N     0.13900   0.84821   0.71398   0.00000  Uiso   1.00
N135   N     0.14448   0.95855   0.10960   0.00000  Uiso   1.00
N136   N     0.08275   0.76751   0.39140   0.00000  Uiso   1.00
N137   N     0.07442   0.79653   0.62552   0.00000  Uiso   1.00
N138   N     0.07990   0.90687   0.02114   0.00000  Uiso   1.00
C139   C     0.98252   0.37986   0.44223   0.00000  Uiso   1.00
C140   C     0.87434   0.35052   0.43097   0.00000  Uiso   1.00
C141   C     0.81937   0.35462   0.47079   0.00000  Uiso   1.00
C142   C     0.72158   0.32452   0.45209   0.00000  Uiso   1.00
C143   C     0.55995   0.28396   0.44324   0.00000  Uiso   1.00
C144   C     0.14766   0.35851   0.49551   0.00000  Uiso   1.00
C145   C     0.32249   0.36934   0.58958   0.00000  Uiso   1.00
C146   C     0.45477   0.34597   0.62519   0.00000  Uiso   1.00
C147   C     0.71747   0.31784   0.71650   0.00000  Uiso   1.00
C148   C     0.87355   0.38892   0.32894   0.00000  Uiso   1.00
C149   C     0.81794   0.42532   0.28296   0.00000  Uiso   1.00
C150   C     0.71947   0.42755   0.17834   0.00000  Uiso   1.00
C151   C     0.55657   0.44663   0.01103   0.00000  Uiso   1.00
C152   C     0.90658   0.31909   0.33820   0.00000  Uiso   1.00
C153   C     0.83310   0.31751   0.37447   0.00000  Uiso   1.00
C154   C     0.73535   0.28739   0.35569   0.00000  Uiso   1.00
C155   C     0.68025   0.29145   0.39548   0.00000  Uiso   1.00
C156   C     0.10642   0.32550   0.43901   0.00000  Uiso   1.00
C157   C     0.23847   0.30211   0.47448   0.00000  Uiso   1.00
C158   C     0.41345   0.31290   0.56859   0.00000  Uiso   1.00
C159   C     0.83229   0.35591   0.27243   0.00000  Uiso   1.00
C160   C     0.73391   0.35808   0.16787   0.00000  Uiso   1.00
C161   C     0.67815   0.39448   0.12174   0.00000  Uiso   1.00
H162   H     0.01465   0.40556   0.48623   0.00000  Uiso   1.00
H163   H     0.85134   0.38017   0.51452   0.00000  Uiso   1.00
H164   H     0.35437   0.39489   0.63328   0.00000  Uiso   1.00
H165   H     0.84988   0.45086   0.32671   0.00000  Uiso   1.00
H166   H     0.65214   0.33746   0.52101   0.00000  Uiso   1.00
H167   H     0.71281   0.36850   0.77141   0.00000  Uiso   1.00
H168   H     0.64902   0.48652   0.12494   0.00000  Uiso   1.00
H169   H     0.87447   0.29339   0.29421   0.00000  Uiso   1.00
H170   H     0.70345   0.26185   0.31196   0.00000  Uiso   1.00
H171   H     0.20650   0.27657   0.43073   0.00000  Uiso   1.00
H172   H     0.70202   0.33253   0.12416   0.00000  Uiso   1.00
H173   H     0.53212   0.24142   0.35661   0.00000  Uiso   1.00
H174   H     0.59280   0.27247   0.60701   0.00000  Uiso   1.00
H175   H     0.52900   0.39048   0.96055   0.00000  Uiso   1.00
O176   O     0.48221   0.27071   0.45399   0.00000  Uiso   1.00
O177   O     0.87377   0.31144   0.78249   0.00000  Uiso   1.00
O178   O     0.47809   0.46627   0.93435   0.00000  Uiso   1.00
N179   N     0.64733   0.31919   0.47986   0.00000  Uiso   1.00
N180   N     0.63900   0.34821   0.71398   0.00000  Uiso   1.00
N181   N     0.64448   0.45855   0.10960   0.00000  Uiso   1.00
N182   N     0.58275   0.26751   0.39140   0.00000  Uiso   1.00
N183   N     0.57442   0.29653   0.62552   0.00000  Uiso   1.00
N184   N     0.57990   0.40687   0.02114   0.00000  Uiso   1.00
C185   C     0.48252   0.12014   0.94223   0.00000  Uiso   1.00
C186   C     0.37434   0.14948   0.93097   0.00000  Uiso   1.00
C187   C     0.31937   0.14538   0.97079   0.00000  Uiso   1.00
C188   C     0.22158   0.17548   0.95209   0.00000  Uiso   1.00
C189   C     0.05995   0.21604   0.94324   0.00000  Uiso   1.00
C190   C     0.64766   0.14149   0.99551   0.00000  Uiso   1.00
C191   C     0.82249   0.13066   0.08958   0.00000  Uiso   1.00
C192   C     0.95477   0.15403   0.12519   0.00000  Uiso   1.00
C193   C     0.21747   0.18216   0.21650   0.00000  Uiso   1.00
C194   C     0.37355   0.11108   0.82894   0.00000  Uiso   1.00
C195   C     0.31794   0.07468   0.78296   0.00000  Uiso   1.00
C196   C     0.21947   0.07245   0.67834   0.00000  Uiso   1.00
C197   C     0.05657   0.05337   0.51103   0.00000  Uiso   1.00
C198   C     0.40658   0.18091   0.83820   0.00000  Uiso   1.00
C199   C     0.33310   0.18249   0.87447   0.00000  Uiso   1.00
C200   C     0.23535   0.21261   0.85569   0.00000  Uiso   1.00
C201   C     0.18025   0.20855   0.89548   0.00000  Uiso   1.00
C202   C     0.60642   0.17450   0.93901   0.00000  Uiso   1.00
C203   C     0.73847   0.19789   0.97448   0.00000  Uiso   1.00
C204   C     0.91345   0.18710   0.06859   0.00000  Uiso   1.00
C205   C     0.33229   0.14409   0.77243   0.00000  Uiso   1.00
C206   C     0.23391   0.14192   0.66787   0.00000  Uiso   1.00
C207   C     0.17815   0.10552   0.62174   0.00000  Uiso   1.00
H208   H     0.51465   0.09444   0.98623   0.00000  Uiso   1.00
H209   H     0.35134   0.11983   0.01452   0.00000  Uiso   1.00
H210   H     0.85437   0.10511   0.13328   0.00000  Uiso   1.00
H211   H     0.34988   0.04914   0.82671   0.00000  Uiso   1.00
H212   H     0.15214   0.16254   0.02101   0.00000  Uiso   1.00
H213   H     0.21281   0.13150   0.27141   0.00000  Uiso   1.00
H214   H     0.14902   0.01348   0.62494   0.00000  Uiso   1.00
H215   H     0.37447   0.20661   0.79421   0.00000  Uiso   1.00
H216   H     0.20345   0.23815   0.81196   0.00000  Uiso   1.00
H217   H     0.70650   0.22343   0.93073   0.00000  Uiso   1.00
H218   H     0.20202   0.16747   0.62416   0.00000  Uiso   1.00
H219   H     0.03212   0.25858   0.85661   0.00000  Uiso   1.00
H220   H     0.09280   0.22753   0.10701   0.00000  Uiso   1.00
H221   H     0.02900   0.10952   0.46055   0.00000  Uiso   1.00
O222   O     0.98221   0.22929   0.95399   0.00000  Uiso   1.00
O223   O     0.37377   0.18856   0.28249   0.00000  Uiso   1.00
O224   O     0.97809   0.03373   0.43435   0.00000  Uiso   1.00
N225   N     0.14733   0.18081   0.97986   0.00000  Uiso   1.00
N226   N     0.13900   0.15179   0.21398   0.00000  Uiso   1.00
N227   N     0.14448   0.04145   0.60960   0.00000  Uiso   1.00
N228   N     0.08275   0.23249   0.89140   0.00000  Uiso   1.00
N229   N     0.07442   0.20347   0.12552   0.00000  Uiso   1.00
N230   N     0.07990   0.09313   0.52114   0.00000  Uiso   1.00
C231   C     0.98252   0.62014   0.94223   0.00000  Uiso   1.00
C232   C     0.87434   0.64948   0.93097   0.00000  Uiso   1.00
C233   C     0.81937   0.64538   0.97079   0.00000  Uiso   1.00
C234   C     0.72158   0.67548   0.95209   0.00000  Uiso   1.00
C235   C     0.55995   0.71604   0.94324   0.00000  Uiso   1.00
C236   C     0.14766   0.64149   0.99551   0.00000  Uiso   1.00
C237   C     0.32249   0.63066   0.08958   0.00000  Uiso   1.00
C238   C     0.45477   0.65403   0.12519   0.00000  Uiso   1.00
C239   C     0.71747   0.68216   0.21650   0.00000  Uiso   1.00
C240   C     0.87355   0.61108   0.82894   0.00000  Uiso   1.00
C241   C     0.81794   0.57468   0.78296   0.00000  Uiso   1.00
C242   C     0.71947   0.57245   0.67834   0.00000  Uiso   1.00
C243   C     0.55657   0.55337   0.51103   0.00000  Uiso   1.00
C244   C     0.90658   0.68091   0.83820   0.00000  Uiso   1.00
C245   C     0.83310   0.68249   0.87447   0.00000  Uiso   1.00
C246   C     0.73535   0.71261   0.85569   0.00000  Uiso   1.00
C247   C     0.68025   0.70855   0.89548   0.00000  Uiso   1.00
C248   C     0.10642   0.67450   0.93901   0.00000  Uiso   1.00
C249   C     0.23847   0.69789   0.97448   0.00000  Uiso   1.00
C250   C     0.41345   0.68710   0.06859   0.00000  Uiso   1.00
C251   C     0.83229   0.64409   0.77243   0.00000  Uiso   1.00
C252   C     0.73391   0.64192   0.66787   0.00000  Uiso   1.00
C253   C     0.67815   0.60552   0.62174   0.00000  Uiso   1.00
H254   H     0.01465   0.59444   0.98623   0.00000  Uiso   1.00
H255   H     0.85134   0.61983   0.01452   0.00000  Uiso   1.00
H256   H     0.35437   0.60511   0.13328   0.00000  Uiso   1.00
H257   H     0.84988   0.54914   0.82671   0.00000  Uiso   1.00
H258   H     0.65214   0.66254   0.02101   0.00000  Uiso   1.00
H259   H     0.71281   0.63150   0.27141   0.00000  Uiso   1.00
H260   H     0.64902   0.51348   0.62494   0.00000  Uiso   1.00
H261   H     0.87447   0.70661   0.79421   0.00000  Uiso   1.00
H262   H     0.70345   0.73815   0.81196   0.00000  Uiso   1.00
H263   H     0.20650   0.72343   0.93073   0.00000  Uiso   1.00
H264   H     0.70202   0.66747   0.62416   0.00000  Uiso   1.00
H265   H     0.53212   0.75858   0.85661   0.00000  Uiso   1.00
H266   H     0.59280   0.72753   0.10701   0.00000  Uiso   1.00
H267   H     0.52900   0.60952   0.46055   0.00000  Uiso   1.00
O268   O     0.48221   0.72929   0.95399   0.00000  Uiso   1.00
O269   O     0.87377   0.68856   0.28249   0.00000  Uiso   1.00
O270   O     0.47809   0.53373   0.43435   0.00000  Uiso   1.00
N271   N     0.64733   0.68081   0.97986   0.00000  Uiso   1.00
N272   N     0.63900   0.65179   0.21398   0.00000  Uiso   1.00
N273   N     0.64448   0.54145   0.60960   0.00000  Uiso   1.00
N274   N     0.58275   0.73249   0.89140   0.00000  Uiso   1.00
N275   N     0.57442   0.70347   0.12552   0.00000  Uiso   1.00
N276   N     0.57990   0.59313   0.52114   0.00000  Uiso   1.00
C277   C     0.51748   0.12014   0.55777   0.00000  Uiso   1.00
C278   C     0.62566   0.14948   0.56903   0.00000  Uiso   1.00
C279   C     0.68063   0.14538   0.52921   0.00000  Uiso   1.00
C280   C     0.77842   0.17548   0.54791   0.00000  Uiso   1.00
C281   C     0.94005   0.21604   0.55676   0.00000  Uiso   1.00
C282   C     0.35234   0.14149   0.50449   0.00000  Uiso   1.00
C283   C     0.17751   0.13066   0.41042   0.00000  Uiso   1.00
C284   C     0.04523   0.15403   0.37481   0.00000  Uiso   1.00
C285   C     0.78253   0.18216   0.28350   0.00000  Uiso   1.00
C286   C     0.62645   0.11108   0.67106   0.00000  Uiso   1.00
C287   C     0.68206   0.07468   0.71704   0.00000  Uiso   1.00
C288   C     0.78053   0.07245   0.82166   0.00000  Uiso   1.00
C289   C     0.94343   0.05337   0.98897   0.00000  Uiso   1.00
C290   C     0.59342   0.18091   0.66180   0.00000  Uiso   1.00
C291   C     0.66690   0.18249   0.62553   0.00000  Uiso   1.00
C292   C     0.76465   0.21261   0.64431   0.00000  Uiso   1.00
C293   C     0.81975   0.20855   0.60452   0.00000  Uiso   1.00
C294   C     0.39358   0.17450   0.56099   0.00000  Uiso   1.00
C295   C     0.26153   0.19789   0.52552   0.00000  Uiso   1.00
C296   C     0.08655   0.18710   0.43141   0.00000  Uiso   1.00
C297   C     0.66771   0.14409   0.72757   0.00000  Uiso   1.00
C298   C     0.76609   0.14192   0.83213   0.00000  Uiso   1.00
C299   C     0.82185   0.10552   0.87826   0.00000  Uiso   1.00
H300   H     0.48535   0.09444   0.51377   0.00000  Uiso   1.00
H301   H     0.64866   0.11983   0.48548   0.00000  Uiso   1.00
H302   H     0.14563   0.10511   0.36672   0.00000  Uiso   1.00
H303   H     0.65012   0.04914   0.67329   0.00000  Uiso   1.00
H304   H     0.84786   0.16254   0.47899   0.00000  Uiso   1.00
H305   H     0.78719   0.13150   0.22859   0.00000  Uiso   1.00
H306   H     0.85098   0.01348   0.87506   0.00000  Uiso   1.00
H307   H     0.62553   0.20661   0.70579   0.00000  Uiso   1.00
H308   H     0.79655   0.23815   0.68804   0.00000  Uiso   1.00
H309   H     0.29350   0.22343   0.56927   0.00000  Uiso   1.00
H310   H     0.79798   0.16747   0.87584   0.00000  Uiso   1.00
H311   H     0.96788   0.25858   0.64339   0.00000  Uiso   1.00
H312   H     0.90720   0.22753   0.39299   0.00000  Uiso   1.00
H313   H     0.97100   0.10952   0.03945   0.00000  Uiso   1.00
O314   O     0.01779   0.22929   0.54601   0.00000  Uiso   1.00
O315   O     0.62623   0.18856   0.21751   0.00000  Uiso   1.00
O316   O     0.02191   0.03373   0.06565   0.00000  Uiso   1.00
N317   N     0.85267   0.18081   0.52014   0.00000  Uiso   1.00
N318   N     0.86100   0.15179   0.28602   0.00000  Uiso   1.00
N319   N     0.85552   0.04145   0.89040   0.00000  Uiso   1.00
N320   N     0.91725   0.23249   0.60860   0.00000  Uiso   1.00
N321   N     0.92558   0.20347   0.37448   0.00000  Uiso   1.00
N322   N     0.92010   0.09313   0.97886   0.00000  Uiso   1.00
C323   C     0.01748   0.62014   0.55777   0.00000  Uiso   1.00
C324   C     0.12566   0.64948   0.56903   0.00000  Uiso   1.00
C325   C     0.18063   0.64538   0.52921   0.00000  Uiso   1.00
C326   C     0.27842   0.67548   0.54791   0.00000  Uiso   1.00
C327   C     0.44005   0.71604   0.55676   0.00000  Uiso   1.00
C328   C     0.85234   0.64149   0.50449   0.00000  Uiso   1.00
C329   C     0.67751   0.63066   0.41042   0.00000  Uiso   1.00
C330   C     0.54523   0.65403   0.37481   0.00000  Uiso   1.00
C331   C     0.28253   0.68216   0.28350   0.00000  Uiso   1.00
C332   C     0.12645   0.61108   0.67106   0.00000  Uiso   1.00
C333   C     0.18206   0.57468   0.71704   0.00000  Uiso   1.00
C334   C     0.28053   0.57245   0.82166   0.00000  Uiso   1.00
C335   C     0.44343   0.55337   0.98897   0.00000  Uiso   1.00
C336   C     0.09342   0.68091   0.66180   0.00000  Uiso   1.00
C337   C     0.16690   0.68249   0.62553   0.00000  Uiso   1.00
C338   C     0.26465   0.71261   0.64431   0.00000  Uiso   1.00
C339   C     0.31975   0.70855   0.60452   0.00000  Uiso   1.00
C340   C     0.89358   0.67450   0.56099   0.00000  Uiso   1.00
C341   C     0.76153   0.69789   0.52552   0.00000  Uiso   1.00
C342   C     0.58655   0.68710   0.43141   0.00000  Uiso   1.00
C343   C     0.16771   0.64409   0.72757   0.00000  Uiso   1.00
C344   C     0.26609   0.64192   0.83213   0.00000  Uiso   1.00
C345   C     0.32185   0.60552   0.87826   0.00000  Uiso   1.00
H346   H     0.98535   0.59444   0.51377   0.00000  Uiso   1.00
H347   H     0.14866   0.61983   0.48548   0.00000  Uiso   1.00
H348   H     0.64563   0.60511   0.36672   0.00000  Uiso   1.00
H349   H     0.15012   0.54914   0.67329   0.00000  Uiso   1.00
H350   H     0.34786   0.66254   0.47899   0.00000  Uiso   1.00
H351   H     0.28719   0.63150   0.22859   0.00000  Uiso   1.00
H352   H     0.35098   0.51348   0.87506   0.00000  Uiso   1.00
H353   H     0.12553   0.70661   0.70579   0.00000  Uiso   1.00
H354   H     0.29655   0.73815   0.68804   0.00000  Uiso   1.00
H355   H     0.79350   0.72343   0.56927   0.00000  Uiso   1.00
H356   H     0.29798   0.66747   0.87584   0.00000  Uiso   1.00
H357   H     0.46788   0.75858   0.64339   0.00000  Uiso   1.00
H358   H     0.40720   0.72753   0.39299   0.00000  Uiso   1.00
H359   H     0.47100   0.60952   0.03945   0.00000  Uiso   1.00
O360   O     0.51779   0.72929   0.54601   0.00000  Uiso   1.00
O361   O     0.12623   0.68856   0.21751   0.00000  Uiso   1.00
O362   O     0.52191   0.53373   0.06565   0.00000  Uiso   1.00
N363   N     0.35267   0.68081   0.52014   0.00000  Uiso   1.00
N364   N     0.36100   0.65179   0.28602   0.00000  Uiso   1.00
N365   N     0.35552   0.54145   0.89040   0.00000  Uiso   1.00
N366   N     0.41725   0.73249   0.60860   0.00000  Uiso   1.00
N367   N     0.42558   0.70347   0.37448   0.00000  Uiso   1.00
N368   N     0.42010   0.59313   0.97886   0.00000  Uiso   1.00
