data_job_05395
_audit_creation_date              2018-12-19
_audit_creation_method            'Materials Studio'
_symmetry_space_group_name_H-M    'P1'
_symmetry_Int_Tables_number       1
_symmetry_cell_setting            triclinic
loop_
_symmetry_equiv_pos_as_xyz
  x,y,z
_cell_length_a                    36.0517
_cell_length_b                    36.0517
_cell_length_c                    7.1932
_cell_angle_alpha                 90.0000
_cell_angle_beta                  90.0000
_cell_angle_gamma                 120.0000
loop_
_atom_site_label
_atom_site_type_symbol
_atom_site_fract_x
_atom_site_fract_y
_atom_site_fract_z
_atom_site_U_iso_or_equiv
_atom_site_adp_type
_atom_site_occupancy
C1     C     0.19807   0.42789   0.52234   0.00000  Uiso   1.00
C2     C     0.22143   0.40938   0.63085   0.00000  Uiso   1.00
C3     C     0.24316   0.39037   0.55405   0.00000  Uiso   1.00
C4     C     0.26243   0.37543   0.67691   0.00000  Uiso   1.00
C5     C     0.29905   0.34607   0.81609   0.00000  Uiso   1.00
C6     C     0.15213   0.40492   0.59427   0.00000  Uiso   1.00
C7     C     0.11559   0.38215   0.48670   0.00000  Uiso   1.00
C8     C     0.07652   0.36346   0.57877   0.00000  Uiso   1.00
C9     C     0.00554   0.32720   0.66113   0.00000  Uiso   1.00
C10    C     0.21762   0.47435   0.58500   0.00000  Uiso   1.00
C11    C     0.23614   0.50997   0.46964   0.00000  Uiso   1.00
C12    C     0.25220   0.54974   0.55390   0.00000  Uiso   1.00
C13    C     0.28290   0.62129   0.62188   0.00000  Uiso   1.00
C14    C     0.19364   0.43517   0.87708   0.00000  Uiso   1.00
C15    C     0.21902   0.41334   0.82353   0.00000  Uiso   1.00
C16    C     0.23826   0.39842   0.94654   0.00000  Uiso   1.00
C17    C     0.26002   0.37939   0.86994   0.00000  Uiso   1.00
C18    C     0.14972   0.40887   0.78694   0.00000  Uiso   1.00
C19    C     0.11069   0.39021   0.87918   0.00000  Uiso   1.00
C20    C     0.07411   0.36742   0.77180   0.00000  Uiso   1.00
C21    C     0.21522   0.47831   0.77768   0.00000  Uiso   1.00
C22    C     0.23124   0.51803   0.86213   0.00000  Uiso   1.00
C23    C     0.24979   0.55370   0.74693   0.00000  Uiso   1.00
H24    H     0.19994   0.42481   0.37233   0.00000  Uiso   1.00
H25    H     0.24502   0.38731   0.40493   0.00000  Uiso   1.00
H26    H     0.11746   0.37910   0.33759   0.00000  Uiso   1.00
H27    H     0.23800   0.50690   0.32054   0.00000  Uiso   1.00
H28    H     0.29391   0.34747   0.52606   0.00000  Uiso   1.00
H29    H     0.02496   0.33017   0.38406   0.00000  Uiso   1.00
H30    H     0.27913   0.59966   0.34810   0.00000  Uiso   1.00
H31    H     0.19177   0.43825   0.02710   0.00000  Uiso   1.00
H32    H     0.23640   0.40149   0.09564   0.00000  Uiso   1.00
H33    H     0.10884   0.39328   0.02829   0.00000  Uiso   1.00
H34    H     0.22938   0.52107   0.01124   0.00000  Uiso   1.00
H35    H     0.28691   0.35897   0.08666   0.00000  Uiso   1.00
H36    H     0.01796   0.34167   0.94466   0.00000  Uiso   1.00
H37    H     0.27213   0.61116   0.90870   0.00000  Uiso   1.00
O38    O     0.31990   0.32878   0.83964   0.00000  Uiso   1.00
O39    O     0.96705   0.30610   0.65333   0.00000  Uiso   1.00
O40    O     0.30051   0.65966   0.60615   0.00000  Uiso   1.00
N41    N     0.28615   0.35523   0.64859   0.00000  Uiso   1.00
N42    N     0.03470   0.33905   0.51583   0.00000  Uiso   1.00
N43    N     0.27231   0.59100   0.48221   0.00000  Uiso   1.00
N44    N     0.28238   0.36142   0.95025   0.00000  Uiso   1.00
N45    N     0.03093   0.34524   0.81749   0.00000  Uiso   1.00
N46    N     0.26854   0.59719   0.78386   0.00000  Uiso   1.00
C47    C     0.57211   0.77018   0.18900   0.00000  Uiso   1.00
C48    C     0.59062   0.81205   0.29751   0.00000  Uiso   1.00
C49    C     0.60963   0.85279   0.22072   0.00000  Uiso   1.00
C50    C     0.62457   0.88700   0.34357   0.00000  Uiso   1.00
C51    C     0.65393   0.95298   0.48276   0.00000  Uiso   1.00
C52    C     0.59508   0.74721   0.26093   0.00000  Uiso   1.00
C53    C     0.61785   0.73344   0.15337   0.00000  Uiso   1.00
C54    C     0.63654   0.71306   0.24543   0.00000  Uiso   1.00
C55    C     0.67280   0.67834   0.32780   0.00000  Uiso   1.00
C56    C     0.52565   0.74327   0.25166   0.00000  Uiso   1.00
C57    C     0.49003   0.72617   0.13631   0.00000  Uiso   1.00
C58    C     0.45026   0.70246   0.22057   0.00000  Uiso   1.00
C59    C     0.37871   0.66162   0.28855   0.00000  Uiso   1.00
C60    C     0.56483   0.75848   0.54375   0.00000  Uiso   1.00
C61    C     0.58666   0.80569   0.49020   0.00000  Uiso   1.00
C62    C     0.60158   0.83984   0.61320   0.00000  Uiso   1.00
C63    C     0.62061   0.88063   0.53661   0.00000  Uiso   1.00
C64    C     0.59113   0.74085   0.45361   0.00000  Uiso   1.00
C65    C     0.60979   0.72049   0.54585   0.00000  Uiso   1.00
C66    C     0.63258   0.70669   0.43846   0.00000  Uiso   1.00
C67    C     0.52169   0.73691   0.44435   0.00000  Uiso   1.00
C68    C     0.48197   0.71322   0.52880   0.00000  Uiso   1.00
C69    C     0.44630   0.69608   0.41360   0.00000  Uiso   1.00
H70    H     0.57519   0.77513   0.03899   0.00000  Uiso   1.00
H71    H     0.61269   0.85770   0.07160   0.00000  Uiso   1.00
H72    H     0.62090   0.73836   0.00426   0.00000  Uiso   1.00
H73    H     0.49310   0.73109   0.98721   0.00000  Uiso   1.00
H74    H     0.65253   0.94644   0.19272   0.00000  Uiso   1.00
H75    H     0.66983   0.69479   0.05073   0.00000  Uiso   1.00
H76    H     0.40034   0.67946   0.01477   0.00000  Uiso   1.00
H77    H     0.56175   0.75352   0.69377   0.00000  Uiso   1.00
H78    H     0.59851   0.83491   0.76231   0.00000  Uiso   1.00
H79    H     0.60672   0.71557   0.69496   0.00000  Uiso   1.00
H80    H     0.47893   0.70830   0.67791   0.00000  Uiso   1.00
H81    H     0.64103   0.92794   0.75333   0.00000  Uiso   1.00
H82    H     0.65833   0.67629   0.61133   0.00000  Uiso   1.00
H83    H     0.38884   0.66097   0.57537   0.00000  Uiso   1.00
O84    O     0.67122   0.99112   0.50630   0.00000  Uiso   1.00
O85    O     0.69390   0.66096   0.32000   0.00000  Uiso   1.00
O86    O     0.34034   0.64085   0.27282   0.00000  Uiso   1.00
N87    N     0.64477   0.93092   0.31526   0.00000  Uiso   1.00
N88    N     0.66095   0.69565   0.18250   0.00000  Uiso   1.00
N89    N     0.40900   0.68131   0.14887   0.00000  Uiso   1.00
N90    N     0.63858   0.92097   0.61691   0.00000  Uiso   1.00
N91    N     0.65476   0.68569   0.48415   0.00000  Uiso   1.00
N92    N     0.40281   0.67135   0.45053   0.00000  Uiso   1.00
C93    C     0.22982   0.80193   0.85567   0.00000  Uiso   1.00
C94    C     0.18795   0.77857   0.96418   0.00000  Uiso   1.00
C95    C     0.14721   0.75684   0.88739   0.00000  Uiso   1.00
C96    C     0.11300   0.73757   0.01024   0.00000  Uiso   1.00
C97    C     0.04702   0.70095   0.14943   0.00000  Uiso   1.00
C98    C     0.25279   0.84787   0.92760   0.00000  Uiso   1.00
C99    C     0.26656   0.88441   0.82003   0.00000  Uiso   1.00
C100   C     0.28694   0.92348   0.91210   0.00000  Uiso   1.00
C101   C     0.32166   0.99446   0.99447   0.00000  Uiso   1.00
C102   C     0.25673   0.78238   0.91833   0.00000  Uiso   1.00
C103   C     0.27383   0.76386   0.80298   0.00000  Uiso   1.00
C104   C     0.29754   0.74780   0.88723   0.00000  Uiso   1.00
C105   C     0.33838   0.71710   0.95521   0.00000  Uiso   1.00
C106   C     0.24152   0.80636   0.21041   0.00000  Uiso   1.00
C107   C     0.19431   0.78098   0.15687   0.00000  Uiso   1.00
C108   C     0.16016   0.76174   0.27987   0.00000  Uiso   1.00
C109   C     0.11937   0.73998   0.20327   0.00000  Uiso   1.00
C110   C     0.25915   0.85028   0.12027   0.00000  Uiso   1.00
C111   C     0.27951   0.88931   0.21252   0.00000  Uiso   1.00
C112   C     0.29331   0.92589   0.10513   0.00000  Uiso   1.00
C113   C     0.26309   0.78478   0.11102   0.00000  Uiso   1.00
C114   C     0.28678   0.76876   0.19546   0.00000  Uiso   1.00
C115   C     0.30392   0.75021   0.08026   0.00000  Uiso   1.00
H116   H     0.22487   0.80006   0.70566   0.00000  Uiso   1.00
H117   H     0.14230   0.75498   0.73826   0.00000  Uiso   1.00
H118   H     0.26164   0.88254   0.67093   0.00000  Uiso   1.00
H119   H     0.26891   0.76200   0.65388   0.00000  Uiso   1.00
H120   H     0.05356   0.70609   0.85939   0.00000  Uiso   1.00
H121   H     0.30521   0.97504   0.71739   0.00000  Uiso   1.00
H122   H     0.32054   0.72087   0.68143   0.00000  Uiso   1.00
H123   H     0.24648   0.80823   0.36043   0.00000  Uiso   1.00
H124   H     0.16509   0.76360   0.42897   0.00000  Uiso   1.00
H125   H     0.28443   0.89116   0.36163   0.00000  Uiso   1.00
H126   H     0.29170   0.77062   0.34458   0.00000  Uiso   1.00
H127   H     0.07206   0.71309   0.42000   0.00000  Uiso   1.00
H128   H     0.32371   0.98204   0.27799   0.00000  Uiso   1.00
H129   H     0.33903   0.72787   0.24204   0.00000  Uiso   1.00
O130   O     0.00888   0.68010   0.17297   0.00000  Uiso   1.00
O131   O     0.33904   0.03295   0.98666   0.00000  Uiso   1.00
O132   O     0.35915   0.69949   0.93949   0.00000  Uiso   1.00
N133   N     0.06908   0.71385   0.98192   0.00000  Uiso   1.00
N134   N     0.30435   0.96530   0.84917   0.00000  Uiso   1.00
N135   N     0.31869   0.72769   0.81554   0.00000  Uiso   1.00
N136   N     0.07903   0.71762   0.28358   0.00000  Uiso   1.00
N137   N     0.31431   0.96907   0.15082   0.00000  Uiso   1.00
N138   N     0.32865   0.73146   0.11719   0.00000  Uiso   1.00
C139   C     0.80193   0.57211   0.52234   0.00000  Uiso   1.00
C140   C     0.77857   0.59062   0.63085   0.00000  Uiso   1.00
C141   C     0.75684   0.60963   0.55405   0.00000  Uiso   1.00
C142   C     0.73757   0.62457   0.67691   0.00000  Uiso   1.00
C143   C     0.70095   0.65393   0.81609   0.00000  Uiso   1.00
C144   C     0.84787   0.59508   0.59427   0.00000  Uiso   1.00
C145   C     0.88441   0.61785   0.48670   0.00000  Uiso   1.00
C146   C     0.92348   0.63654   0.57877   0.00000  Uiso   1.00
C147   C     0.99446   0.67280   0.66113   0.00000  Uiso   1.00
C148   C     0.78238   0.52565   0.58500   0.00000  Uiso   1.00
C149   C     0.76386   0.49003   0.46964   0.00000  Uiso   1.00
C150   C     0.74780   0.45026   0.55390   0.00000  Uiso   1.00
C151   C     0.71710   0.37871   0.62188   0.00000  Uiso   1.00
C152   C     0.80636   0.56483   0.87708   0.00000  Uiso   1.00
C153   C     0.78098   0.58666   0.82353   0.00000  Uiso   1.00
C154   C     0.76174   0.60158   0.94654   0.00000  Uiso   1.00
C155   C     0.73998   0.62061   0.86994   0.00000  Uiso   1.00
C156   C     0.85028   0.59113   0.78694   0.00000  Uiso   1.00
C157   C     0.88931   0.60979   0.87918   0.00000  Uiso   1.00
C158   C     0.92589   0.63258   0.77180   0.00000  Uiso   1.00
C159   C     0.78478   0.52169   0.77768   0.00000  Uiso   1.00
C160   C     0.76876   0.48197   0.86213   0.00000  Uiso   1.00
C161   C     0.75021   0.44630   0.74693   0.00000  Uiso   1.00
H162   H     0.80006   0.57519   0.37233   0.00000  Uiso   1.00
H163   H     0.75498   0.61269   0.40493   0.00000  Uiso   1.00
H164   H     0.88254   0.62090   0.33759   0.00000  Uiso   1.00
H165   H     0.76200   0.49310   0.32054   0.00000  Uiso   1.00
H166   H     0.70609   0.65253   0.52606   0.00000  Uiso   1.00
H167   H     0.97504   0.66983   0.38406   0.00000  Uiso   1.00
H168   H     0.72087   0.40034   0.34810   0.00000  Uiso   1.00
H169   H     0.80823   0.56175   0.02710   0.00000  Uiso   1.00
H170   H     0.76360   0.59851   0.09564   0.00000  Uiso   1.00
H171   H     0.89116   0.60672   0.02829   0.00000  Uiso   1.00
H172   H     0.77062   0.47893   0.01124   0.00000  Uiso   1.00
H173   H     0.71309   0.64103   0.08666   0.00000  Uiso   1.00
H174   H     0.98204   0.65833   0.94466   0.00000  Uiso   1.00
H175   H     0.72787   0.38884   0.90870   0.00000  Uiso   1.00
O176   O     0.68010   0.67122   0.83964   0.00000  Uiso   1.00
O177   O     0.03295   0.69390   0.65333   0.00000  Uiso   1.00
O178   O     0.69949   0.34034   0.60615   0.00000  Uiso   1.00
N179   N     0.71385   0.64477   0.64859   0.00000  Uiso   1.00
N180   N     0.96530   0.66095   0.51583   0.00000  Uiso   1.00
N181   N     0.72769   0.40900   0.48221   0.00000  Uiso   1.00
N182   N     0.71762   0.63858   0.95025   0.00000  Uiso   1.00
N183   N     0.96907   0.65476   0.81749   0.00000  Uiso   1.00
N184   N     0.73146   0.40281   0.78386   0.00000  Uiso   1.00
C185   C     0.42789   0.22982   0.18900   0.00000  Uiso   1.00
C186   C     0.40938   0.18795   0.29751   0.00000  Uiso   1.00
C187   C     0.39037   0.14721   0.22072   0.00000  Uiso   1.00
C188   C     0.37543   0.11300   0.34357   0.00000  Uiso   1.00
C189   C     0.34607   0.04702   0.48276   0.00000  Uiso   1.00
C190   C     0.40492   0.25279   0.26093   0.00000  Uiso   1.00
C191   C     0.38215   0.26656   0.15337   0.00000  Uiso   1.00
C192   C     0.36346   0.28694   0.24543   0.00000  Uiso   1.00
C193   C     0.32720   0.32166   0.32780   0.00000  Uiso   1.00
C194   C     0.47435   0.25673   0.25166   0.00000  Uiso   1.00
C195   C     0.50997   0.27383   0.13631   0.00000  Uiso   1.00
C196   C     0.54974   0.29754   0.22057   0.00000  Uiso   1.00
C197   C     0.62129   0.33838   0.28855   0.00000  Uiso   1.00
C198   C     0.43517   0.24152   0.54375   0.00000  Uiso   1.00
C199   C     0.41334   0.19431   0.49020   0.00000  Uiso   1.00
C200   C     0.39842   0.16016   0.61320   0.00000  Uiso   1.00
C201   C     0.37939   0.11937   0.53661   0.00000  Uiso   1.00
C202   C     0.40887   0.25915   0.45361   0.00000  Uiso   1.00
C203   C     0.39021   0.27951   0.54585   0.00000  Uiso   1.00
C204   C     0.36742   0.29331   0.43846   0.00000  Uiso   1.00
C205   C     0.47831   0.26309   0.44435   0.00000  Uiso   1.00
C206   C     0.51803   0.28678   0.52880   0.00000  Uiso   1.00
C207   C     0.55370   0.30392   0.41360   0.00000  Uiso   1.00
H208   H     0.42481   0.22487   0.03899   0.00000  Uiso   1.00
H209   H     0.38731   0.14230   0.07160   0.00000  Uiso   1.00
H210   H     0.37910   0.26164   0.00426   0.00000  Uiso   1.00
H211   H     0.50690   0.26891   0.98721   0.00000  Uiso   1.00
H212   H     0.34747   0.05356   0.19272   0.00000  Uiso   1.00
H213   H     0.33017   0.30521   0.05073   0.00000  Uiso   1.00
H214   H     0.59966   0.32054   0.01477   0.00000  Uiso   1.00
H215   H     0.43825   0.24648   0.69377   0.00000  Uiso   1.00
H216   H     0.40149   0.16509   0.76231   0.00000  Uiso   1.00
H217   H     0.39328   0.28443   0.69496   0.00000  Uiso   1.00
H218   H     0.52107   0.29170   0.67791   0.00000  Uiso   1.00
H219   H     0.35897   0.07206   0.75333   0.00000  Uiso   1.00
H220   H     0.34167   0.32371   0.61133   0.00000  Uiso   1.00
H221   H     0.61116   0.33903   0.57537   0.00000  Uiso   1.00
O222   O     0.32878   0.00888   0.50630   0.00000  Uiso   1.00
O223   O     0.30610   0.33904   0.32000   0.00000  Uiso   1.00
O224   O     0.65966   0.35915   0.27282   0.00000  Uiso   1.00
N225   N     0.35523   0.06908   0.31526   0.00000  Uiso   1.00
N226   N     0.33905   0.30435   0.18250   0.00000  Uiso   1.00
N227   N     0.59100   0.31869   0.14887   0.00000  Uiso   1.00
N228   N     0.36142   0.07903   0.61691   0.00000  Uiso   1.00
N229   N     0.34524   0.31431   0.48415   0.00000  Uiso   1.00
N230   N     0.59719   0.32865   0.45053   0.00000  Uiso   1.00
C231   C     0.77018   0.19807   0.85567   0.00000  Uiso   1.00
C232   C     0.81205   0.22143   0.96418   0.00000  Uiso   1.00
C233   C     0.85279   0.24316   0.88739   0.00000  Uiso   1.00
C234   C     0.88700   0.26243   0.01024   0.00000  Uiso   1.00
C235   C     0.95298   0.29905   0.14943   0.00000  Uiso   1.00
C236   C     0.74721   0.15213   0.92760   0.00000  Uiso   1.00
C237   C     0.73344   0.11559   0.82003   0.00000  Uiso   1.00
C238   C     0.71306   0.07652   0.91210   0.00000  Uiso   1.00
C239   C     0.67834   0.00554   0.99447   0.00000  Uiso   1.00
C240   C     0.74327   0.21762   0.91833   0.00000  Uiso   1.00
C241   C     0.72617   0.23614   0.80298   0.00000  Uiso   1.00
C242   C     0.70246   0.25220   0.88723   0.00000  Uiso   1.00
C243   C     0.66162   0.28290   0.95521   0.00000  Uiso   1.00
C244   C     0.75848   0.19364   0.21041   0.00000  Uiso   1.00
C245   C     0.80569   0.21902   0.15687   0.00000  Uiso   1.00
C246   C     0.83984   0.23826   0.27987   0.00000  Uiso   1.00
C247   C     0.88063   0.26002   0.20327   0.00000  Uiso   1.00
C248   C     0.74085   0.14972   0.12027   0.00000  Uiso   1.00
C249   C     0.72049   0.11069   0.21252   0.00000  Uiso   1.00
C250   C     0.70669   0.07411   0.10513   0.00000  Uiso   1.00
C251   C     0.73691   0.21522   0.11102   0.00000  Uiso   1.00
C252   C     0.71322   0.23124   0.19546   0.00000  Uiso   1.00
C253   C     0.69608   0.24979   0.08026   0.00000  Uiso   1.00
H254   H     0.77513   0.19994   0.70566   0.00000  Uiso   1.00
H255   H     0.85770   0.24502   0.73826   0.00000  Uiso   1.00
H256   H     0.73836   0.11746   0.67093   0.00000  Uiso   1.00
H257   H     0.73109   0.23800   0.65388   0.00000  Uiso   1.00
H258   H     0.94644   0.29391   0.85939   0.00000  Uiso   1.00
H259   H     0.69479   0.02496   0.71739   0.00000  Uiso   1.00
H260   H     0.67946   0.27913   0.68143   0.00000  Uiso   1.00
H261   H     0.75352   0.19177   0.36043   0.00000  Uiso   1.00
H262   H     0.83491   0.23640   0.42897   0.00000  Uiso   1.00
H263   H     0.71557   0.10884   0.36163   0.00000  Uiso   1.00
H264   H     0.70830   0.22938   0.34458   0.00000  Uiso   1.00
H265   H     0.92794   0.28691   0.42000   0.00000  Uiso   1.00
H266   H     0.67629   0.01796   0.27799   0.00000  Uiso   1.00
H267   H     0.66097   0.27213   0.24204   0.00000  Uiso   1.00
O268   O     0.99112   0.31990   0.17297   0.00000  Uiso   1.00
O269   O     0.66096   0.96705   0.98666   0.00000  Uiso   1.00
O270   O     0.64085   0.30051   0.93949   0.00000  Uiso   1.00
N271   N     0.93092   0.28615   0.98192   0.00000  Uiso   1.00
N272   N     0.69565   0.03470   0.84917   0.00000  Uiso   1.00
N273   N     0.68131   0.27231   0.81554   0.00000  Uiso   1.00
N274   N     0.92097   0.28238   0.28358   0.00000  Uiso   1.00
N275   N     0.68569   0.03093   0.15082   0.00000  Uiso   1.00
N276   N     0.67135   0.26854   0.11719   0.00000  Uiso   1.00
