data_job_04737
_audit_creation_date              2018-12-19
_audit_creation_method            'Materials Studio'
_symmetry_space_group_name_H-M    'P1'
_symmetry_Int_Tables_number       1
_symmetry_cell_setting            triclinic
loop_
_symmetry_equiv_pos_as_xyz
  x,y,z
_cell_length_a                    29.1789
_cell_length_b                    12.3905
_cell_length_c                    13.0989
_cell_angle_alpha                 90.0000
_cell_angle_beta                  90.0000
_cell_angle_gamma                 90.0000
loop_
_atom_site_label
_atom_site_type_symbol
_atom_site_fract_x
_atom_site_fract_y
_atom_site_fract_z
_atom_site_U_iso_or_equiv
_atom_site_adp_type
_atom_site_occupancy
C1     C     0.13547   0.13828   0.22273   0.00000  Uiso   1.00
C2     C     0.11913   0.22125   0.30063   0.00000  Uiso   1.00
C3     C     0.09783   0.31855   0.27820   0.00000  Uiso   1.00
C4     C     0.08550   0.38325   0.36027   0.00000  Uiso   1.00
C5     C     0.05883   0.51691   0.46589   0.00000  Uiso   1.00
C6     C     0.18635   0.12120   0.24390   0.00000  Uiso   1.00
C7     C     0.22156   0.13437   0.17378   0.00000  Uiso   1.00
C8     C     0.26581   0.11483   0.20809   0.00000  Uiso   1.00
C9     C     0.34349   0.09308   0.22562   0.00000  Uiso   1.00
C10    C     0.11188   0.03256   0.25085   0.00000  Uiso   1.00
C11    C     0.08450   0.97118   0.18657   0.00000  Uiso   1.00
C12    C     0.06607   0.87699   0.22673   0.00000  Uiso   1.00
C13    C     0.02813   0.71762   0.25506   0.00000  Uiso   1.00
C14    C     0.15144   0.08016   0.40835   0.00000  Uiso   1.00
C15    C     0.12781   0.18968   0.40145   0.00000  Uiso   1.00
C16    C     0.11550   0.25424   0.48357   0.00000  Uiso   1.00
C17    C     0.09419   0.35162   0.46127   0.00000  Uiso   1.00
C18    C     0.19502   0.08963   0.34472   0.00000  Uiso   1.00
C19    C     0.23923   0.07006   0.37914   0.00000  Uiso   1.00
C20    C     0.27450   0.08320   0.30909   0.00000  Uiso   1.00
C21    C     0.12056   0.00099   0.35168   0.00000  Uiso   1.00
C22    C     0.10217   0.90688   0.39194   0.00000  Uiso   1.00
C23    C     0.07476   0.84537   0.32773   0.00000  Uiso   1.00
H24    H     0.12872   0.16286   0.14423   0.00000  Uiso   1.00
H25    H     0.09113   0.34296   0.20017   0.00000  Uiso   1.00
H26    H     0.21484   0.15879   0.09576   0.00000  Uiso   1.00
H27    H     0.07780   0.99563   0.10855   0.00000  Uiso   1.00
H28    H     0.05330   0.52873   0.30664   0.00000  Uiso   1.00
H29    H     0.31413   0.14036   0.08648   0.00000  Uiso   1.00
H30    H     0.02516   0.79631   0.11346   0.00000  Uiso   1.00
H31    H     0.15820   0.05558   0.48684   0.00000  Uiso   1.00
H32    H     0.12222   0.22979   0.56158   0.00000  Uiso   1.00
H33    H     0.24593   0.04562   0.45717   0.00000  Uiso   1.00
H34    H     0.10889   0.88247   0.46996   0.00000  Uiso   1.00
H35    H     0.07853   0.43688   0.59998   0.00000  Uiso   1.00
H36    H     0.33937   0.04851   0.37981   0.00000  Uiso   1.00
H37    H     0.05040   0.70447   0.40679   0.00000  Uiso   1.00
O38    O     0.04173   0.59936   0.49629   0.00000  Uiso   1.00
O39    O     0.38394   0.08982   0.20744   0.00000  Uiso   1.00
O40    O     0.00481   0.63844   0.24284   0.00000  Uiso   1.00
N41    N     0.06416   0.48320   0.36542   0.00000  Uiso   1.00
N42    N     0.30803   0.12011   0.15959   0.00000  Uiso   1.00
N43    N     0.03788   0.79844   0.18480   0.00000  Uiso   1.00
N44    N     0.07774   0.43377   0.52326   0.00000  Uiso   1.00
N45    N     0.32161   0.07069   0.31743   0.00000  Uiso   1.00
N46    N     0.05145   0.74902   0.34264   0.00000  Uiso   1.00
C47    C     0.63547   0.63828   0.72273   0.00000  Uiso   1.00
C48    C     0.61913   0.72125   0.80063   0.00000  Uiso   1.00
C49    C     0.59783   0.81855   0.77820   0.00000  Uiso   1.00
C50    C     0.58550   0.88325   0.86027   0.00000  Uiso   1.00
C51    C     0.55883   0.01691   0.96589   0.00000  Uiso   1.00
C52    C     0.68635   0.62120   0.74390   0.00000  Uiso   1.00
C53    C     0.72156   0.63437   0.67378   0.00000  Uiso   1.00
C54    C     0.76581   0.61483   0.70809   0.00000  Uiso   1.00
C55    C     0.84349   0.59308   0.72562   0.00000  Uiso   1.00
C56    C     0.61188   0.53256   0.75085   0.00000  Uiso   1.00
C57    C     0.58450   0.47118   0.68657   0.00000  Uiso   1.00
C58    C     0.56607   0.37699   0.72673   0.00000  Uiso   1.00
C59    C     0.52813   0.21762   0.75506   0.00000  Uiso   1.00
C60    C     0.65144   0.58016   0.90835   0.00000  Uiso   1.00
C61    C     0.62781   0.68968   0.90145   0.00000  Uiso   1.00
C62    C     0.61550   0.75424   0.98357   0.00000  Uiso   1.00
C63    C     0.59419   0.85162   0.96127   0.00000  Uiso   1.00
C64    C     0.69502   0.58963   0.84472   0.00000  Uiso   1.00
C65    C     0.73923   0.57006   0.87914   0.00000  Uiso   1.00
C66    C     0.77450   0.58320   0.80909   0.00000  Uiso   1.00
C67    C     0.62056   0.50099   0.85168   0.00000  Uiso   1.00
C68    C     0.60217   0.40688   0.89194   0.00000  Uiso   1.00
C69    C     0.57476   0.34537   0.82773   0.00000  Uiso   1.00
H70    H     0.62872   0.66286   0.64423   0.00000  Uiso   1.00
H71    H     0.59113   0.84296   0.70017   0.00000  Uiso   1.00
H72    H     0.71484   0.65879   0.59576   0.00000  Uiso   1.00
H73    H     0.57780   0.49563   0.60855   0.00000  Uiso   1.00
H74    H     0.55330   0.02873   0.80664   0.00000  Uiso   1.00
H75    H     0.81413   0.64036   0.58648   0.00000  Uiso   1.00
H76    H     0.52516   0.29631   0.61346   0.00000  Uiso   1.00
H77    H     0.65820   0.55558   0.98684   0.00000  Uiso   1.00
H78    H     0.62222   0.72979   0.06158   0.00000  Uiso   1.00
H79    H     0.74593   0.54562   0.95717   0.00000  Uiso   1.00
H80    H     0.60889   0.38247   0.96996   0.00000  Uiso   1.00
H81    H     0.57853   0.93688   0.09998   0.00000  Uiso   1.00
H82    H     0.83937   0.54851   0.87981   0.00000  Uiso   1.00
H83    H     0.55040   0.20447   0.90679   0.00000  Uiso   1.00
O84    O     0.54173   0.09936   0.99629   0.00000  Uiso   1.00
O85    O     0.88394   0.58982   0.70744   0.00000  Uiso   1.00
O86    O     0.50481   0.13844   0.74284   0.00000  Uiso   1.00
N87    N     0.56416   0.98320   0.86542   0.00000  Uiso   1.00
N88    N     0.80803   0.62011   0.65959   0.00000  Uiso   1.00
N89    N     0.53788   0.29844   0.68480   0.00000  Uiso   1.00
N90    N     0.57774   0.93377   0.02326   0.00000  Uiso   1.00
N91    N     0.82161   0.57069   0.81743   0.00000  Uiso   1.00
N92    N     0.55145   0.24902   0.84264   0.00000  Uiso   1.00
C93    C     0.86453   0.86172   0.22273   0.00000  Uiso   1.00
C94    C     0.88087   0.77875   0.30063   0.00000  Uiso   1.00
C95    C     0.90217   0.68145   0.27820   0.00000  Uiso   1.00
C96    C     0.91450   0.61675   0.36027   0.00000  Uiso   1.00
C97    C     0.94117   0.48309   0.46589   0.00000  Uiso   1.00
C98    C     0.81365   0.87880   0.24390   0.00000  Uiso   1.00
C99    C     0.77844   0.86563   0.17378   0.00000  Uiso   1.00
C100   C     0.73419   0.88517   0.20809   0.00000  Uiso   1.00
C101   C     0.65651   0.90692   0.22562   0.00000  Uiso   1.00
C102   C     0.88812   0.96744   0.25085   0.00000  Uiso   1.00
C103   C     0.91550   0.02882   0.18657   0.00000  Uiso   1.00
C104   C     0.93393   0.12301   0.22673   0.00000  Uiso   1.00
C105   C     0.97187   0.28238   0.25506   0.00000  Uiso   1.00
C106   C     0.84856   0.91984   0.40835   0.00000  Uiso   1.00
C107   C     0.87219   0.81032   0.40145   0.00000  Uiso   1.00
C108   C     0.88450   0.74576   0.48357   0.00000  Uiso   1.00
C109   C     0.90581   0.64838   0.46127   0.00000  Uiso   1.00
C110   C     0.80498   0.91037   0.34472   0.00000  Uiso   1.00
C111   C     0.76077   0.92994   0.37914   0.00000  Uiso   1.00
C112   C     0.72550   0.91680   0.30909   0.00000  Uiso   1.00
C113   C     0.87944   0.99901   0.35168   0.00000  Uiso   1.00
C114   C     0.89783   0.09312   0.39194   0.00000  Uiso   1.00
C115   C     0.92524   0.15463   0.32773   0.00000  Uiso   1.00
H116   H     0.87128   0.83714   0.14423   0.00000  Uiso   1.00
H117   H     0.90887   0.65704   0.20017   0.00000  Uiso   1.00
H118   H     0.78516   0.84121   0.09576   0.00000  Uiso   1.00
H119   H     0.92220   0.00437   0.10855   0.00000  Uiso   1.00
H120   H     0.94670   0.47127   0.30664   0.00000  Uiso   1.00
H121   H     0.68587   0.85964   0.08648   0.00000  Uiso   1.00
H122   H     0.97484   0.20369   0.11346   0.00000  Uiso   1.00
H123   H     0.84180   0.94442   0.48684   0.00000  Uiso   1.00
H124   H     0.87778   0.77021   0.56158   0.00000  Uiso   1.00
H125   H     0.75407   0.95438   0.45717   0.00000  Uiso   1.00
H126   H     0.89111   0.11753   0.46996   0.00000  Uiso   1.00
H127   H     0.92147   0.56312   0.59998   0.00000  Uiso   1.00
H128   H     0.66063   0.95149   0.37981   0.00000  Uiso   1.00
H129   H     0.94960   0.29553   0.40679   0.00000  Uiso   1.00
O130   O     0.95827   0.40064   0.49629   0.00000  Uiso   1.00
O131   O     0.61606   0.91018   0.20744   0.00000  Uiso   1.00
O132   O     0.99519   0.36156   0.24284   0.00000  Uiso   1.00
N133   N     0.93584   0.51680   0.36542   0.00000  Uiso   1.00
N134   N     0.69197   0.87989   0.15959   0.00000  Uiso   1.00
N135   N     0.96212   0.20156   0.18480   0.00000  Uiso   1.00
N136   N     0.92226   0.56623   0.52326   0.00000  Uiso   1.00
N137   N     0.67839   0.92931   0.31743   0.00000  Uiso   1.00
N138   N     0.94855   0.25098   0.34264   0.00000  Uiso   1.00
C139   C     0.36453   0.36172   0.72273   0.00000  Uiso   1.00
C140   C     0.38087   0.27875   0.80063   0.00000  Uiso   1.00
C141   C     0.40217   0.18145   0.77820   0.00000  Uiso   1.00
C142   C     0.41450   0.11675   0.86027   0.00000  Uiso   1.00
C143   C     0.44117   0.98309   0.96589   0.00000  Uiso   1.00
C144   C     0.31365   0.37880   0.74390   0.00000  Uiso   1.00
C145   C     0.27844   0.36563   0.67378   0.00000  Uiso   1.00
C146   C     0.23419   0.38517   0.70809   0.00000  Uiso   1.00
C147   C     0.15651   0.40692   0.72562   0.00000  Uiso   1.00
C148   C     0.38812   0.46744   0.75085   0.00000  Uiso   1.00
C149   C     0.41550   0.52882   0.68657   0.00000  Uiso   1.00
C150   C     0.43393   0.62301   0.72673   0.00000  Uiso   1.00
C151   C     0.47187   0.78238   0.75506   0.00000  Uiso   1.00
C152   C     0.34856   0.41984   0.90835   0.00000  Uiso   1.00
C153   C     0.37219   0.31032   0.90145   0.00000  Uiso   1.00
C154   C     0.38450   0.24576   0.98357   0.00000  Uiso   1.00
C155   C     0.40581   0.14838   0.96127   0.00000  Uiso   1.00
C156   C     0.30498   0.41037   0.84472   0.00000  Uiso   1.00
C157   C     0.26077   0.42994   0.87914   0.00000  Uiso   1.00
C158   C     0.22550   0.41680   0.80909   0.00000  Uiso   1.00
C159   C     0.37944   0.49901   0.85168   0.00000  Uiso   1.00
C160   C     0.39783   0.59312   0.89194   0.00000  Uiso   1.00
C161   C     0.42524   0.65463   0.82773   0.00000  Uiso   1.00
H162   H     0.37128   0.33714   0.64423   0.00000  Uiso   1.00
H163   H     0.40887   0.15704   0.70017   0.00000  Uiso   1.00
H164   H     0.28516   0.34121   0.59576   0.00000  Uiso   1.00
H165   H     0.42220   0.50437   0.60855   0.00000  Uiso   1.00
H166   H     0.44670   0.97127   0.80664   0.00000  Uiso   1.00
H167   H     0.18587   0.35964   0.58648   0.00000  Uiso   1.00
H168   H     0.47484   0.70369   0.61346   0.00000  Uiso   1.00
H169   H     0.34180   0.44442   0.98684   0.00000  Uiso   1.00
H170   H     0.37778   0.27021   0.06158   0.00000  Uiso   1.00
H171   H     0.25407   0.45438   0.95717   0.00000  Uiso   1.00
H172   H     0.39111   0.61753   0.96996   0.00000  Uiso   1.00
H173   H     0.42147   0.06312   0.09998   0.00000  Uiso   1.00
H174   H     0.16063   0.45149   0.87981   0.00000  Uiso   1.00
H175   H     0.44960   0.79553   0.90679   0.00000  Uiso   1.00
O176   O     0.45827   0.90064   0.99629   0.00000  Uiso   1.00
O177   O     0.11606   0.41018   0.70744   0.00000  Uiso   1.00
O178   O     0.49519   0.86156   0.74284   0.00000  Uiso   1.00
N179   N     0.43584   0.01680   0.86542   0.00000  Uiso   1.00
N180   N     0.19197   0.37989   0.65959   0.00000  Uiso   1.00
N181   N     0.46212   0.70156   0.68480   0.00000  Uiso   1.00
N182   N     0.42226   0.06623   0.02326   0.00000  Uiso   1.00
N183   N     0.17839   0.42931   0.81743   0.00000  Uiso   1.00
N184   N     0.44855   0.75098   0.84264   0.00000  Uiso   1.00
C185   C     0.63547   0.36172   0.22273   0.00000  Uiso   1.00
C186   C     0.61913   0.27875   0.30063   0.00000  Uiso   1.00
C187   C     0.59783   0.18145   0.27820   0.00000  Uiso   1.00
C188   C     0.58550   0.11675   0.36027   0.00000  Uiso   1.00
C189   C     0.55883   0.98309   0.46589   0.00000  Uiso   1.00
C190   C     0.68635   0.37880   0.24390   0.00000  Uiso   1.00
C191   C     0.72156   0.36563   0.17378   0.00000  Uiso   1.00
C192   C     0.76581   0.38517   0.20809   0.00000  Uiso   1.00
C193   C     0.84349   0.40692   0.22562   0.00000  Uiso   1.00
C194   C     0.61188   0.46744   0.25085   0.00000  Uiso   1.00
C195   C     0.58450   0.52882   0.18657   0.00000  Uiso   1.00
C196   C     0.56607   0.62301   0.22673   0.00000  Uiso   1.00
C197   C     0.52813   0.78238   0.25506   0.00000  Uiso   1.00
C198   C     0.65144   0.41984   0.40835   0.00000  Uiso   1.00
C199   C     0.62781   0.31032   0.40145   0.00000  Uiso   1.00
C200   C     0.61550   0.24576   0.48357   0.00000  Uiso   1.00
C201   C     0.59419   0.14838   0.46127   0.00000  Uiso   1.00
C202   C     0.69502   0.41037   0.34472   0.00000  Uiso   1.00
C203   C     0.73923   0.42994   0.37914   0.00000  Uiso   1.00
C204   C     0.77450   0.41680   0.30909   0.00000  Uiso   1.00
C205   C     0.62056   0.49901   0.35168   0.00000  Uiso   1.00
C206   C     0.60217   0.59312   0.39194   0.00000  Uiso   1.00
C207   C     0.57476   0.65463   0.32773   0.00000  Uiso   1.00
H208   H     0.62872   0.33714   0.14423   0.00000  Uiso   1.00
H209   H     0.59113   0.15704   0.20017   0.00000  Uiso   1.00
H210   H     0.71484   0.34121   0.09576   0.00000  Uiso   1.00
H211   H     0.57780   0.50437   0.10855   0.00000  Uiso   1.00
H212   H     0.55330   0.97127   0.30664   0.00000  Uiso   1.00
H213   H     0.81413   0.35964   0.08648   0.00000  Uiso   1.00
H214   H     0.52516   0.70369   0.11346   0.00000  Uiso   1.00
H215   H     0.65820   0.44442   0.48684   0.00000  Uiso   1.00
H216   H     0.62222   0.27021   0.56158   0.00000  Uiso   1.00
H217   H     0.74593   0.45438   0.45717   0.00000  Uiso   1.00
H218   H     0.60889   0.61753   0.46996   0.00000  Uiso   1.00
H219   H     0.57853   0.06312   0.59998   0.00000  Uiso   1.00
H220   H     0.83937   0.45149   0.37981   0.00000  Uiso   1.00
H221   H     0.55040   0.79553   0.40679   0.00000  Uiso   1.00
O222   O     0.54173   0.90064   0.49629   0.00000  Uiso   1.00
O223   O     0.88394   0.41018   0.20744   0.00000  Uiso   1.00
O224   O     0.50481   0.86156   0.24284   0.00000  Uiso   1.00
N225   N     0.56416   0.01680   0.36542   0.00000  Uiso   1.00
N226   N     0.80803   0.37989   0.15959   0.00000  Uiso   1.00
N227   N     0.53788   0.70156   0.18480   0.00000  Uiso   1.00
N228   N     0.57774   0.06623   0.52326   0.00000  Uiso   1.00
N229   N     0.82161   0.42931   0.31743   0.00000  Uiso   1.00
N230   N     0.55145   0.75098   0.34264   0.00000  Uiso   1.00
C231   C     0.13547   0.86172   0.72273   0.00000  Uiso   1.00
C232   C     0.11913   0.77875   0.80063   0.00000  Uiso   1.00
C233   C     0.09783   0.68145   0.77820   0.00000  Uiso   1.00
C234   C     0.08550   0.61675   0.86027   0.00000  Uiso   1.00
C235   C     0.05883   0.48309   0.96589   0.00000  Uiso   1.00
C236   C     0.18635   0.87880   0.74390   0.00000  Uiso   1.00
C237   C     0.22156   0.86563   0.67378   0.00000  Uiso   1.00
C238   C     0.26581   0.88517   0.70809   0.00000  Uiso   1.00
C239   C     0.34349   0.90692   0.72562   0.00000  Uiso   1.00
C240   C     0.11188   0.96744   0.75085   0.00000  Uiso   1.00
C241   C     0.08450   0.02882   0.68657   0.00000  Uiso   1.00
C242   C     0.06607   0.12301   0.72673   0.00000  Uiso   1.00
C243   C     0.02813   0.28238   0.75506   0.00000  Uiso   1.00
C244   C     0.15144   0.91984   0.90835   0.00000  Uiso   1.00
C245   C     0.12781   0.81032   0.90145   0.00000  Uiso   1.00
C246   C     0.11550   0.74576   0.98357   0.00000  Uiso   1.00
C247   C     0.09419   0.64838   0.96127   0.00000  Uiso   1.00
C248   C     0.19502   0.91037   0.84472   0.00000  Uiso   1.00
C249   C     0.23923   0.92994   0.87914   0.00000  Uiso   1.00
C250   C     0.27450   0.91680   0.80909   0.00000  Uiso   1.00
C251   C     0.12056   0.99901   0.85168   0.00000  Uiso   1.00
C252   C     0.10217   0.09312   0.89194   0.00000  Uiso   1.00
C253   C     0.07476   0.15463   0.82773   0.00000  Uiso   1.00
H254   H     0.12872   0.83714   0.64423   0.00000  Uiso   1.00
H255   H     0.09113   0.65704   0.70017   0.00000  Uiso   1.00
H256   H     0.21484   0.84121   0.59576   0.00000  Uiso   1.00
H257   H     0.07780   0.00437   0.60855   0.00000  Uiso   1.00
H258   H     0.05330   0.47127   0.80664   0.00000  Uiso   1.00
H259   H     0.31413   0.85964   0.58648   0.00000  Uiso   1.00
H260   H     0.02516   0.20369   0.61346   0.00000  Uiso   1.00
H261   H     0.15820   0.94442   0.98684   0.00000  Uiso   1.00
H262   H     0.12222   0.77021   0.06158   0.00000  Uiso   1.00
H263   H     0.24593   0.95438   0.95717   0.00000  Uiso   1.00
H264   H     0.10889   0.11753   0.96996   0.00000  Uiso   1.00
H265   H     0.07853   0.56312   0.09998   0.00000  Uiso   1.00
H266   H     0.33937   0.95149   0.87981   0.00000  Uiso   1.00
H267   H     0.05040   0.29553   0.90679   0.00000  Uiso   1.00
O268   O     0.04173   0.40064   0.99629   0.00000  Uiso   1.00
O269   O     0.38394   0.91018   0.70744   0.00000  Uiso   1.00
O270   O     0.00481   0.36156   0.74284   0.00000  Uiso   1.00
N271   N     0.06416   0.51680   0.86542   0.00000  Uiso   1.00
N272   N     0.30803   0.87989   0.65959   0.00000  Uiso   1.00
N273   N     0.03788   0.20156   0.68480   0.00000  Uiso   1.00
N274   N     0.07774   0.56623   0.02326   0.00000  Uiso   1.00
N275   N     0.32161   0.92931   0.81743   0.00000  Uiso   1.00
N276   N     0.05145   0.25098   0.84264   0.00000  Uiso   1.00
C277   C     0.36453   0.63828   0.22273   0.00000  Uiso   1.00
C278   C     0.38087   0.72125   0.30063   0.00000  Uiso   1.00
C279   C     0.40217   0.81855   0.27820   0.00000  Uiso   1.00
C280   C     0.41450   0.88325   0.36027   0.00000  Uiso   1.00
C281   C     0.44117   0.01691   0.46589   0.00000  Uiso   1.00
C282   C     0.31365   0.62120   0.24390   0.00000  Uiso   1.00
C283   C     0.27844   0.63437   0.17378   0.00000  Uiso   1.00
C284   C     0.23419   0.61483   0.20809   0.00000  Uiso   1.00
C285   C     0.15651   0.59308   0.22562   0.00000  Uiso   1.00
C286   C     0.38812   0.53256   0.25085   0.00000  Uiso   1.00
C287   C     0.41550   0.47118   0.18657   0.00000  Uiso   1.00
C288   C     0.43393   0.37699   0.22673   0.00000  Uiso   1.00
C289   C     0.47187   0.21762   0.25506   0.00000  Uiso   1.00
C290   C     0.34856   0.58016   0.40835   0.00000  Uiso   1.00
C291   C     0.37219   0.68968   0.40145   0.00000  Uiso   1.00
C292   C     0.38450   0.75424   0.48357   0.00000  Uiso   1.00
C293   C     0.40581   0.85162   0.46127   0.00000  Uiso   1.00
C294   C     0.30498   0.58963   0.34472   0.00000  Uiso   1.00
C295   C     0.26077   0.57006   0.37914   0.00000  Uiso   1.00
C296   C     0.22550   0.58320   0.30909   0.00000  Uiso   1.00
C297   C     0.37944   0.50099   0.35168   0.00000  Uiso   1.00
C298   C     0.39783   0.40688   0.39194   0.00000  Uiso   1.00
C299   C     0.42524   0.34537   0.32773   0.00000  Uiso   1.00
H300   H     0.37128   0.66286   0.14423   0.00000  Uiso   1.00
H301   H     0.40887   0.84296   0.20017   0.00000  Uiso   1.00
H302   H     0.28516   0.65879   0.09576   0.00000  Uiso   1.00
H303   H     0.42220   0.49563   0.10855   0.00000  Uiso   1.00
H304   H     0.44670   0.02873   0.30664   0.00000  Uiso   1.00
H305   H     0.18587   0.64036   0.08648   0.00000  Uiso   1.00
H306   H     0.47484   0.29631   0.11346   0.00000  Uiso   1.00
H307   H     0.34180   0.55558   0.48684   0.00000  Uiso   1.00
H308   H     0.37778   0.72979   0.56158   0.00000  Uiso   1.00
H309   H     0.25407   0.54562   0.45717   0.00000  Uiso   1.00
H310   H     0.39111   0.38247   0.46996   0.00000  Uiso   1.00
H311   H     0.42147   0.93688   0.59998   0.00000  Uiso   1.00
H312   H     0.16063   0.54851   0.37981   0.00000  Uiso   1.00
H313   H     0.44960   0.20447   0.40679   0.00000  Uiso   1.00
O314   O     0.45827   0.09936   0.49629   0.00000  Uiso   1.00
O315   O     0.11606   0.58982   0.20744   0.00000  Uiso   1.00
O316   O     0.49519   0.13844   0.24284   0.00000  Uiso   1.00
N317   N     0.43584   0.98320   0.36542   0.00000  Uiso   1.00
N318   N     0.19197   0.62011   0.15959   0.00000  Uiso   1.00
N319   N     0.46212   0.29844   0.18480   0.00000  Uiso   1.00
N320   N     0.42226   0.93377   0.52326   0.00000  Uiso   1.00
N321   N     0.17839   0.57069   0.31743   0.00000  Uiso   1.00
N322   N     0.44855   0.24902   0.34264   0.00000  Uiso   1.00
C323   C     0.86453   0.13828   0.72273   0.00000  Uiso   1.00
C324   C     0.88087   0.22125   0.80063   0.00000  Uiso   1.00
C325   C     0.90217   0.31855   0.77820   0.00000  Uiso   1.00
C326   C     0.91450   0.38325   0.86027   0.00000  Uiso   1.00
C327   C     0.94117   0.51691   0.96589   0.00000  Uiso   1.00
C328   C     0.81365   0.12120   0.74390   0.00000  Uiso   1.00
C329   C     0.77844   0.13437   0.67378   0.00000  Uiso   1.00
C330   C     0.73419   0.11483   0.70809   0.00000  Uiso   1.00
C331   C     0.65651   0.09308   0.72562   0.00000  Uiso   1.00
C332   C     0.88812   0.03256   0.75085   0.00000  Uiso   1.00
C333   C     0.91550   0.97118   0.68657   0.00000  Uiso   1.00
C334   C     0.93393   0.87699   0.72673   0.00000  Uiso   1.00
C335   C     0.97187   0.71762   0.75506   0.00000  Uiso   1.00
C336   C     0.84856   0.08016   0.90835   0.00000  Uiso   1.00
C337   C     0.87219   0.18968   0.90145   0.00000  Uiso   1.00
C338   C     0.88450   0.25424   0.98357   0.00000  Uiso   1.00
C339   C     0.90581   0.35162   0.96127   0.00000  Uiso   1.00
C340   C     0.80498   0.08963   0.84472   0.00000  Uiso   1.00
C341   C     0.76077   0.07006   0.87914   0.00000  Uiso   1.00
C342   C     0.72550   0.08320   0.80909   0.00000  Uiso   1.00
C343   C     0.87944   0.00099   0.85168   0.00000  Uiso   1.00
C344   C     0.89783   0.90688   0.89194   0.00000  Uiso   1.00
C345   C     0.92524   0.84537   0.82773   0.00000  Uiso   1.00
H346   H     0.87128   0.16286   0.64423   0.00000  Uiso   1.00
H347   H     0.90887   0.34296   0.70017   0.00000  Uiso   1.00
H348   H     0.78516   0.15879   0.59576   0.00000  Uiso   1.00
H349   H     0.92220   0.99563   0.60855   0.00000  Uiso   1.00
H350   H     0.94670   0.52873   0.80664   0.00000  Uiso   1.00
H351   H     0.68587   0.14036   0.58648   0.00000  Uiso   1.00
H352   H     0.97484   0.79631   0.61346   0.00000  Uiso   1.00
H353   H     0.84180   0.05558   0.98684   0.00000  Uiso   1.00
H354   H     0.87778   0.22979   0.06158   0.00000  Uiso   1.00
H355   H     0.75407   0.04562   0.95717   0.00000  Uiso   1.00
H356   H     0.89111   0.88247   0.96996   0.00000  Uiso   1.00
H357   H     0.92147   0.43688   0.09998   0.00000  Uiso   1.00
H358   H     0.66063   0.04851   0.87981   0.00000  Uiso   1.00
H359   H     0.94960   0.70447   0.90679   0.00000  Uiso   1.00
O360   O     0.95827   0.59936   0.99629   0.00000  Uiso   1.00
O361   O     0.61606   0.08982   0.70744   0.00000  Uiso   1.00
O362   O     0.99519   0.63844   0.74284   0.00000  Uiso   1.00
N363   N     0.93584   0.48320   0.86542   0.00000  Uiso   1.00
N364   N     0.69197   0.12011   0.65959   0.00000  Uiso   1.00
N365   N     0.96212   0.79844   0.68480   0.00000  Uiso   1.00
N366   N     0.92226   0.43377   0.02326   0.00000  Uiso   1.00
N367   N     0.67839   0.07069   0.81743   0.00000  Uiso   1.00
N368   N     0.94855   0.74902   0.84264   0.00000  Uiso   1.00
