data_job_00560
_audit_creation_date              2018-12-19
_audit_creation_method            'Materials Studio'
_symmetry_space_group_name_H-M    'P1'
_symmetry_Int_Tables_number       1
_symmetry_cell_setting            triclinic
loop_
_symmetry_equiv_pos_as_xyz
  x,y,z
_cell_length_a                    39.0886
_cell_length_b                    12.4425
_cell_length_c                    12.5626
_cell_angle_alpha                 90.0000
_cell_angle_beta                  90.0000
_cell_angle_gamma                 90.0000
loop_
_atom_site_label
_atom_site_type_symbol
_atom_site_fract_x
_atom_site_fract_y
_atom_site_fract_z
_atom_site_U_iso_or_equiv
_atom_site_adp_type
_atom_site_occupancy
C1     C     0.33804   0.16435   0.05615   0.00000  Uiso   1.00
C2     C     0.32616   0.24240   0.97017   0.00000  Uiso   1.00
C3     C     0.30699   0.33473   0.98696   0.00000  Uiso   1.00
C4     C     0.29870   0.39542   0.89788   0.00000  Uiso   1.00
C5     C     0.27864   0.52125   0.77991   0.00000  Uiso   1.00
C6     C     0.32439   0.05430   0.02375   0.00000  Uiso   1.00
C7     C     0.30374   0.98848   0.08560   0.00000  Uiso   1.00
C8     C     0.29397   0.89082   0.04161   0.00000  Uiso   1.00
C9     C     0.27117   0.72458   0.00686   0.00000  Uiso   1.00
C10    C     0.37685   0.15769   0.04565   0.00000  Uiso   1.00
C11    C     0.40031   0.17876   0.12592   0.00000  Uiso   1.00
C12    C     0.43470   0.16812   0.10038   0.00000  Uiso   1.00
C13    C     0.49336   0.16241   0.09963   0.00000  Uiso   1.00
C14    C     0.35742   0.10794   0.86809   0.00000  Uiso   1.00
C15    C     0.33668   0.21175   0.86803   0.00000  Uiso   1.00
C16    C     0.32843   0.27232   0.77889   0.00000  Uiso   1.00
C17    C     0.30925   0.36473   0.79555   0.00000  Uiso   1.00
C18    C     0.33491   0.02366   0.92161   0.00000  Uiso   1.00
C19    C     0.32517   0.92607   0.87753   0.00000  Uiso   1.00
C20    C     0.30451   0.86012   0.93928   0.00000  Uiso   1.00
C21    C     0.38737   0.12705   0.94350   0.00000  Uiso   1.00
C22    C     0.42174   0.11636   0.91784   0.00000  Uiso   1.00
C23    C     0.44524   0.13743   0.99805   0.00000  Uiso   1.00
H24    H     0.32985   0.18820   0.13568   0.00000  Uiso   1.00
H25    H     0.29885   0.35841   0.06603   0.00000  Uiso   1.00
H26    H     0.29560   0.01221   0.16464   0.00000  Uiso   1.00
H27    H     0.39215   0.20247   0.20495   0.00000  Uiso   1.00
H28    H     0.26911   0.53359   0.94375   0.00000  Uiso   1.00
H29    H     0.26227   0.80358   0.15171   0.00000  Uiso   1.00
H30    H     0.46587   0.20479   0.23672   0.00000  Uiso   1.00
H31    H     0.36561   0.08408   0.78856   0.00000  Uiso   1.00
H32    H     0.33657   0.24859   0.69986   0.00000  Uiso   1.00
H33    H     0.33332   0.90238   0.79848   0.00000  Uiso   1.00
H34    H     0.42987   0.09265   0.83879   0.00000  Uiso   1.00
H35    H     0.29972   0.44446   0.64655   0.00000  Uiso   1.00
H36    H     0.29288   0.71444   0.85452   0.00000  Uiso   1.00
H37    H     0.49648   0.11566   0.93952   0.00000  Uiso   1.00
O38    O     0.26466   0.59911   0.74306   0.00000  Uiso   1.00
O39    O     0.25569   0.64135   0.01590   0.00000  Uiso   1.00
O40    O     0.52280   0.16774   0.12743   0.00000  Uiso   1.00
N41    N     0.28031   0.49005   0.88598   0.00000  Uiso   1.00
N42    N     0.27391   0.80754   0.08040   0.00000  Uiso   1.00
N43    N     0.46425   0.18261   0.15989   0.00000  Uiso   1.00
N44    N     0.29678   0.44209   0.72606   0.00000  Uiso   1.00
N45    N     0.29038   0.75958   0.92048   0.00000  Uiso   1.00
N46    N     0.48073   0.13465   0.99997   0.00000  Uiso   1.00
C47    C     0.16196   0.33565   0.55615   0.00000  Uiso   1.00
C48    C     0.17384   0.25760   0.47017   0.00000  Uiso   1.00
C49    C     0.19301   0.16527   0.48696   0.00000  Uiso   1.00
C50    C     0.20130   0.10458   0.39788   0.00000  Uiso   1.00
C51    C     0.22136   0.97875   0.27991   0.00000  Uiso   1.00
C52    C     0.17561   0.44570   0.52375   0.00000  Uiso   1.00
C53    C     0.19626   0.51152   0.58560   0.00000  Uiso   1.00
C54    C     0.20603   0.60918   0.54161   0.00000  Uiso   1.00
C55    C     0.22883   0.77542   0.50686   0.00000  Uiso   1.00
C56    C     0.12315   0.34231   0.54565   0.00000  Uiso   1.00
C57    C     0.09969   0.32124   0.62592   0.00000  Uiso   1.00
C58    C     0.06530   0.33188   0.60038   0.00000  Uiso   1.00
C59    C     0.00664   0.33759   0.59963   0.00000  Uiso   1.00
C60    C     0.14258   0.39206   0.36809   0.00000  Uiso   1.00
C61    C     0.16332   0.28825   0.36803   0.00000  Uiso   1.00
C62    C     0.17157   0.22768   0.27889   0.00000  Uiso   1.00
C63    C     0.19075   0.13527   0.29555   0.00000  Uiso   1.00
C64    C     0.16509   0.47634   0.42161   0.00000  Uiso   1.00
C65    C     0.17483   0.57393   0.37753   0.00000  Uiso   1.00
C66    C     0.19549   0.63988   0.43928   0.00000  Uiso   1.00
C67    C     0.11263   0.37295   0.44350   0.00000  Uiso   1.00
C68    C     0.07826   0.38364   0.41784   0.00000  Uiso   1.00
C69    C     0.05476   0.36257   0.49805   0.00000  Uiso   1.00
H70    H     0.17015   0.31180   0.63568   0.00000  Uiso   1.00
H71    H     0.20115   0.14159   0.56603   0.00000  Uiso   1.00
H72    H     0.20440   0.48779   0.66464   0.00000  Uiso   1.00
H73    H     0.10785   0.29753   0.70495   0.00000  Uiso   1.00
H74    H     0.23089   0.96641   0.44375   0.00000  Uiso   1.00
H75    H     0.23773   0.69642   0.65171   0.00000  Uiso   1.00
H76    H     0.03413   0.29521   0.73672   0.00000  Uiso   1.00
H77    H     0.13439   0.41592   0.28856   0.00000  Uiso   1.00
H78    H     0.16343   0.25141   0.19986   0.00000  Uiso   1.00
H79    H     0.16668   0.59762   0.29848   0.00000  Uiso   1.00
H80    H     0.07013   0.40735   0.33879   0.00000  Uiso   1.00
H81    H     0.20028   0.05554   0.14655   0.00000  Uiso   1.00
H82    H     0.20712   0.78556   0.35452   0.00000  Uiso   1.00
H83    H     0.00352   0.38434   0.43952   0.00000  Uiso   1.00
O84    O     0.23534   0.90089   0.24306   0.00000  Uiso   1.00
O85    O     0.24431   0.85865   0.51590   0.00000  Uiso   1.00
O86    O     0.97720   0.33226   0.62743   0.00000  Uiso   1.00
N87    N     0.21969   0.00995   0.38598   0.00000  Uiso   1.00
N88    N     0.22609   0.69246   0.58040   0.00000  Uiso   1.00
N89    N     0.03575   0.31739   0.65989   0.00000  Uiso   1.00
N90    N     0.20322   0.05791   0.22606   0.00000  Uiso   1.00
N91    N     0.20962   0.74042   0.42048   0.00000  Uiso   1.00
N92    N     0.01927   0.36535   0.49997   0.00000  Uiso   1.00
C93    C     0.66196   0.16435   0.44385   0.00000  Uiso   1.00
C94    C     0.67384   0.24240   0.52983   0.00000  Uiso   1.00
C95    C     0.69301   0.33473   0.51304   0.00000  Uiso   1.00
C96    C     0.70130   0.39542   0.60212   0.00000  Uiso   1.00
C97    C     0.72136   0.52125   0.72009   0.00000  Uiso   1.00
C98    C     0.67561   0.05430   0.47625   0.00000  Uiso   1.00
C99    C     0.69626   0.98848   0.41440   0.00000  Uiso   1.00
C100   C     0.70603   0.89082   0.45839   0.00000  Uiso   1.00
C101   C     0.72883   0.72458   0.49314   0.00000  Uiso   1.00
C102   C     0.62315   0.15769   0.45435   0.00000  Uiso   1.00
C103   C     0.59969   0.17876   0.37408   0.00000  Uiso   1.00
C104   C     0.56530   0.16812   0.39962   0.00000  Uiso   1.00
C105   C     0.50664   0.16241   0.40037   0.00000  Uiso   1.00
C106   C     0.64258   0.10794   0.63191   0.00000  Uiso   1.00
C107   C     0.66332   0.21175   0.63197   0.00000  Uiso   1.00
C108   C     0.67157   0.27232   0.72111   0.00000  Uiso   1.00
C109   C     0.69075   0.36473   0.70445   0.00000  Uiso   1.00
C110   C     0.66509   0.02366   0.57839   0.00000  Uiso   1.00
C111   C     0.67483   0.92607   0.62247   0.00000  Uiso   1.00
C112   C     0.69549   0.86012   0.56072   0.00000  Uiso   1.00
C113   C     0.61263   0.12705   0.55650   0.00000  Uiso   1.00
C114   C     0.57826   0.11636   0.58216   0.00000  Uiso   1.00
C115   C     0.55476   0.13743   0.50195   0.00000  Uiso   1.00
H116   H     0.67015   0.18820   0.36432   0.00000  Uiso   1.00
H117   H     0.70115   0.35841   0.43397   0.00000  Uiso   1.00
H118   H     0.70440   0.01221   0.33536   0.00000  Uiso   1.00
H119   H     0.60785   0.20247   0.29505   0.00000  Uiso   1.00
H120   H     0.73089   0.53359   0.55625   0.00000  Uiso   1.00
H121   H     0.73773   0.80358   0.34829   0.00000  Uiso   1.00
H122   H     0.53413   0.20479   0.26328   0.00000  Uiso   1.00
H123   H     0.63439   0.08408   0.71144   0.00000  Uiso   1.00
H124   H     0.66343   0.24859   0.80014   0.00000  Uiso   1.00
H125   H     0.66668   0.90238   0.70152   0.00000  Uiso   1.00
H126   H     0.57013   0.09265   0.66121   0.00000  Uiso   1.00
H127   H     0.70028   0.44446   0.85345   0.00000  Uiso   1.00
H128   H     0.70712   0.71444   0.64548   0.00000  Uiso   1.00
H129   H     0.50352   0.11566   0.56048   0.00000  Uiso   1.00
O130   O     0.73534   0.59911   0.75694   0.00000  Uiso   1.00
O131   O     0.74431   0.64135   0.48410   0.00000  Uiso   1.00
O132   O     0.47720   0.16774   0.37257   0.00000  Uiso   1.00
N133   N     0.71969   0.49005   0.61402   0.00000  Uiso   1.00
N134   N     0.72609   0.80754   0.41960   0.00000  Uiso   1.00
N135   N     0.53575   0.18261   0.34011   0.00000  Uiso   1.00
N136   N     0.70322   0.44209   0.77394   0.00000  Uiso   1.00
N137   N     0.70962   0.75958   0.57952   0.00000  Uiso   1.00
N138   N     0.51927   0.13465   0.50003   0.00000  Uiso   1.00
C139   C     0.83804   0.33565   0.94385   0.00000  Uiso   1.00
C140   C     0.82616   0.25760   0.02983   0.00000  Uiso   1.00
C141   C     0.80699   0.16527   0.01304   0.00000  Uiso   1.00
C142   C     0.79870   0.10458   0.10212   0.00000  Uiso   1.00
C143   C     0.77864   0.97875   0.22009   0.00000  Uiso   1.00
C144   C     0.82439   0.44570   0.97625   0.00000  Uiso   1.00
C145   C     0.80374   0.51152   0.91440   0.00000  Uiso   1.00
C146   C     0.79397   0.60918   0.95839   0.00000  Uiso   1.00
C147   C     0.77117   0.77542   0.99314   0.00000  Uiso   1.00
C148   C     0.87685   0.34231   0.95435   0.00000  Uiso   1.00
C149   C     0.90031   0.32124   0.87408   0.00000  Uiso   1.00
C150   C     0.93470   0.33188   0.89962   0.00000  Uiso   1.00
C151   C     0.99336   0.33759   0.90037   0.00000  Uiso   1.00
C152   C     0.85742   0.39206   0.13191   0.00000  Uiso   1.00
C153   C     0.83668   0.28825   0.13197   0.00000  Uiso   1.00
C154   C     0.82843   0.22768   0.22111   0.00000  Uiso   1.00
C155   C     0.80925   0.13527   0.20445   0.00000  Uiso   1.00
C156   C     0.83491   0.47634   0.07839   0.00000  Uiso   1.00
C157   C     0.82517   0.57393   0.12247   0.00000  Uiso   1.00
C158   C     0.80451   0.63988   0.06072   0.00000  Uiso   1.00
C159   C     0.88737   0.37295   0.05650   0.00000  Uiso   1.00
C160   C     0.92174   0.38364   0.08216   0.00000  Uiso   1.00
C161   C     0.94524   0.36257   0.00195   0.00000  Uiso   1.00
H162   H     0.82985   0.31180   0.86432   0.00000  Uiso   1.00
H163   H     0.79885   0.14159   0.93397   0.00000  Uiso   1.00
H164   H     0.79560   0.48779   0.83536   0.00000  Uiso   1.00
H165   H     0.89215   0.29753   0.79505   0.00000  Uiso   1.00
H166   H     0.76911   0.96641   0.05625   0.00000  Uiso   1.00
H167   H     0.76227   0.69642   0.84829   0.00000  Uiso   1.00
H168   H     0.96587   0.29521   0.76328   0.00000  Uiso   1.00
H169   H     0.86561   0.41592   0.21144   0.00000  Uiso   1.00
H170   H     0.83657   0.25141   0.30014   0.00000  Uiso   1.00
H171   H     0.83332   0.59762   0.20152   0.00000  Uiso   1.00
H172   H     0.92987   0.40735   0.16121   0.00000  Uiso   1.00
H173   H     0.79972   0.05554   0.35345   0.00000  Uiso   1.00
H174   H     0.79288   0.78556   0.14548   0.00000  Uiso   1.00
H175   H     0.99648   0.38434   0.06048   0.00000  Uiso   1.00
O176   O     0.76466   0.90089   0.25694   0.00000  Uiso   1.00
O177   O     0.75569   0.85865   0.98410   0.00000  Uiso   1.00
O178   O     0.02280   0.33226   0.87257   0.00000  Uiso   1.00
N179   N     0.78031   0.00995   0.11402   0.00000  Uiso   1.00
N180   N     0.77391   0.69246   0.91960   0.00000  Uiso   1.00
N181   N     0.96425   0.31739   0.84011   0.00000  Uiso   1.00
N182   N     0.79678   0.05791   0.27394   0.00000  Uiso   1.00
N183   N     0.79038   0.74042   0.07952   0.00000  Uiso   1.00
N184   N     0.98073   0.36535   0.00003   0.00000  Uiso   1.00
C185   C     0.66196   0.83565   0.94385   0.00000  Uiso   1.00
C186   C     0.67384   0.75760   0.02983   0.00000  Uiso   1.00
C187   C     0.69301   0.66527   0.01304   0.00000  Uiso   1.00
C188   C     0.70130   0.60458   0.10212   0.00000  Uiso   1.00
C189   C     0.72136   0.47875   0.22009   0.00000  Uiso   1.00
C190   C     0.67561   0.94570   0.97625   0.00000  Uiso   1.00
C191   C     0.69626   0.01152   0.91440   0.00000  Uiso   1.00
C192   C     0.70603   0.10918   0.95839   0.00000  Uiso   1.00
C193   C     0.72883   0.27542   0.99314   0.00000  Uiso   1.00
C194   C     0.62315   0.84231   0.95435   0.00000  Uiso   1.00
C195   C     0.59969   0.82124   0.87408   0.00000  Uiso   1.00
C196   C     0.56530   0.83188   0.89962   0.00000  Uiso   1.00
C197   C     0.50664   0.83759   0.90037   0.00000  Uiso   1.00
C198   C     0.64258   0.89206   0.13191   0.00000  Uiso   1.00
C199   C     0.66332   0.78825   0.13197   0.00000  Uiso   1.00
C200   C     0.67157   0.72768   0.22111   0.00000  Uiso   1.00
C201   C     0.69075   0.63527   0.20445   0.00000  Uiso   1.00
C202   C     0.66509   0.97634   0.07839   0.00000  Uiso   1.00
C203   C     0.67483   0.07393   0.12247   0.00000  Uiso   1.00
C204   C     0.69549   0.13988   0.06072   0.00000  Uiso   1.00
C205   C     0.61263   0.87295   0.05650   0.00000  Uiso   1.00
C206   C     0.57826   0.88364   0.08216   0.00000  Uiso   1.00
C207   C     0.55476   0.86257   0.00195   0.00000  Uiso   1.00
H208   H     0.67015   0.81180   0.86432   0.00000  Uiso   1.00
H209   H     0.70115   0.64159   0.93397   0.00000  Uiso   1.00
H210   H     0.70440   0.98779   0.83536   0.00000  Uiso   1.00
H211   H     0.60785   0.79753   0.79505   0.00000  Uiso   1.00
H212   H     0.73089   0.46641   0.05625   0.00000  Uiso   1.00
H213   H     0.73773   0.19642   0.84829   0.00000  Uiso   1.00
H214   H     0.53413   0.79521   0.76328   0.00000  Uiso   1.00
H215   H     0.63439   0.91592   0.21144   0.00000  Uiso   1.00
H216   H     0.66343   0.75141   0.30014   0.00000  Uiso   1.00
H217   H     0.66668   0.09762   0.20152   0.00000  Uiso   1.00
H218   H     0.57013   0.90735   0.16121   0.00000  Uiso   1.00
H219   H     0.70028   0.55554   0.35345   0.00000  Uiso   1.00
H220   H     0.70712   0.28556   0.14548   0.00000  Uiso   1.00
H221   H     0.50352   0.88434   0.06048   0.00000  Uiso   1.00
O222   O     0.73534   0.40089   0.25694   0.00000  Uiso   1.00
O223   O     0.74431   0.35865   0.98410   0.00000  Uiso   1.00
O224   O     0.47720   0.83226   0.87257   0.00000  Uiso   1.00
N225   N     0.71969   0.50995   0.11402   0.00000  Uiso   1.00
N226   N     0.72609   0.19246   0.91960   0.00000  Uiso   1.00
N227   N     0.53575   0.81739   0.84011   0.00000  Uiso   1.00
N228   N     0.70322   0.55791   0.27394   0.00000  Uiso   1.00
N229   N     0.70962   0.24042   0.07952   0.00000  Uiso   1.00
N230   N     0.51927   0.86535   0.00003   0.00000  Uiso   1.00
C231   C     0.83804   0.66435   0.44385   0.00000  Uiso   1.00
C232   C     0.82616   0.74240   0.52983   0.00000  Uiso   1.00
C233   C     0.80699   0.83473   0.51304   0.00000  Uiso   1.00
C234   C     0.79870   0.89542   0.60212   0.00000  Uiso   1.00
C235   C     0.77864   0.02125   0.72009   0.00000  Uiso   1.00
C236   C     0.82439   0.55430   0.47625   0.00000  Uiso   1.00
C237   C     0.80374   0.48848   0.41440   0.00000  Uiso   1.00
C238   C     0.79397   0.39082   0.45839   0.00000  Uiso   1.00
C239   C     0.77117   0.22458   0.49314   0.00000  Uiso   1.00
C240   C     0.87685   0.65769   0.45435   0.00000  Uiso   1.00
C241   C     0.90031   0.67876   0.37408   0.00000  Uiso   1.00
C242   C     0.93470   0.66812   0.39962   0.00000  Uiso   1.00
C243   C     0.99336   0.66241   0.40037   0.00000  Uiso   1.00
C244   C     0.85742   0.60794   0.63191   0.00000  Uiso   1.00
C245   C     0.83668   0.71175   0.63197   0.00000  Uiso   1.00
C246   C     0.82843   0.77232   0.72111   0.00000  Uiso   1.00
C247   C     0.80925   0.86473   0.70445   0.00000  Uiso   1.00
C248   C     0.83491   0.52366   0.57839   0.00000  Uiso   1.00
C249   C     0.82517   0.42607   0.62247   0.00000  Uiso   1.00
C250   C     0.80451   0.36012   0.56072   0.00000  Uiso   1.00
C251   C     0.88737   0.62705   0.55650   0.00000  Uiso   1.00
C252   C     0.92174   0.61636   0.58216   0.00000  Uiso   1.00
C253   C     0.94524   0.63743   0.50195   0.00000  Uiso   1.00
H254   H     0.82985   0.68820   0.36432   0.00000  Uiso   1.00
H255   H     0.79885   0.85841   0.43397   0.00000  Uiso   1.00
H256   H     0.79560   0.51221   0.33536   0.00000  Uiso   1.00
H257   H     0.89215   0.70247   0.29505   0.00000  Uiso   1.00
H258   H     0.76911   0.03359   0.55625   0.00000  Uiso   1.00
H259   H     0.76227   0.30358   0.34829   0.00000  Uiso   1.00
H260   H     0.96587   0.70479   0.26328   0.00000  Uiso   1.00
H261   H     0.86561   0.58408   0.71144   0.00000  Uiso   1.00
H262   H     0.83657   0.74859   0.80014   0.00000  Uiso   1.00
H263   H     0.83332   0.40238   0.70152   0.00000  Uiso   1.00
H264   H     0.92987   0.59265   0.66121   0.00000  Uiso   1.00
H265   H     0.79972   0.94446   0.85345   0.00000  Uiso   1.00
H266   H     0.79288   0.21444   0.64548   0.00000  Uiso   1.00
H267   H     0.99648   0.61566   0.56048   0.00000  Uiso   1.00
O268   O     0.76466   0.09911   0.75694   0.00000  Uiso   1.00
O269   O     0.75569   0.14135   0.48410   0.00000  Uiso   1.00
O270   O     0.02280   0.66774   0.37257   0.00000  Uiso   1.00
N271   N     0.78031   0.99005   0.61402   0.00000  Uiso   1.00
N272   N     0.77391   0.30754   0.41960   0.00000  Uiso   1.00
N273   N     0.96425   0.68261   0.34011   0.00000  Uiso   1.00
N274   N     0.79678   0.94209   0.77394   0.00000  Uiso   1.00
N275   N     0.79038   0.25958   0.57952   0.00000  Uiso   1.00
N276   N     0.98073   0.63465   0.50003   0.00000  Uiso   1.00
C277   C     0.33804   0.83565   0.55615   0.00000  Uiso   1.00
C278   C     0.32616   0.75760   0.47017   0.00000  Uiso   1.00
C279   C     0.30699   0.66527   0.48696   0.00000  Uiso   1.00
C280   C     0.29870   0.60458   0.39788   0.00000  Uiso   1.00
C281   C     0.27864   0.47875   0.27991   0.00000  Uiso   1.00
C282   C     0.32439   0.94570   0.52375   0.00000  Uiso   1.00
C283   C     0.30374   0.01152   0.58560   0.00000  Uiso   1.00
C284   C     0.29397   0.10918   0.54161   0.00000  Uiso   1.00
C285   C     0.27117   0.27542   0.50686   0.00000  Uiso   1.00
C286   C     0.37685   0.84231   0.54565   0.00000  Uiso   1.00
C287   C     0.40031   0.82124   0.62592   0.00000  Uiso   1.00
C288   C     0.43470   0.83188   0.60038   0.00000  Uiso   1.00
C289   C     0.49336   0.83759   0.59963   0.00000  Uiso   1.00
C290   C     0.35742   0.89206   0.36809   0.00000  Uiso   1.00
C291   C     0.33668   0.78825   0.36803   0.00000  Uiso   1.00
C292   C     0.32843   0.72768   0.27889   0.00000  Uiso   1.00
C293   C     0.30925   0.63527   0.29555   0.00000  Uiso   1.00
C294   C     0.33491   0.97634   0.42161   0.00000  Uiso   1.00
C295   C     0.32517   0.07393   0.37753   0.00000  Uiso   1.00
C296   C     0.30451   0.13988   0.43928   0.00000  Uiso   1.00
C297   C     0.38737   0.87295   0.44350   0.00000  Uiso   1.00
C298   C     0.42174   0.88364   0.41784   0.00000  Uiso   1.00
C299   C     0.44524   0.86257   0.49805   0.00000  Uiso   1.00
H300   H     0.32985   0.81180   0.63568   0.00000  Uiso   1.00
H301   H     0.29885   0.64159   0.56603   0.00000  Uiso   1.00
H302   H     0.29560   0.98779   0.66464   0.00000  Uiso   1.00
H303   H     0.39215   0.79753   0.70495   0.00000  Uiso   1.00
H304   H     0.26911   0.46641   0.44375   0.00000  Uiso   1.00
H305   H     0.26227   0.19642   0.65171   0.00000  Uiso   1.00
H306   H     0.46587   0.79521   0.73672   0.00000  Uiso   1.00
H307   H     0.36561   0.91592   0.28856   0.00000  Uiso   1.00
H308   H     0.33657   0.75141   0.19986   0.00000  Uiso   1.00
H309   H     0.33332   0.09762   0.29848   0.00000  Uiso   1.00
H310   H     0.42987   0.90735   0.33879   0.00000  Uiso   1.00
H311   H     0.29972   0.55554   0.14655   0.00000  Uiso   1.00
H312   H     0.29288   0.28556   0.35452   0.00000  Uiso   1.00
H313   H     0.49648   0.88434   0.43952   0.00000  Uiso   1.00
O314   O     0.26466   0.40089   0.24306   0.00000  Uiso   1.00
O315   O     0.25569   0.35865   0.51590   0.00000  Uiso   1.00
O316   O     0.52280   0.83226   0.62743   0.00000  Uiso   1.00
N317   N     0.28031   0.50995   0.38598   0.00000  Uiso   1.00
N318   N     0.27391   0.19246   0.58040   0.00000  Uiso   1.00
N319   N     0.46425   0.81739   0.65989   0.00000  Uiso   1.00
N320   N     0.29678   0.55791   0.22606   0.00000  Uiso   1.00
N321   N     0.29038   0.24042   0.42048   0.00000  Uiso   1.00
N322   N     0.48073   0.86535   0.49997   0.00000  Uiso   1.00
C323   C     0.16196   0.66435   0.05615   0.00000  Uiso   1.00
C324   C     0.17384   0.74240   0.97017   0.00000  Uiso   1.00
C325   C     0.19301   0.83473   0.98696   0.00000  Uiso   1.00
C326   C     0.20130   0.89542   0.89788   0.00000  Uiso   1.00
C327   C     0.22136   0.02125   0.77991   0.00000  Uiso   1.00
C328   C     0.17561   0.55430   0.02375   0.00000  Uiso   1.00
C329   C     0.19626   0.48848   0.08560   0.00000  Uiso   1.00
C330   C     0.20603   0.39082   0.04161   0.00000  Uiso   1.00
C331   C     0.22883   0.22458   0.00686   0.00000  Uiso   1.00
C332   C     0.12315   0.65769   0.04565   0.00000  Uiso   1.00
C333   C     0.09969   0.67876   0.12592   0.00000  Uiso   1.00
C334   C     0.06530   0.66812   0.10038   0.00000  Uiso   1.00
C335   C     0.00664   0.66241   0.09963   0.00000  Uiso   1.00
C336   C     0.14258   0.60794   0.86809   0.00000  Uiso   1.00
C337   C     0.16332   0.71175   0.86803   0.00000  Uiso   1.00
C338   C     0.17157   0.77232   0.77889   0.00000  Uiso   1.00
C339   C     0.19075   0.86473   0.79555   0.00000  Uiso   1.00
C340   C     0.16509   0.52366   0.92161   0.00000  Uiso   1.00
C341   C     0.17483   0.42607   0.87753   0.00000  Uiso   1.00
C342   C     0.19549   0.36012   0.93928   0.00000  Uiso   1.00
C343   C     0.11263   0.62705   0.94350   0.00000  Uiso   1.00
C344   C     0.07826   0.61636   0.91784   0.00000  Uiso   1.00
C345   C     0.05476   0.63743   0.99805   0.00000  Uiso   1.00
H346   H     0.17015   0.68820   0.13568   0.00000  Uiso   1.00
H347   H     0.20115   0.85841   0.06603   0.00000  Uiso   1.00
H348   H     0.20440   0.51221   0.16464   0.00000  Uiso   1.00
H349   H     0.10785   0.70247   0.20495   0.00000  Uiso   1.00
H350   H     0.23089   0.03359   0.94375   0.00000  Uiso   1.00
H351   H     0.23773   0.30358   0.15171   0.00000  Uiso   1.00
H352   H     0.03413   0.70479   0.23672   0.00000  Uiso   1.00
H353   H     0.13439   0.58408   0.78856   0.00000  Uiso   1.00
H354   H     0.16343   0.74859   0.69986   0.00000  Uiso   1.00
H355   H     0.16668   0.40238   0.79848   0.00000  Uiso   1.00
H356   H     0.07013   0.59265   0.83879   0.00000  Uiso   1.00
H357   H     0.20028   0.94446   0.64655   0.00000  Uiso   1.00
H358   H     0.20712   0.21444   0.85452   0.00000  Uiso   1.00
H359   H     0.00352   0.61566   0.93952   0.00000  Uiso   1.00
O360   O     0.23534   0.09911   0.74306   0.00000  Uiso   1.00
O361   O     0.24431   0.14135   0.01590   0.00000  Uiso   1.00
O362   O     0.97720   0.66774   0.12743   0.00000  Uiso   1.00
N363   N     0.21969   0.99005   0.88598   0.00000  Uiso   1.00
N364   N     0.22609   0.30754   0.08040   0.00000  Uiso   1.00
N365   N     0.03575   0.68261   0.15989   0.00000  Uiso   1.00
N366   N     0.20322   0.94209   0.72606   0.00000  Uiso   1.00
N367   N     0.20962   0.25958   0.92048   0.00000  Uiso   1.00
N368   N     0.01927   0.63465   0.99997   0.00000  Uiso   1.00
