data_job_02992
_audit_creation_date              2018-12-19
_audit_creation_method            'Materials Studio'
_symmetry_space_group_name_H-M    'P1'
_symmetry_Int_Tables_number       1
_symmetry_cell_setting            triclinic
loop_
_symmetry_equiv_pos_as_xyz
  x,y,z
_cell_length_a                    23.2550
_cell_length_b                    12.9840
_cell_length_c                    9.7128
_cell_angle_alpha                 90.0000
_cell_angle_beta                  90.0000
_cell_angle_gamma                 90.0000
loop_
_atom_site_label
_atom_site_type_symbol
_atom_site_fract_x
_atom_site_fract_y
_atom_site_fract_z
_atom_site_U_iso_or_equiv
_atom_site_adp_type
_atom_site_occupancy
C1     C     0.17722   0.35642   0.94213   0.00000  Uiso   1.00
C2     C     0.17657   0.27012   0.04861   0.00000  Uiso   1.00
C3     C     0.17663   0.28309   0.19043   0.00000  Uiso   1.00
C4     C     0.17598   0.19440   0.27027   0.00000  Uiso   1.00
C5     C     0.17510   0.07532   0.44473   0.00000  Uiso   1.00
C6     C     0.22950   0.33649   0.85115   0.00000  Uiso   1.00
C7     C     0.27405   0.40526   0.82694   0.00000  Uiso   1.00
C8     C     0.31794   0.37244   0.74055   0.00000  Uiso   1.00
C9     C     0.39921   0.35642   0.60837   0.00000  Uiso   1.00
C10    C     0.12474   0.33892   0.85096   0.00000  Uiso   1.00
C11    C     0.08123   0.40975   0.82655   0.00000  Uiso   1.00
C12    C     0.03693   0.37898   0.73997   0.00000  Uiso   1.00
C13    C     0.95555   0.36673   0.60750   0.00000  Uiso   1.00
C14    C     0.17596   0.17585   0.83171   0.00000  Uiso   1.00
C15    C     0.17588   0.17204   0.98863   0.00000  Uiso   1.00
C16    C     0.17523   0.08331   0.06828   0.00000  Uiso   1.00
C17    C     0.17528   0.09615   0.21019   0.00000  Uiso   1.00
C18    C     0.22881   0.23841   0.79118   0.00000  Uiso   1.00
C19    C     0.27264   0.20548   0.70479   0.00000  Uiso   1.00
C20    C     0.31725   0.27419   0.68047   0.00000  Uiso   1.00
C21    C     0.12405   0.24084   0.79099   0.00000  Uiso   1.00
C22    C     0.07982   0.20996   0.70441   0.00000  Uiso   1.00
C23    C     0.03624   0.28072   0.67989   0.00000  Uiso   1.00
H24    H     0.17776   0.43278   0.98881   0.00000  Uiso   1.00
H25    H     0.17717   0.35901   0.23680   0.00000  Uiso   1.00
H26    H     0.27457   0.48116   0.87336   0.00000  Uiso   1.00
H27    H     0.08177   0.48564   0.87298   0.00000  Uiso   1.00
H28    H     0.17623   0.23396   0.48530   0.00000  Uiso   1.00
H29    H     0.38159   0.49154   0.71893   0.00000  Uiso   1.00
H30    H     0.97504   0.50098   0.71812   0.00000  Uiso   1.00
H31    H     0.17542   0.09949   0.78502   0.00000  Uiso   1.00
H32    H     0.17469   0.00742   0.02184   0.00000  Uiso   1.00
H33    H     0.27209   0.12958   0.65839   0.00000  Uiso   1.00
H34    H     0.07930   0.13406   0.65802   0.00000  Uiso   1.00
H35    H     0.17422   0.94860   0.31083   0.00000  Uiso   1.00
H36    H     0.37958   0.20619   0.54445   0.00000  Uiso   1.00
H37    H     0.97304   0.21563   0.54365   0.00000  Uiso   1.00
O38    O     0.17481   0.03673   0.55752   0.00000  Uiso   1.00
O39    O     0.44423   0.37467   0.55205   0.00000  Uiso   1.00
O40    O     0.91085   0.38706   0.55101   0.00000  Uiso   1.00
N41    N     0.17584   0.17943   0.41174   0.00000  Uiso   1.00
N42    N     0.36785   0.42025   0.69524   0.00000  Uiso   1.00
N43    N     0.98777   0.42909   0.69446   0.00000  Uiso   1.00
N44    N     0.17476   0.02589   0.31785   0.00000  Uiso   1.00
N45    N     0.36677   0.26670   0.60136   0.00000  Uiso   1.00
N46    N     0.98669   0.27554   0.60058   0.00000  Uiso   1.00
C47    C     0.32278   0.64358   0.44213   0.00000  Uiso   1.00
C48    C     0.32343   0.72988   0.54861   0.00000  Uiso   1.00
C49    C     0.32337   0.71691   0.69043   0.00000  Uiso   1.00
C50    C     0.32402   0.80560   0.77027   0.00000  Uiso   1.00
C51    C     0.32490   0.92468   0.94473   0.00000  Uiso   1.00
C52    C     0.27050   0.66351   0.35115   0.00000  Uiso   1.00
C53    C     0.22595   0.59474   0.32694   0.00000  Uiso   1.00
C54    C     0.18206   0.62756   0.24055   0.00000  Uiso   1.00
C55    C     0.10079   0.64358   0.10837   0.00000  Uiso   1.00
C56    C     0.37526   0.66108   0.35096   0.00000  Uiso   1.00
C57    C     0.41877   0.59025   0.32655   0.00000  Uiso   1.00
C58    C     0.46307   0.62102   0.23997   0.00000  Uiso   1.00
C59    C     0.54445   0.63327   0.10750   0.00000  Uiso   1.00
C60    C     0.32404   0.82415   0.33171   0.00000  Uiso   1.00
C61    C     0.32412   0.82796   0.48863   0.00000  Uiso   1.00
C62    C     0.32477   0.91669   0.56828   0.00000  Uiso   1.00
C63    C     0.32472   0.90385   0.71019   0.00000  Uiso   1.00
C64    C     0.27119   0.76159   0.29118   0.00000  Uiso   1.00
C65    C     0.22736   0.79452   0.20479   0.00000  Uiso   1.00
C66    C     0.18275   0.72581   0.18047   0.00000  Uiso   1.00
C67    C     0.37595   0.75916   0.29099   0.00000  Uiso   1.00
C68    C     0.42018   0.79004   0.20441   0.00000  Uiso   1.00
C69    C     0.46376   0.71928   0.17989   0.00000  Uiso   1.00
H70    H     0.32224   0.56722   0.48881   0.00000  Uiso   1.00
H71    H     0.32283   0.64099   0.73680   0.00000  Uiso   1.00
H72    H     0.22543   0.51884   0.37336   0.00000  Uiso   1.00
H73    H     0.41823   0.51436   0.37298   0.00000  Uiso   1.00
H74    H     0.32377   0.76604   0.98530   0.00000  Uiso   1.00
H75    H     0.11841   0.50846   0.21893   0.00000  Uiso   1.00
H76    H     0.52496   0.49902   0.21812   0.00000  Uiso   1.00
H77    H     0.32458   0.90051   0.28502   0.00000  Uiso   1.00
H78    H     0.32531   0.99258   0.52184   0.00000  Uiso   1.00
H79    H     0.22791   0.87042   0.15839   0.00000  Uiso   1.00
H80    H     0.42070   0.86594   0.15802   0.00000  Uiso   1.00
H81    H     0.32578   0.05140   0.81083   0.00000  Uiso   1.00
H82    H     0.12042   0.79381   0.04445   0.00000  Uiso   1.00
H83    H     0.52696   0.78437   0.04365   0.00000  Uiso   1.00
O84    O     0.32519   0.96327   0.05752   0.00000  Uiso   1.00
O85    O     0.05577   0.62533   0.05205   0.00000  Uiso   1.00
O86    O     0.58915   0.61294   0.05101   0.00000  Uiso   1.00
N87    N     0.32416   0.82057   0.91174   0.00000  Uiso   1.00
N88    N     0.13215   0.57975   0.19524   0.00000  Uiso   1.00
N89    N     0.51223   0.57091   0.19446   0.00000  Uiso   1.00
N90    N     0.32524   0.97411   0.81785   0.00000  Uiso   1.00
N91    N     0.13323   0.73330   0.10136   0.00000  Uiso   1.00
N92    N     0.51331   0.72446   0.10058   0.00000  Uiso   1.00
C93    C     0.82278   0.85642   0.55787   0.00000  Uiso   1.00
C94    C     0.82343   0.77012   0.45139   0.00000  Uiso   1.00
C95    C     0.82337   0.78309   0.30957   0.00000  Uiso   1.00
C96    C     0.82402   0.69440   0.22973   0.00000  Uiso   1.00
C97    C     0.82490   0.57532   0.05527   0.00000  Uiso   1.00
C98    C     0.77050   0.83649   0.64885   0.00000  Uiso   1.00
C99    C     0.72595   0.90526   0.67306   0.00000  Uiso   1.00
C100   C     0.68206   0.87244   0.75945   0.00000  Uiso   1.00
C101   C     0.60079   0.85642   0.89163   0.00000  Uiso   1.00
C102   C     0.87526   0.83892   0.64904   0.00000  Uiso   1.00
C103   C     0.91877   0.90975   0.67345   0.00000  Uiso   1.00
C104   C     0.96307   0.87898   0.76003   0.00000  Uiso   1.00
C105   C     0.04445   0.86673   0.89250   0.00000  Uiso   1.00
C106   C     0.82404   0.67585   0.66829   0.00000  Uiso   1.00
C107   C     0.82412   0.67204   0.51137   0.00000  Uiso   1.00
C108   C     0.82477   0.58331   0.43172   0.00000  Uiso   1.00
C109   C     0.82472   0.59615   0.28981   0.00000  Uiso   1.00
C110   C     0.77119   0.73841   0.70882   0.00000  Uiso   1.00
C111   C     0.72736   0.70548   0.79521   0.00000  Uiso   1.00
C112   C     0.68275   0.77419   0.81953   0.00000  Uiso   1.00
C113   C     0.87595   0.74084   0.70901   0.00000  Uiso   1.00
C114   C     0.92018   0.70996   0.79559   0.00000  Uiso   1.00
C115   C     0.96376   0.78072   0.82011   0.00000  Uiso   1.00
H116   H     0.82224   0.93278   0.51119   0.00000  Uiso   1.00
H117   H     0.82283   0.85901   0.26320   0.00000  Uiso   1.00
H118   H     0.72543   0.98116   0.62664   0.00000  Uiso   1.00
H119   H     0.91823   0.98564   0.62702   0.00000  Uiso   1.00
H120   H     0.82377   0.73396   0.01470   0.00000  Uiso   1.00
H121   H     0.61841   0.99154   0.78107   0.00000  Uiso   1.00
H122   H     0.02496   0.00098   0.78188   0.00000  Uiso   1.00
H123   H     0.82458   0.59949   0.71498   0.00000  Uiso   1.00
H124   H     0.82531   0.50742   0.47816   0.00000  Uiso   1.00
H125   H     0.72791   0.62958   0.84161   0.00000  Uiso   1.00
H126   H     0.92070   0.63406   0.84198   0.00000  Uiso   1.00
H127   H     0.82578   0.44860   0.18917   0.00000  Uiso   1.00
H128   H     0.62042   0.70619   0.95555   0.00000  Uiso   1.00
H129   H     0.02696   0.71563   0.95635   0.00000  Uiso   1.00
O130   O     0.82519   0.53673   0.94248   0.00000  Uiso   1.00
O131   O     0.55577   0.87467   0.94795   0.00000  Uiso   1.00
O132   O     0.08915   0.88706   0.94899   0.00000  Uiso   1.00
N133   N     0.82416   0.67943   0.08826   0.00000  Uiso   1.00
N134   N     0.63215   0.92025   0.80476   0.00000  Uiso   1.00
N135   N     0.01223   0.92909   0.80554   0.00000  Uiso   1.00
N136   N     0.82524   0.52589   0.18215   0.00000  Uiso   1.00
N137   N     0.63323   0.76670   0.89864   0.00000  Uiso   1.00
N138   N     0.01331   0.77554   0.89942   0.00000  Uiso   1.00
C139   C     0.67722   0.14358   0.05787   0.00000  Uiso   1.00
C140   C     0.67657   0.22988   0.95139   0.00000  Uiso   1.00
C141   C     0.67663   0.21691   0.80957   0.00000  Uiso   1.00
C142   C     0.67598   0.30560   0.72973   0.00000  Uiso   1.00
C143   C     0.67510   0.42468   0.55527   0.00000  Uiso   1.00
C144   C     0.72950   0.16351   0.14885   0.00000  Uiso   1.00
C145   C     0.77405   0.09474   0.17306   0.00000  Uiso   1.00
C146   C     0.81794   0.12756   0.25945   0.00000  Uiso   1.00
C147   C     0.89921   0.14358   0.39163   0.00000  Uiso   1.00
C148   C     0.62474   0.16108   0.14904   0.00000  Uiso   1.00
C149   C     0.58123   0.09025   0.17345   0.00000  Uiso   1.00
C150   C     0.53693   0.12102   0.26003   0.00000  Uiso   1.00
C151   C     0.45555   0.13327   0.39250   0.00000  Uiso   1.00
C152   C     0.67596   0.32415   0.16829   0.00000  Uiso   1.00
C153   C     0.67588   0.32796   0.01137   0.00000  Uiso   1.00
C154   C     0.67523   0.41669   0.93172   0.00000  Uiso   1.00
C155   C     0.67528   0.40385   0.78981   0.00000  Uiso   1.00
C156   C     0.72881   0.26159   0.20882   0.00000  Uiso   1.00
C157   C     0.77264   0.29452   0.29521   0.00000  Uiso   1.00
C158   C     0.81725   0.22581   0.31953   0.00000  Uiso   1.00
C159   C     0.62405   0.25916   0.20901   0.00000  Uiso   1.00
C160   C     0.57982   0.29004   0.29559   0.00000  Uiso   1.00
C161   C     0.53624   0.21928   0.32011   0.00000  Uiso   1.00
H162   H     0.67776   0.06722   0.01119   0.00000  Uiso   1.00
H163   H     0.67717   0.14099   0.76320   0.00000  Uiso   1.00
H164   H     0.77457   0.01884   0.12664   0.00000  Uiso   1.00
H165   H     0.58177   0.01436   0.12702   0.00000  Uiso   1.00
H166   H     0.67623   0.26604   0.51470   0.00000  Uiso   1.00
H167   H     0.88159   0.00846   0.28107   0.00000  Uiso   1.00
H168   H     0.47504   0.99902   0.28188   0.00000  Uiso   1.00
H169   H     0.67542   0.40051   0.21498   0.00000  Uiso   1.00
H170   H     0.67469   0.49258   0.97816   0.00000  Uiso   1.00
H171   H     0.77209   0.37042   0.34161   0.00000  Uiso   1.00
H172   H     0.57930   0.36594   0.34198   0.00000  Uiso   1.00
H173   H     0.67422   0.55140   0.68917   0.00000  Uiso   1.00
H174   H     0.87958   0.29381   0.45555   0.00000  Uiso   1.00
H175   H     0.47304   0.28437   0.45635   0.00000  Uiso   1.00
O176   O     0.67481   0.46327   0.44248   0.00000  Uiso   1.00
O177   O     0.94423   0.12533   0.44795   0.00000  Uiso   1.00
O178   O     0.41085   0.11294   0.44899   0.00000  Uiso   1.00
N179   N     0.67584   0.32057   0.58826   0.00000  Uiso   1.00
N180   N     0.86785   0.07975   0.30476   0.00000  Uiso   1.00
N181   N     0.48777   0.07091   0.30554   0.00000  Uiso   1.00
N182   N     0.67476   0.47411   0.68215   0.00000  Uiso   1.00
N183   N     0.86677   0.23330   0.39864   0.00000  Uiso   1.00
N184   N     0.48669   0.22446   0.39942   0.00000  Uiso   1.00
