data_job_00338
_audit_creation_date              2018-12-19
_audit_creation_method            'Materials Studio'
_symmetry_space_group_name_H-M    'P1'
_symmetry_Int_Tables_number       1
_symmetry_cell_setting            triclinic
loop_
_symmetry_equiv_pos_as_xyz
  x,y,z
_cell_length_a                    13.5870
_cell_length_b                    39.7275
_cell_length_c                    12.2605
_cell_angle_alpha                 90.0000
_cell_angle_beta                  90.0000
_cell_angle_gamma                 90.0000
loop_
_atom_site_label
_atom_site_type_symbol
_atom_site_fract_x
_atom_site_fract_y
_atom_site_fract_z
_atom_site_U_iso_or_equiv
_atom_site_adp_type
_atom_site_occupancy
C1     C     0.79663   0.84857   0.88022   0.00000  Uiso   1.00
C2     C     0.73802   0.82934   0.79439   0.00000  Uiso   1.00
C3     C     0.77292   0.81917   0.69324   0.00000  Uiso   1.00
C4     C     0.70778   0.80186   0.62640   0.00000  Uiso   1.00
C5     C     0.63144   0.77306   0.48806   0.00000  Uiso   1.00
C6     C     0.73776   0.88038   0.90453   0.00000  Uiso   1.00
C7     C     0.77246   0.91313   0.89599   0.00000  Uiso   1.00
C8     C     0.70712   0.93878   0.92189   0.00000  Uiso   1.00
C9     C     0.63040   0.98922   0.95462   0.00000  Uiso   1.00
C10    C     0.79231   0.82731   0.98366   0.00000  Uiso   1.00
C11    C     0.87287   0.81545   0.04169   0.00000  Uiso   1.00
C12    C     0.85345   0.79643   0.13423   0.00000  Uiso   1.00
C13    C     0.86143   0.76448   0.28982   0.00000  Uiso   1.00
C14    C     0.61890   0.83589   0.94141   0.00000  Uiso   1.00
C15    C     0.64148   0.82245   0.82763   0.00000  Uiso   1.00
C16    C     0.57628   0.80515   0.76093   0.00000  Uiso   1.00
C17    C     0.61108   0.79496   0.65970   0.00000  Uiso   1.00
C18    C     0.64123   0.87350   0.93776   0.00000  Uiso   1.00
C19    C     0.57582   0.89911   0.96369   0.00000  Uiso   1.00
C20    C     0.61041   0.93189   0.95519   0.00000  Uiso   1.00
C21    C     0.69578   0.82043   0.01690   0.00000  Uiso   1.00
C22    C     0.67623   0.80143   0.10938   0.00000  Uiso   1.00
C23    C     0.75674   0.78954   0.16752   0.00000  Uiso   1.00
H24    H     0.87179   0.85393   0.85435   0.00000  Uiso   1.00
H25    H     0.84763   0.82451   0.66754   0.00000  Uiso   1.00
H26    H     0.84717   0.91845   0.87028   0.00000  Uiso   1.00
H27    H     0.94756   0.82078   0.01594   0.00000  Uiso   1.00
H28    H     0.77826   0.78886   0.47508   0.00000  Uiso   1.00
H29    H     0.77731   0.98694   0.90260   0.00000  Uiso   1.00
H30    H     0.98900   0.78100   0.20976   0.00000  Uiso   1.00
H31    H     0.54374   0.83053   0.96728   0.00000  Uiso   1.00
H32    H     0.50158   0.79982   0.78667   0.00000  Uiso   1.00
H33    H     0.50113   0.89377   0.98941   0.00000  Uiso   1.00
H34    H     0.60151   0.79610   0.13507   0.00000  Uiso   1.00
H35    H     0.49739   0.76883   0.57176   0.00000  Uiso   1.00
H36    H     0.49644   0.96691   0.99929   0.00000  Uiso   1.00
H37    H     0.70813   0.76096   0.30645   0.00000  Uiso   1.00
O38    O     0.61600   0.75908   0.40256   0.00000  Uiso   1.00
O39    O     0.61476   0.01895   0.96347   0.00000  Uiso   1.00
O40    O     0.89249   0.74875   0.36645   0.00000  Uiso   1.00
N41    N     0.71795   0.78836   0.52263   0.00000  Uiso   1.00
N42    N     0.71706   0.97355   0.92232   0.00000  Uiso   1.00
N43    N     0.91497   0.78101   0.20950   0.00000  Uiso   1.00
N44    N     0.56682   0.77758   0.57466   0.00000  Uiso   1.00
N45    N     0.56592   0.96277   0.97435   0.00000  Uiso   1.00
N46    N     0.76384   0.77023   0.26153   0.00000  Uiso   1.00
C47    C     0.70337   0.15143   0.38022   0.00000  Uiso   1.00
C48    C     0.76198   0.17066   0.29439   0.00000  Uiso   1.00
C49    C     0.72708   0.18083   0.19324   0.00000  Uiso   1.00
C50    C     0.79222   0.19814   0.12640   0.00000  Uiso   1.00
C51    C     0.86856   0.22694   0.98806   0.00000  Uiso   1.00
C52    C     0.76224   0.11962   0.40453   0.00000  Uiso   1.00
C53    C     0.72754   0.08687   0.39599   0.00000  Uiso   1.00
C54    C     0.79288   0.06122   0.42189   0.00000  Uiso   1.00
C55    C     0.86960   0.01078   0.45462   0.00000  Uiso   1.00
C56    C     0.70769   0.17269   0.48366   0.00000  Uiso   1.00
C57    C     0.62713   0.18455   0.54169   0.00000  Uiso   1.00
C58    C     0.64655   0.20357   0.63423   0.00000  Uiso   1.00
C59    C     0.63857   0.23552   0.78982   0.00000  Uiso   1.00
C60    C     0.88110   0.16411   0.44141   0.00000  Uiso   1.00
C61    C     0.85852   0.17755   0.32763   0.00000  Uiso   1.00
C62    C     0.92372   0.19485   0.26093   0.00000  Uiso   1.00
C63    C     0.88892   0.20504   0.15970   0.00000  Uiso   1.00
C64    C     0.85877   0.12650   0.43776   0.00000  Uiso   1.00
C65    C     0.92418   0.10089   0.46369   0.00000  Uiso   1.00
C66    C     0.88959   0.06811   0.45519   0.00000  Uiso   1.00
C67    C     0.80422   0.17957   0.51690   0.00000  Uiso   1.00
C68    C     0.82377   0.19857   0.60938   0.00000  Uiso   1.00
C69    C     0.74326   0.21046   0.66752   0.00000  Uiso   1.00
H70    H     0.62821   0.14607   0.35435   0.00000  Uiso   1.00
H71    H     0.65237   0.17549   0.16754   0.00000  Uiso   1.00
H72    H     0.65283   0.08155   0.37028   0.00000  Uiso   1.00
H73    H     0.55244   0.17922   0.51594   0.00000  Uiso   1.00
H74    H     0.72174   0.21114   0.97508   0.00000  Uiso   1.00
H75    H     0.72269   0.01306   0.40260   0.00000  Uiso   1.00
H76    H     0.51100   0.21900   0.70976   0.00000  Uiso   1.00
H77    H     0.95626   0.16947   0.46728   0.00000  Uiso   1.00
H78    H     0.99842   0.20018   0.28667   0.00000  Uiso   1.00
H79    H     0.99887   0.10623   0.48941   0.00000  Uiso   1.00
H80    H     0.89849   0.20390   0.63507   0.00000  Uiso   1.00
H81    H     0.00261   0.23117   0.07176   0.00000  Uiso   1.00
H82    H     0.00356   0.03309   0.49929   0.00000  Uiso   1.00
H83    H     0.79187   0.23904   0.80645   0.00000  Uiso   1.00
O84    O     0.88400   0.24092   0.90256   0.00000  Uiso   1.00
O85    O     0.88524   0.98105   0.46347   0.00000  Uiso   1.00
O86    O     0.60751   0.25125   0.86645   0.00000  Uiso   1.00
N87    N     0.78205   0.21164   0.02263   0.00000  Uiso   1.00
N88    N     0.78294   0.02645   0.42232   0.00000  Uiso   1.00
N89    N     0.58503   0.21899   0.70950   0.00000  Uiso   1.00
N90    N     0.93318   0.22242   0.07466   0.00000  Uiso   1.00
N91    N     0.93408   0.03723   0.47435   0.00000  Uiso   1.00
N92    N     0.73616   0.22977   0.76153   0.00000  Uiso   1.00
C93    C     0.20337   0.34857   0.61978   0.00000  Uiso   1.00
C94    C     0.26198   0.32934   0.70561   0.00000  Uiso   1.00
C95    C     0.22708   0.31917   0.80676   0.00000  Uiso   1.00
C96    C     0.29222   0.30186   0.87360   0.00000  Uiso   1.00
C97    C     0.36856   0.27306   0.01194   0.00000  Uiso   1.00
C98    C     0.26224   0.38038   0.59547   0.00000  Uiso   1.00
C99    C     0.22754   0.41313   0.60401   0.00000  Uiso   1.00
C100   C     0.29288   0.43878   0.57811   0.00000  Uiso   1.00
C101   C     0.36960   0.48922   0.54538   0.00000  Uiso   1.00
C102   C     0.20769   0.32731   0.51634   0.00000  Uiso   1.00
C103   C     0.12713   0.31545   0.45831   0.00000  Uiso   1.00
C104   C     0.14655   0.29643   0.36577   0.00000  Uiso   1.00
C105   C     0.13857   0.26448   0.21018   0.00000  Uiso   1.00
C106   C     0.38110   0.33589   0.55859   0.00000  Uiso   1.00
C107   C     0.35852   0.32245   0.67237   0.00000  Uiso   1.00
C108   C     0.42372   0.30515   0.73907   0.00000  Uiso   1.00
C109   C     0.38892   0.29496   0.84030   0.00000  Uiso   1.00
C110   C     0.35877   0.37350   0.56224   0.00000  Uiso   1.00
C111   C     0.42418   0.39911   0.53631   0.00000  Uiso   1.00
C112   C     0.38959   0.43189   0.54481   0.00000  Uiso   1.00
C113   C     0.30422   0.32043   0.48310   0.00000  Uiso   1.00
C114   C     0.32377   0.30143   0.39062   0.00000  Uiso   1.00
C115   C     0.24326   0.28954   0.33248   0.00000  Uiso   1.00
H116   H     0.12821   0.35393   0.64565   0.00000  Uiso   1.00
H117   H     0.15237   0.32451   0.83246   0.00000  Uiso   1.00
H118   H     0.15283   0.41845   0.62972   0.00000  Uiso   1.00
H119   H     0.05244   0.32078   0.48406   0.00000  Uiso   1.00
H120   H     0.22174   0.28886   0.02492   0.00000  Uiso   1.00
H121   H     0.22269   0.48694   0.59740   0.00000  Uiso   1.00
H122   H     0.01100   0.28100   0.29024   0.00000  Uiso   1.00
H123   H     0.45626   0.33053   0.53272   0.00000  Uiso   1.00
H124   H     0.49842   0.29982   0.71333   0.00000  Uiso   1.00
H125   H     0.49887   0.39377   0.51059   0.00000  Uiso   1.00
H126   H     0.39849   0.29610   0.36493   0.00000  Uiso   1.00
H127   H     0.50261   0.26883   0.92824   0.00000  Uiso   1.00
H128   H     0.50356   0.46691   0.50071   0.00000  Uiso   1.00
H129   H     0.29187   0.26096   0.19355   0.00000  Uiso   1.00
O130   O     0.38400   0.25908   0.09744   0.00000  Uiso   1.00
O131   O     0.38524   0.51895   0.53653   0.00000  Uiso   1.00
O132   O     0.10751   0.24875   0.13355   0.00000  Uiso   1.00
N133   N     0.28205   0.28836   0.97737   0.00000  Uiso   1.00
N134   N     0.28294   0.47355   0.57768   0.00000  Uiso   1.00
N135   N     0.08503   0.28101   0.29050   0.00000  Uiso   1.00
N136   N     0.43318   0.27758   0.92534   0.00000  Uiso   1.00
N137   N     0.43408   0.46277   0.52565   0.00000  Uiso   1.00
N138   N     0.23616   0.27023   0.23847   0.00000  Uiso   1.00
C139   C     0.29663   0.65143   0.11978   0.00000  Uiso   1.00
C140   C     0.23802   0.67066   0.20561   0.00000  Uiso   1.00
C141   C     0.27292   0.68083   0.30676   0.00000  Uiso   1.00
C142   C     0.20778   0.69814   0.37360   0.00000  Uiso   1.00
C143   C     0.13144   0.72694   0.51194   0.00000  Uiso   1.00
C144   C     0.23776   0.61962   0.09547   0.00000  Uiso   1.00
C145   C     0.27246   0.58687   0.10401   0.00000  Uiso   1.00
C146   C     0.20712   0.56122   0.07811   0.00000  Uiso   1.00
C147   C     0.13040   0.51078   0.04538   0.00000  Uiso   1.00
C148   C     0.29231   0.67269   0.01634   0.00000  Uiso   1.00
C149   C     0.37287   0.68455   0.95831   0.00000  Uiso   1.00
C150   C     0.35345   0.70357   0.86577   0.00000  Uiso   1.00
C151   C     0.36143   0.73552   0.71018   0.00000  Uiso   1.00
C152   C     0.11890   0.66411   0.05859   0.00000  Uiso   1.00
C153   C     0.14148   0.67755   0.17237   0.00000  Uiso   1.00
C154   C     0.07628   0.69485   0.23907   0.00000  Uiso   1.00
C155   C     0.11108   0.70504   0.34030   0.00000  Uiso   1.00
C156   C     0.14123   0.62650   0.06224   0.00000  Uiso   1.00
C157   C     0.07582   0.60089   0.03631   0.00000  Uiso   1.00
C158   C     0.11041   0.56811   0.04481   0.00000  Uiso   1.00
C159   C     0.19578   0.67957   0.98310   0.00000  Uiso   1.00
C160   C     0.17623   0.69857   0.89062   0.00000  Uiso   1.00
C161   C     0.25674   0.71046   0.83248   0.00000  Uiso   1.00
H162   H     0.37179   0.64607   0.14565   0.00000  Uiso   1.00
H163   H     0.34763   0.67549   0.33246   0.00000  Uiso   1.00
H164   H     0.34717   0.58155   0.12972   0.00000  Uiso   1.00
H165   H     0.44756   0.67922   0.98406   0.00000  Uiso   1.00
H166   H     0.27826   0.71114   0.52492   0.00000  Uiso   1.00
H167   H     0.27731   0.51306   0.09740   0.00000  Uiso   1.00
H168   H     0.48900   0.71900   0.79024   0.00000  Uiso   1.00
H169   H     0.04374   0.66947   0.03272   0.00000  Uiso   1.00
H170   H     0.00158   0.70018   0.21333   0.00000  Uiso   1.00
H171   H     0.00113   0.60623   0.01059   0.00000  Uiso   1.00
H172   H     0.10151   0.70390   0.86493   0.00000  Uiso   1.00
H173   H     0.99739   0.73117   0.42824   0.00000  Uiso   1.00
H174   H     0.99644   0.53309   0.00071   0.00000  Uiso   1.00
H175   H     0.20813   0.73904   0.69355   0.00000  Uiso   1.00
O176   O     0.11600   0.74092   0.59744   0.00000  Uiso   1.00
O177   O     0.11476   0.48105   0.03653   0.00000  Uiso   1.00
O178   O     0.39249   0.75125   0.63355   0.00000  Uiso   1.00
N179   N     0.21795   0.71164   0.47737   0.00000  Uiso   1.00
N180   N     0.21706   0.52645   0.07768   0.00000  Uiso   1.00
N181   N     0.41497   0.71899   0.79050   0.00000  Uiso   1.00
N182   N     0.06682   0.72242   0.42534   0.00000  Uiso   1.00
N183   N     0.06592   0.53723   0.02565   0.00000  Uiso   1.00
N184   N     0.26384   0.72977   0.73847   0.00000  Uiso   1.00
C185   C     0.20337   0.15143   0.11978   0.00000  Uiso   1.00
C186   C     0.26198   0.17066   0.20561   0.00000  Uiso   1.00
C187   C     0.22708   0.18083   0.30676   0.00000  Uiso   1.00
C188   C     0.29222   0.19814   0.37360   0.00000  Uiso   1.00
C189   C     0.36856   0.22694   0.51194   0.00000  Uiso   1.00
C190   C     0.26224   0.11962   0.09547   0.00000  Uiso   1.00
C191   C     0.22754   0.08687   0.10401   0.00000  Uiso   1.00
C192   C     0.29288   0.06122   0.07811   0.00000  Uiso   1.00
C193   C     0.36960   0.01078   0.04538   0.00000  Uiso   1.00
C194   C     0.20769   0.17269   0.01634   0.00000  Uiso   1.00
C195   C     0.12713   0.18455   0.95831   0.00000  Uiso   1.00
C196   C     0.14655   0.20357   0.86577   0.00000  Uiso   1.00
C197   C     0.13857   0.23552   0.71018   0.00000  Uiso   1.00
C198   C     0.38110   0.16411   0.05859   0.00000  Uiso   1.00
C199   C     0.35852   0.17755   0.17237   0.00000  Uiso   1.00
C200   C     0.42372   0.19485   0.23907   0.00000  Uiso   1.00
C201   C     0.38892   0.20504   0.34030   0.00000  Uiso   1.00
C202   C     0.35877   0.12650   0.06224   0.00000  Uiso   1.00
C203   C     0.42418   0.10089   0.03631   0.00000  Uiso   1.00
C204   C     0.38959   0.06811   0.04481   0.00000  Uiso   1.00
C205   C     0.30422   0.17957   0.98310   0.00000  Uiso   1.00
C206   C     0.32377   0.19857   0.89062   0.00000  Uiso   1.00
C207   C     0.24326   0.21046   0.83248   0.00000  Uiso   1.00
H208   H     0.12821   0.14607   0.14565   0.00000  Uiso   1.00
H209   H     0.15237   0.17549   0.33246   0.00000  Uiso   1.00
H210   H     0.15283   0.08155   0.12972   0.00000  Uiso   1.00
H211   H     0.05244   0.17922   0.98406   0.00000  Uiso   1.00
H212   H     0.22174   0.21114   0.52492   0.00000  Uiso   1.00
H213   H     0.22269   0.01306   0.09740   0.00000  Uiso   1.00
H214   H     0.01100   0.21900   0.79024   0.00000  Uiso   1.00
H215   H     0.45626   0.16947   0.03272   0.00000  Uiso   1.00
H216   H     0.49842   0.20018   0.21333   0.00000  Uiso   1.00
H217   H     0.49887   0.10623   0.01059   0.00000  Uiso   1.00
H218   H     0.39849   0.20390   0.86493   0.00000  Uiso   1.00
H219   H     0.50261   0.23117   0.42824   0.00000  Uiso   1.00
H220   H     0.50356   0.03309   0.00071   0.00000  Uiso   1.00
H221   H     0.29187   0.23904   0.69355   0.00000  Uiso   1.00
O222   O     0.38400   0.24092   0.59744   0.00000  Uiso   1.00
O223   O     0.38524   0.98105   0.03653   0.00000  Uiso   1.00
O224   O     0.10751   0.25125   0.63355   0.00000  Uiso   1.00
N225   N     0.28205   0.21164   0.47737   0.00000  Uiso   1.00
N226   N     0.28294   0.02645   0.07768   0.00000  Uiso   1.00
N227   N     0.08503   0.21899   0.79050   0.00000  Uiso   1.00
N228   N     0.43318   0.22242   0.42534   0.00000  Uiso   1.00
N229   N     0.43408   0.03723   0.02565   0.00000  Uiso   1.00
N230   N     0.23616   0.22977   0.73847   0.00000  Uiso   1.00
C231   C     0.29663   0.84857   0.61978   0.00000  Uiso   1.00
C232   C     0.23802   0.82934   0.70561   0.00000  Uiso   1.00
C233   C     0.27292   0.81917   0.80676   0.00000  Uiso   1.00
C234   C     0.20778   0.80186   0.87360   0.00000  Uiso   1.00
C235   C     0.13144   0.77306   0.01194   0.00000  Uiso   1.00
C236   C     0.23776   0.88038   0.59547   0.00000  Uiso   1.00
C237   C     0.27246   0.91313   0.60401   0.00000  Uiso   1.00
C238   C     0.20712   0.93878   0.57811   0.00000  Uiso   1.00
C239   C     0.13040   0.98922   0.54538   0.00000  Uiso   1.00
C240   C     0.29231   0.82731   0.51634   0.00000  Uiso   1.00
C241   C     0.37287   0.81545   0.45831   0.00000  Uiso   1.00
C242   C     0.35345   0.79643   0.36577   0.00000  Uiso   1.00
C243   C     0.36143   0.76448   0.21018   0.00000  Uiso   1.00
C244   C     0.11890   0.83589   0.55859   0.00000  Uiso   1.00
C245   C     0.14148   0.82245   0.67237   0.00000  Uiso   1.00
C246   C     0.07628   0.80515   0.73907   0.00000  Uiso   1.00
C247   C     0.11108   0.79496   0.84030   0.00000  Uiso   1.00
C248   C     0.14123   0.87350   0.56224   0.00000  Uiso   1.00
C249   C     0.07582   0.89911   0.53631   0.00000  Uiso   1.00
C250   C     0.11041   0.93189   0.54481   0.00000  Uiso   1.00
C251   C     0.19578   0.82043   0.48310   0.00000  Uiso   1.00
C252   C     0.17623   0.80143   0.39062   0.00000  Uiso   1.00
C253   C     0.25674   0.78954   0.33248   0.00000  Uiso   1.00
H254   H     0.37179   0.85393   0.64565   0.00000  Uiso   1.00
H255   H     0.34763   0.82451   0.83246   0.00000  Uiso   1.00
H256   H     0.34717   0.91845   0.62972   0.00000  Uiso   1.00
H257   H     0.44756   0.82078   0.48406   0.00000  Uiso   1.00
H258   H     0.27826   0.78886   0.02492   0.00000  Uiso   1.00
H259   H     0.27731   0.98694   0.59740   0.00000  Uiso   1.00
H260   H     0.48900   0.78100   0.29024   0.00000  Uiso   1.00
H261   H     0.04374   0.83053   0.53272   0.00000  Uiso   1.00
H262   H     0.00158   0.79982   0.71333   0.00000  Uiso   1.00
H263   H     0.00113   0.89377   0.51059   0.00000  Uiso   1.00
H264   H     0.10151   0.79610   0.36493   0.00000  Uiso   1.00
H265   H     0.99739   0.76883   0.92824   0.00000  Uiso   1.00
H266   H     0.99644   0.96691   0.50071   0.00000  Uiso   1.00
H267   H     0.20813   0.76096   0.19355   0.00000  Uiso   1.00
O268   O     0.11600   0.75908   0.09744   0.00000  Uiso   1.00
O269   O     0.11476   0.01895   0.53653   0.00000  Uiso   1.00
O270   O     0.39249   0.74875   0.13355   0.00000  Uiso   1.00
N271   N     0.21795   0.78836   0.97737   0.00000  Uiso   1.00
N272   N     0.21706   0.97355   0.57768   0.00000  Uiso   1.00
N273   N     0.41497   0.78101   0.29050   0.00000  Uiso   1.00
N274   N     0.06682   0.77758   0.92534   0.00000  Uiso   1.00
N275   N     0.06592   0.96277   0.52565   0.00000  Uiso   1.00
N276   N     0.26384   0.77023   0.23847   0.00000  Uiso   1.00
C277   C     0.79663   0.65143   0.38022   0.00000  Uiso   1.00
C278   C     0.73802   0.67066   0.29439   0.00000  Uiso   1.00
C279   C     0.77292   0.68083   0.19324   0.00000  Uiso   1.00
C280   C     0.70778   0.69814   0.12640   0.00000  Uiso   1.00
C281   C     0.63144   0.72694   0.98806   0.00000  Uiso   1.00
C282   C     0.73776   0.61962   0.40453   0.00000  Uiso   1.00
C283   C     0.77246   0.58687   0.39599   0.00000  Uiso   1.00
C284   C     0.70712   0.56122   0.42189   0.00000  Uiso   1.00
C285   C     0.63040   0.51078   0.45462   0.00000  Uiso   1.00
C286   C     0.79231   0.67269   0.48366   0.00000  Uiso   1.00
C287   C     0.87287   0.68455   0.54169   0.00000  Uiso   1.00
C288   C     0.85345   0.70357   0.63423   0.00000  Uiso   1.00
C289   C     0.86143   0.73552   0.78982   0.00000  Uiso   1.00
C290   C     0.61890   0.66411   0.44141   0.00000  Uiso   1.00
C291   C     0.64148   0.67755   0.32763   0.00000  Uiso   1.00
C292   C     0.57628   0.69485   0.26093   0.00000  Uiso   1.00
C293   C     0.61108   0.70504   0.15970   0.00000  Uiso   1.00
C294   C     0.64123   0.62650   0.43776   0.00000  Uiso   1.00
C295   C     0.57582   0.60089   0.46369   0.00000  Uiso   1.00
C296   C     0.61041   0.56811   0.45519   0.00000  Uiso   1.00
C297   C     0.69578   0.67957   0.51690   0.00000  Uiso   1.00
C298   C     0.67623   0.69857   0.60938   0.00000  Uiso   1.00
C299   C     0.75674   0.71046   0.66752   0.00000  Uiso   1.00
H300   H     0.87179   0.64607   0.35435   0.00000  Uiso   1.00
H301   H     0.84763   0.67549   0.16754   0.00000  Uiso   1.00
H302   H     0.84717   0.58155   0.37028   0.00000  Uiso   1.00
H303   H     0.94756   0.67922   0.51594   0.00000  Uiso   1.00
H304   H     0.77826   0.71114   0.97508   0.00000  Uiso   1.00
H305   H     0.77731   0.51306   0.40260   0.00000  Uiso   1.00
H306   H     0.98900   0.71900   0.70976   0.00000  Uiso   1.00
H307   H     0.54374   0.66947   0.46728   0.00000  Uiso   1.00
H308   H     0.50158   0.70018   0.28667   0.00000  Uiso   1.00
H309   H     0.50113   0.60623   0.48941   0.00000  Uiso   1.00
H310   H     0.60151   0.70390   0.63507   0.00000  Uiso   1.00
H311   H     0.49739   0.73117   0.07176   0.00000  Uiso   1.00
H312   H     0.49644   0.53309   0.49929   0.00000  Uiso   1.00
H313   H     0.70813   0.73904   0.80645   0.00000  Uiso   1.00
O314   O     0.61600   0.74092   0.90256   0.00000  Uiso   1.00
O315   O     0.61476   0.48105   0.46347   0.00000  Uiso   1.00
O316   O     0.89249   0.75125   0.86645   0.00000  Uiso   1.00
N317   N     0.71795   0.71164   0.02263   0.00000  Uiso   1.00
N318   N     0.71706   0.52645   0.42232   0.00000  Uiso   1.00
N319   N     0.91497   0.71899   0.70950   0.00000  Uiso   1.00
N320   N     0.56682   0.72242   0.07466   0.00000  Uiso   1.00
N321   N     0.56592   0.53723   0.47435   0.00000  Uiso   1.00
N322   N     0.76384   0.72977   0.76153   0.00000  Uiso   1.00
C323   C     0.70337   0.34857   0.88022   0.00000  Uiso   1.00
C324   C     0.76198   0.32934   0.79439   0.00000  Uiso   1.00
C325   C     0.72708   0.31917   0.69324   0.00000  Uiso   1.00
C326   C     0.79222   0.30186   0.62640   0.00000  Uiso   1.00
C327   C     0.86856   0.27306   0.48806   0.00000  Uiso   1.00
C328   C     0.76224   0.38038   0.90453   0.00000  Uiso   1.00
C329   C     0.72754   0.41313   0.89599   0.00000  Uiso   1.00
C330   C     0.79288   0.43878   0.92189   0.00000  Uiso   1.00
C331   C     0.86960   0.48922   0.95462   0.00000  Uiso   1.00
C332   C     0.70769   0.32731   0.98366   0.00000  Uiso   1.00
C333   C     0.62713   0.31545   0.04169   0.00000  Uiso   1.00
C334   C     0.64655   0.29643   0.13423   0.00000  Uiso   1.00
C335   C     0.63857   0.26448   0.28982   0.00000  Uiso   1.00
C336   C     0.88110   0.33589   0.94141   0.00000  Uiso   1.00
C337   C     0.85852   0.32245   0.82763   0.00000  Uiso   1.00
C338   C     0.92372   0.30515   0.76093   0.00000  Uiso   1.00
C339   C     0.88892   0.29496   0.65970   0.00000  Uiso   1.00
C340   C     0.85877   0.37350   0.93776   0.00000  Uiso   1.00
C341   C     0.92418   0.39911   0.96369   0.00000  Uiso   1.00
C342   C     0.88959   0.43189   0.95519   0.00000  Uiso   1.00
C343   C     0.80422   0.32043   0.01690   0.00000  Uiso   1.00
C344   C     0.82377   0.30143   0.10938   0.00000  Uiso   1.00
C345   C     0.74326   0.28954   0.16752   0.00000  Uiso   1.00
H346   H     0.62821   0.35393   0.85435   0.00000  Uiso   1.00
H347   H     0.65237   0.32451   0.66754   0.00000  Uiso   1.00
H348   H     0.65283   0.41845   0.87028   0.00000  Uiso   1.00
H349   H     0.55244   0.32078   0.01594   0.00000  Uiso   1.00
H350   H     0.72174   0.28886   0.47508   0.00000  Uiso   1.00
H351   H     0.72269   0.48694   0.90260   0.00000  Uiso   1.00
H352   H     0.51100   0.28100   0.20976   0.00000  Uiso   1.00
H353   H     0.95626   0.33053   0.96728   0.00000  Uiso   1.00
H354   H     0.99842   0.29982   0.78667   0.00000  Uiso   1.00
H355   H     0.99887   0.39377   0.98941   0.00000  Uiso   1.00
H356   H     0.89849   0.29610   0.13507   0.00000  Uiso   1.00
H357   H     0.00261   0.26883   0.57176   0.00000  Uiso   1.00
H358   H     0.00356   0.46691   0.99929   0.00000  Uiso   1.00
H359   H     0.79187   0.26096   0.30645   0.00000  Uiso   1.00
O360   O     0.88400   0.25908   0.40256   0.00000  Uiso   1.00
O361   O     0.88524   0.51895   0.96347   0.00000  Uiso   1.00
O362   O     0.60751   0.24875   0.36645   0.00000  Uiso   1.00
N363   N     0.78205   0.28836   0.52263   0.00000  Uiso   1.00
N364   N     0.78294   0.47355   0.92232   0.00000  Uiso   1.00
N365   N     0.58503   0.28101   0.20950   0.00000  Uiso   1.00
N366   N     0.93318   0.27758   0.57466   0.00000  Uiso   1.00
N367   N     0.93408   0.46277   0.97435   0.00000  Uiso   1.00
N368   N     0.73616   0.27023   0.26153   0.00000  Uiso   1.00
