data_job_01263
_audit_creation_date              2018-12-19
_audit_creation_method            'Materials Studio'
_symmetry_space_group_name_H-M    'P1'
_symmetry_Int_Tables_number       1
_symmetry_cell_setting            triclinic
loop_
_symmetry_equiv_pos_as_xyz
  x,y,z
_cell_length_a                    21.2176
_cell_length_b                    14.3378
_cell_length_c                    18.7353
_cell_angle_alpha                 90.0000
_cell_angle_beta                  90.0000
_cell_angle_gamma                 90.0000
loop_
_atom_site_label
_atom_site_type_symbol
_atom_site_fract_x
_atom_site_fract_y
_atom_site_fract_z
_atom_site_U_iso_or_equiv
_atom_site_adp_type
_atom_site_occupancy
C1     C     0.40924   0.78174   0.00897   0.00000  Uiso   1.00
C2     C     0.36749   0.81454   0.94766   0.00000  Uiso   1.00
C3     C     0.32611   0.88945   0.94985   0.00000  Uiso   1.00
C4     C     0.29212   0.90818   0.88817   0.00000  Uiso   1.00
C5     C     0.22617   0.96735   0.80235   0.00000  Uiso   1.00
C6     C     0.39277   0.67944   0.02114   0.00000  Uiso   1.00
C7     C     0.37266   0.64075   0.08511   0.00000  Uiso   1.00
C8     C     0.35997   0.54575   0.08529   0.00000  Uiso   1.00
C9     C     0.33333   0.39515   0.11357   0.00000  Uiso   1.00
C10    C     0.47653   0.78275   0.98038   0.00000  Uiso   1.00
C11    C     0.52684   0.83090   0.01008   0.00000  Uiso   1.00
C12    C     0.58467   0.82287   0.97594   0.00000  Uiso   1.00
C13    C     0.68806   0.83267   0.94093   0.00000  Uiso   1.00
C14    C     0.42247   0.68181   0.89554   0.00000  Uiso   1.00
C15    C     0.37468   0.76026   0.88605   0.00000  Uiso   1.00
C16    C     0.34075   0.77889   0.82435   0.00000  Uiso   1.00
C17    C     0.29933   0.85381   0.82644   0.00000  Uiso   1.00
C18    C     0.39996   0.62516   0.95954   0.00000  Uiso   1.00
C19    C     0.38730   0.53020   0.95962   0.00000  Uiso   1.00
C20    C     0.36717   0.49138   0.02357   0.00000  Uiso   1.00
C21    C     0.48371   0.72848   0.91877   0.00000  Uiso   1.00
C22    C     0.54148   0.72035   0.88458   0.00000  Uiso   1.00
C23    C     0.59187   0.76849   0.91422   0.00000  Uiso   1.00
H24    H     0.40365   0.82399   0.05694   0.00000  Uiso   1.00
H25    H     0.32056   0.93143   0.99754   0.00000  Uiso   1.00
H26    H     0.36711   0.68277   0.13278   0.00000  Uiso   1.00
H27    H     0.52126   0.87290   0.05776   0.00000  Uiso   1.00
H28    H     0.23159   0.02659   0.90452   0.00000  Uiso   1.00
H29    H     0.32977   0.50227   0.18970   0.00000  Uiso   1.00
H30    H     0.65483   0.90319   0.03150   0.00000  Uiso   1.00
H31    H     0.42807   0.63955   0.84757   0.00000  Uiso   1.00
H32    H     0.34632   0.73688   0.77668   0.00000  Uiso   1.00
H33    H     0.39287   0.48822   0.91193   0.00000  Uiso   1.00
H34    H     0.54702   0.67835   0.83690   0.00000  Uiso   1.00
H35    H     0.25249   0.86868   0.72526   0.00000  Uiso   1.00
H36    H     0.35068   0.34436   0.01045   0.00000  Uiso   1.00
H37    H     0.67574   0.74529   0.85224   0.00000  Uiso   1.00
O38    O     0.18781   0.01496   0.77204   0.00000  Uiso   1.00
O39    O     0.31664   0.32708   0.14619   0.00000  Uiso   1.00
O40    O     0.74310   0.85309   0.93863   0.00000  Uiso   1.00
N41    N     0.24774   0.97608   0.87206   0.00000  Uiso   1.00
N42    N     0.33953   0.48588   0.13868   0.00000  Uiso   1.00
N43    N     0.64343   0.86069   0.99078   0.00000  Uiso   1.00
N44    N     0.25899   0.89111   0.77560   0.00000  Uiso   1.00
N45    N     0.35078   0.40091   0.04222   0.00000  Uiso   1.00
N46    N     0.65468   0.77572   0.89433   0.00000  Uiso   1.00
C47    C     0.90924   0.28174   0.00897   0.00000  Uiso   1.00
C48    C     0.86749   0.31454   0.94766   0.00000  Uiso   1.00
C49    C     0.82611   0.38945   0.94985   0.00000  Uiso   1.00
C50    C     0.79212   0.40818   0.88817   0.00000  Uiso   1.00
C51    C     0.72617   0.46735   0.80235   0.00000  Uiso   1.00
C52    C     0.89277   0.17944   0.02114   0.00000  Uiso   1.00
C53    C     0.87266   0.14075   0.08511   0.00000  Uiso   1.00
C54    C     0.85997   0.04575   0.08529   0.00000  Uiso   1.00
C55    C     0.83333   0.89515   0.11357   0.00000  Uiso   1.00
C56    C     0.97653   0.28275   0.98038   0.00000  Uiso   1.00
C57    C     0.02684   0.33090   0.01008   0.00000  Uiso   1.00
C58    C     0.08467   0.32287   0.97594   0.00000  Uiso   1.00
C59    C     0.18806   0.33267   0.94093   0.00000  Uiso   1.00
C60    C     0.92247   0.18181   0.89554   0.00000  Uiso   1.00
C61    C     0.87468   0.26026   0.88605   0.00000  Uiso   1.00
C62    C     0.84075   0.27889   0.82435   0.00000  Uiso   1.00
C63    C     0.79933   0.35381   0.82644   0.00000  Uiso   1.00
C64    C     0.89996   0.12516   0.95954   0.00000  Uiso   1.00
C65    C     0.88730   0.03020   0.95962   0.00000  Uiso   1.00
C66    C     0.86717   0.99138   0.02357   0.00000  Uiso   1.00
C67    C     0.98371   0.22848   0.91877   0.00000  Uiso   1.00
C68    C     0.04148   0.22035   0.88458   0.00000  Uiso   1.00
C69    C     0.09187   0.26849   0.91422   0.00000  Uiso   1.00
H70    H     0.90365   0.32399   0.05694   0.00000  Uiso   1.00
H71    H     0.82056   0.43143   0.99754   0.00000  Uiso   1.00
H72    H     0.86711   0.18277   0.13278   0.00000  Uiso   1.00
H73    H     0.02126   0.37290   0.05776   0.00000  Uiso   1.00
H74    H     0.73159   0.52659   0.90452   0.00000  Uiso   1.00
H75    H     0.82977   0.00227   0.18970   0.00000  Uiso   1.00
H76    H     0.15483   0.40319   0.03150   0.00000  Uiso   1.00
H77    H     0.92807   0.13955   0.84757   0.00000  Uiso   1.00
H78    H     0.84632   0.23688   0.77668   0.00000  Uiso   1.00
H79    H     0.89287   0.98822   0.91193   0.00000  Uiso   1.00
H80    H     0.04702   0.17835   0.83690   0.00000  Uiso   1.00
H81    H     0.75249   0.36868   0.72526   0.00000  Uiso   1.00
H82    H     0.85068   0.84436   0.01045   0.00000  Uiso   1.00
H83    H     0.17574   0.24529   0.85224   0.00000  Uiso   1.00
O84    O     0.68781   0.51496   0.77204   0.00000  Uiso   1.00
O85    O     0.81664   0.82708   0.14619   0.00000  Uiso   1.00
O86    O     0.24310   0.35309   0.93863   0.00000  Uiso   1.00
N87    N     0.74774   0.47608   0.87206   0.00000  Uiso   1.00
N88    N     0.83953   0.98588   0.13868   0.00000  Uiso   1.00
N89    N     0.14343   0.36069   0.99078   0.00000  Uiso   1.00
N90    N     0.75899   0.39111   0.77560   0.00000  Uiso   1.00
N91    N     0.85078   0.90091   0.04222   0.00000  Uiso   1.00
N92    N     0.15468   0.27572   0.89433   0.00000  Uiso   1.00
C93    C     0.59076   0.21826   0.00897   0.00000  Uiso   1.00
C94    C     0.63251   0.18546   0.94766   0.00000  Uiso   1.00
C95    C     0.67389   0.11055   0.94985   0.00000  Uiso   1.00
C96    C     0.70788   0.09182   0.88817   0.00000  Uiso   1.00
C97    C     0.77383   0.03265   0.80235   0.00000  Uiso   1.00
C98    C     0.60723   0.32056   0.02114   0.00000  Uiso   1.00
C99    C     0.62734   0.35925   0.08511   0.00000  Uiso   1.00
C100   C     0.64003   0.45425   0.08529   0.00000  Uiso   1.00
C101   C     0.66667   0.60485   0.11357   0.00000  Uiso   1.00
C102   C     0.52347   0.21725   0.98038   0.00000  Uiso   1.00
C103   C     0.47316   0.16910   0.01008   0.00000  Uiso   1.00
C104   C     0.41533   0.17713   0.97594   0.00000  Uiso   1.00
C105   C     0.31194   0.16733   0.94093   0.00000  Uiso   1.00
C106   C     0.57753   0.31819   0.89554   0.00000  Uiso   1.00
C107   C     0.62532   0.23974   0.88605   0.00000  Uiso   1.00
C108   C     0.65925   0.22111   0.82435   0.00000  Uiso   1.00
C109   C     0.70067   0.14619   0.82644   0.00000  Uiso   1.00
C110   C     0.60004   0.37484   0.95954   0.00000  Uiso   1.00
C111   C     0.61270   0.46980   0.95962   0.00000  Uiso   1.00
C112   C     0.63283   0.50862   0.02357   0.00000  Uiso   1.00
C113   C     0.51629   0.27152   0.91877   0.00000  Uiso   1.00
C114   C     0.45852   0.27965   0.88458   0.00000  Uiso   1.00
C115   C     0.40813   0.23151   0.91422   0.00000  Uiso   1.00
H116   H     0.59635   0.17601   0.05694   0.00000  Uiso   1.00
H117   H     0.67944   0.06857   0.99754   0.00000  Uiso   1.00
H118   H     0.63289   0.31723   0.13278   0.00000  Uiso   1.00
H119   H     0.47874   0.12710   0.05776   0.00000  Uiso   1.00
H120   H     0.76841   0.97341   0.90452   0.00000  Uiso   1.00
H121   H     0.67023   0.49773   0.18970   0.00000  Uiso   1.00
H122   H     0.34517   0.09681   0.03150   0.00000  Uiso   1.00
H123   H     0.57193   0.36045   0.84757   0.00000  Uiso   1.00
H124   H     0.65368   0.26312   0.77668   0.00000  Uiso   1.00
H125   H     0.60713   0.51178   0.91193   0.00000  Uiso   1.00
H126   H     0.45298   0.32165   0.83690   0.00000  Uiso   1.00
H127   H     0.74751   0.13132   0.72526   0.00000  Uiso   1.00
H128   H     0.64932   0.65564   0.01045   0.00000  Uiso   1.00
H129   H     0.32426   0.25471   0.85224   0.00000  Uiso   1.00
O130   O     0.81219   0.98504   0.77204   0.00000  Uiso   1.00
O131   O     0.68336   0.67292   0.14619   0.00000  Uiso   1.00
O132   O     0.25690   0.14691   0.93863   0.00000  Uiso   1.00
N133   N     0.75226   0.02392   0.87206   0.00000  Uiso   1.00
N134   N     0.66047   0.51412   0.13868   0.00000  Uiso   1.00
N135   N     0.35657   0.13931   0.99078   0.00000  Uiso   1.00
N136   N     0.74101   0.10889   0.77560   0.00000  Uiso   1.00
N137   N     0.64922   0.59909   0.04222   0.00000  Uiso   1.00
N138   N     0.34532   0.22428   0.89433   0.00000  Uiso   1.00
C139   C     0.09076   0.71826   0.00897   0.00000  Uiso   1.00
C140   C     0.13251   0.68546   0.94766   0.00000  Uiso   1.00
C141   C     0.17389   0.61055   0.94985   0.00000  Uiso   1.00
C142   C     0.20788   0.59182   0.88817   0.00000  Uiso   1.00
C143   C     0.27383   0.53265   0.80235   0.00000  Uiso   1.00
C144   C     0.10723   0.82056   0.02114   0.00000  Uiso   1.00
C145   C     0.12734   0.85925   0.08511   0.00000  Uiso   1.00
C146   C     0.14003   0.95425   0.08529   0.00000  Uiso   1.00
C147   C     0.16667   0.10485   0.11357   0.00000  Uiso   1.00
C148   C     0.02347   0.71725   0.98038   0.00000  Uiso   1.00
C149   C     0.97316   0.66910   0.01008   0.00000  Uiso   1.00
C150   C     0.91533   0.67713   0.97594   0.00000  Uiso   1.00
C151   C     0.81194   0.66733   0.94093   0.00000  Uiso   1.00
C152   C     0.07753   0.81819   0.89554   0.00000  Uiso   1.00
C153   C     0.12532   0.73974   0.88605   0.00000  Uiso   1.00
C154   C     0.15925   0.72111   0.82435   0.00000  Uiso   1.00
C155   C     0.20067   0.64619   0.82644   0.00000  Uiso   1.00
C156   C     0.10004   0.87484   0.95954   0.00000  Uiso   1.00
C157   C     0.11270   0.96980   0.95962   0.00000  Uiso   1.00
C158   C     0.13283   0.00862   0.02357   0.00000  Uiso   1.00
C159   C     0.01629   0.77152   0.91877   0.00000  Uiso   1.00
C160   C     0.95852   0.77965   0.88458   0.00000  Uiso   1.00
C161   C     0.90813   0.73151   0.91422   0.00000  Uiso   1.00
H162   H     0.09635   0.67601   0.05694   0.00000  Uiso   1.00
H163   H     0.17944   0.56857   0.99754   0.00000  Uiso   1.00
H164   H     0.13289   0.81723   0.13278   0.00000  Uiso   1.00
H165   H     0.97874   0.62710   0.05776   0.00000  Uiso   1.00
H166   H     0.26841   0.47341   0.90452   0.00000  Uiso   1.00
H167   H     0.17023   0.99773   0.18970   0.00000  Uiso   1.00
H168   H     0.84517   0.59681   0.03150   0.00000  Uiso   1.00
H169   H     0.07193   0.86045   0.84757   0.00000  Uiso   1.00
H170   H     0.15368   0.76312   0.77668   0.00000  Uiso   1.00
H171   H     0.10713   0.01178   0.91193   0.00000  Uiso   1.00
H172   H     0.95298   0.82165   0.83690   0.00000  Uiso   1.00
H173   H     0.24751   0.63132   0.72526   0.00000  Uiso   1.00
H174   H     0.14932   0.15564   0.01045   0.00000  Uiso   1.00
H175   H     0.82426   0.75471   0.85224   0.00000  Uiso   1.00
O176   O     0.31219   0.48504   0.77204   0.00000  Uiso   1.00
O177   O     0.18336   0.17292   0.14619   0.00000  Uiso   1.00
O178   O     0.75690   0.64691   0.93863   0.00000  Uiso   1.00
N179   N     0.25226   0.52392   0.87206   0.00000  Uiso   1.00
N180   N     0.16047   0.01412   0.13868   0.00000  Uiso   1.00
N181   N     0.85657   0.63931   0.99078   0.00000  Uiso   1.00
N182   N     0.24101   0.60889   0.77560   0.00000  Uiso   1.00
N183   N     0.14922   0.09909   0.04222   0.00000  Uiso   1.00
N184   N     0.84532   0.72428   0.89433   0.00000  Uiso   1.00
C185   C     0.40924   0.21826   0.50897   0.00000  Uiso   1.00
C186   C     0.36749   0.18546   0.44766   0.00000  Uiso   1.00
C187   C     0.32611   0.11055   0.44985   0.00000  Uiso   1.00
C188   C     0.29212   0.09182   0.38817   0.00000  Uiso   1.00
C189   C     0.22617   0.03265   0.30235   0.00000  Uiso   1.00
C190   C     0.39277   0.32056   0.52114   0.00000  Uiso   1.00
C191   C     0.37266   0.35925   0.58511   0.00000  Uiso   1.00
C192   C     0.35997   0.45425   0.58529   0.00000  Uiso   1.00
C193   C     0.33333   0.60485   0.61357   0.00000  Uiso   1.00
C194   C     0.47653   0.21725   0.48038   0.00000  Uiso   1.00
C195   C     0.52684   0.16910   0.51008   0.00000  Uiso   1.00
C196   C     0.58467   0.17713   0.47594   0.00000  Uiso   1.00
C197   C     0.68806   0.16733   0.44093   0.00000  Uiso   1.00
C198   C     0.42247   0.31819   0.39554   0.00000  Uiso   1.00
C199   C     0.37468   0.23974   0.38605   0.00000  Uiso   1.00
C200   C     0.34075   0.22111   0.32435   0.00000  Uiso   1.00
C201   C     0.29933   0.14619   0.32644   0.00000  Uiso   1.00
C202   C     0.39996   0.37484   0.45954   0.00000  Uiso   1.00
C203   C     0.38730   0.46980   0.45962   0.00000  Uiso   1.00
C204   C     0.36717   0.50862   0.52357   0.00000  Uiso   1.00
C205   C     0.48371   0.27152   0.41877   0.00000  Uiso   1.00
C206   C     0.54148   0.27965   0.38458   0.00000  Uiso   1.00
C207   C     0.59187   0.23151   0.41422   0.00000  Uiso   1.00
H208   H     0.40365   0.17601   0.55694   0.00000  Uiso   1.00
H209   H     0.32056   0.06857   0.49754   0.00000  Uiso   1.00
H210   H     0.36711   0.31723   0.63278   0.00000  Uiso   1.00
H211   H     0.52126   0.12710   0.55776   0.00000  Uiso   1.00
H212   H     0.23159   0.97341   0.40452   0.00000  Uiso   1.00
H213   H     0.32977   0.49773   0.68970   0.00000  Uiso   1.00
H214   H     0.65483   0.09681   0.53150   0.00000  Uiso   1.00
H215   H     0.42807   0.36045   0.34757   0.00000  Uiso   1.00
H216   H     0.34632   0.26312   0.27668   0.00000  Uiso   1.00
H217   H     0.39287   0.51178   0.41193   0.00000  Uiso   1.00
H218   H     0.54702   0.32165   0.33690   0.00000  Uiso   1.00
H219   H     0.25249   0.13132   0.22526   0.00000  Uiso   1.00
H220   H     0.35068   0.65564   0.51045   0.00000  Uiso   1.00
H221   H     0.67574   0.25471   0.35224   0.00000  Uiso   1.00
O222   O     0.18781   0.98504   0.27204   0.00000  Uiso   1.00
O223   O     0.31664   0.67292   0.64619   0.00000  Uiso   1.00
O224   O     0.74310   0.14691   0.43863   0.00000  Uiso   1.00
N225   N     0.24774   0.02392   0.37206   0.00000  Uiso   1.00
N226   N     0.33953   0.51412   0.63868   0.00000  Uiso   1.00
N227   N     0.64343   0.13931   0.49078   0.00000  Uiso   1.00
N228   N     0.25899   0.10889   0.27560   0.00000  Uiso   1.00
N229   N     0.35078   0.59909   0.54222   0.00000  Uiso   1.00
N230   N     0.65468   0.22428   0.39433   0.00000  Uiso   1.00
C231   C     0.90924   0.71826   0.50897   0.00000  Uiso   1.00
C232   C     0.86749   0.68546   0.44766   0.00000  Uiso   1.00
C233   C     0.82611   0.61055   0.44985   0.00000  Uiso   1.00
C234   C     0.79212   0.59182   0.38817   0.00000  Uiso   1.00
C235   C     0.72617   0.53265   0.30235   0.00000  Uiso   1.00
C236   C     0.89277   0.82056   0.52114   0.00000  Uiso   1.00
C237   C     0.87266   0.85925   0.58511   0.00000  Uiso   1.00
C238   C     0.85997   0.95425   0.58529   0.00000  Uiso   1.00
C239   C     0.83333   0.10485   0.61357   0.00000  Uiso   1.00
C240   C     0.97653   0.71725   0.48038   0.00000  Uiso   1.00
C241   C     0.02684   0.66910   0.51008   0.00000  Uiso   1.00
C242   C     0.08467   0.67713   0.47594   0.00000  Uiso   1.00
C243   C     0.18806   0.66733   0.44093   0.00000  Uiso   1.00
C244   C     0.92247   0.81819   0.39554   0.00000  Uiso   1.00
C245   C     0.87468   0.73974   0.38605   0.00000  Uiso   1.00
C246   C     0.84075   0.72111   0.32435   0.00000  Uiso   1.00
C247   C     0.79933   0.64619   0.32644   0.00000  Uiso   1.00
C248   C     0.89996   0.87484   0.45954   0.00000  Uiso   1.00
C249   C     0.88730   0.96980   0.45962   0.00000  Uiso   1.00
C250   C     0.86717   0.00862   0.52357   0.00000  Uiso   1.00
C251   C     0.98371   0.77152   0.41877   0.00000  Uiso   1.00
C252   C     0.04148   0.77965   0.38458   0.00000  Uiso   1.00
C253   C     0.09187   0.73151   0.41422   0.00000  Uiso   1.00
H254   H     0.90365   0.67601   0.55694   0.00000  Uiso   1.00
H255   H     0.82056   0.56857   0.49754   0.00000  Uiso   1.00
H256   H     0.86711   0.81723   0.63278   0.00000  Uiso   1.00
H257   H     0.02126   0.62710   0.55776   0.00000  Uiso   1.00
H258   H     0.73159   0.47341   0.40452   0.00000  Uiso   1.00
H259   H     0.82977   0.99773   0.68970   0.00000  Uiso   1.00
H260   H     0.15483   0.59681   0.53150   0.00000  Uiso   1.00
H261   H     0.92807   0.86045   0.34757   0.00000  Uiso   1.00
H262   H     0.84632   0.76312   0.27668   0.00000  Uiso   1.00
H263   H     0.89287   0.01178   0.41193   0.00000  Uiso   1.00
H264   H     0.04702   0.82165   0.33690   0.00000  Uiso   1.00
H265   H     0.75249   0.63132   0.22526   0.00000  Uiso   1.00
H266   H     0.85068   0.15564   0.51045   0.00000  Uiso   1.00
H267   H     0.17574   0.75471   0.35224   0.00000  Uiso   1.00
O268   O     0.68781   0.48504   0.27204   0.00000  Uiso   1.00
O269   O     0.81664   0.17292   0.64619   0.00000  Uiso   1.00
O270   O     0.24310   0.64691   0.43863   0.00000  Uiso   1.00
N271   N     0.74774   0.52392   0.37206   0.00000  Uiso   1.00
N272   N     0.83953   0.01412   0.63868   0.00000  Uiso   1.00
N273   N     0.14343   0.63931   0.49078   0.00000  Uiso   1.00
N274   N     0.75899   0.60889   0.27560   0.00000  Uiso   1.00
N275   N     0.85078   0.09909   0.54222   0.00000  Uiso   1.00
N276   N     0.15468   0.72428   0.39433   0.00000  Uiso   1.00
C277   C     0.59076   0.78174   0.50897   0.00000  Uiso   1.00
C278   C     0.63251   0.81454   0.44766   0.00000  Uiso   1.00
C279   C     0.67389   0.88945   0.44985   0.00000  Uiso   1.00
C280   C     0.70788   0.90818   0.38817   0.00000  Uiso   1.00
C281   C     0.77383   0.96735   0.30235   0.00000  Uiso   1.00
C282   C     0.60723   0.67944   0.52114   0.00000  Uiso   1.00
C283   C     0.62734   0.64075   0.58511   0.00000  Uiso   1.00
C284   C     0.64003   0.54575   0.58529   0.00000  Uiso   1.00
C285   C     0.66667   0.39515   0.61357   0.00000  Uiso   1.00
C286   C     0.52347   0.78275   0.48038   0.00000  Uiso   1.00
C287   C     0.47316   0.83090   0.51008   0.00000  Uiso   1.00
C288   C     0.41533   0.82287   0.47594   0.00000  Uiso   1.00
C289   C     0.31194   0.83267   0.44093   0.00000  Uiso   1.00
C290   C     0.57753   0.68181   0.39554   0.00000  Uiso   1.00
C291   C     0.62532   0.76026   0.38605   0.00000  Uiso   1.00
C292   C     0.65925   0.77889   0.32435   0.00000  Uiso   1.00
C293   C     0.70067   0.85381   0.32644   0.00000  Uiso   1.00
C294   C     0.60004   0.62516   0.45954   0.00000  Uiso   1.00
C295   C     0.61270   0.53020   0.45962   0.00000  Uiso   1.00
C296   C     0.63283   0.49138   0.52357   0.00000  Uiso   1.00
C297   C     0.51629   0.72848   0.41877   0.00000  Uiso   1.00
C298   C     0.45852   0.72035   0.38458   0.00000  Uiso   1.00
C299   C     0.40813   0.76849   0.41422   0.00000  Uiso   1.00
H300   H     0.59635   0.82399   0.55694   0.00000  Uiso   1.00
H301   H     0.67944   0.93143   0.49754   0.00000  Uiso   1.00
H302   H     0.63289   0.68277   0.63278   0.00000  Uiso   1.00
H303   H     0.47874   0.87290   0.55776   0.00000  Uiso   1.00
H304   H     0.76841   0.02659   0.40452   0.00000  Uiso   1.00
H305   H     0.67023   0.50227   0.68970   0.00000  Uiso   1.00
H306   H     0.34517   0.90319   0.53150   0.00000  Uiso   1.00
H307   H     0.57193   0.63955   0.34757   0.00000  Uiso   1.00
H308   H     0.65368   0.73688   0.27668   0.00000  Uiso   1.00
H309   H     0.60713   0.48822   0.41193   0.00000  Uiso   1.00
H310   H     0.45298   0.67835   0.33690   0.00000  Uiso   1.00
H311   H     0.74751   0.86868   0.22526   0.00000  Uiso   1.00
H312   H     0.64932   0.34436   0.51045   0.00000  Uiso   1.00
H313   H     0.32426   0.74529   0.35224   0.00000  Uiso   1.00
O314   O     0.81219   0.01496   0.27204   0.00000  Uiso   1.00
O315   O     0.68336   0.32708   0.64619   0.00000  Uiso   1.00
O316   O     0.25690   0.85309   0.43863   0.00000  Uiso   1.00
N317   N     0.75226   0.97608   0.37206   0.00000  Uiso   1.00
N318   N     0.66047   0.48588   0.63868   0.00000  Uiso   1.00
N319   N     0.35657   0.86069   0.49078   0.00000  Uiso   1.00
N320   N     0.74101   0.89111   0.27560   0.00000  Uiso   1.00
N321   N     0.64922   0.40091   0.54222   0.00000  Uiso   1.00
N322   N     0.34532   0.77572   0.39433   0.00000  Uiso   1.00
C323   C     0.09076   0.28174   0.50897   0.00000  Uiso   1.00
C324   C     0.13251   0.31454   0.44766   0.00000  Uiso   1.00
C325   C     0.17389   0.38945   0.44985   0.00000  Uiso   1.00
C326   C     0.20788   0.40818   0.38817   0.00000  Uiso   1.00
C327   C     0.27383   0.46735   0.30235   0.00000  Uiso   1.00
C328   C     0.10723   0.17944   0.52114   0.00000  Uiso   1.00
C329   C     0.12734   0.14075   0.58511   0.00000  Uiso   1.00
C330   C     0.14003   0.04575   0.58529   0.00000  Uiso   1.00
C331   C     0.16667   0.89515   0.61357   0.00000  Uiso   1.00
C332   C     0.02347   0.28275   0.48038   0.00000  Uiso   1.00
C333   C     0.97316   0.33090   0.51008   0.00000  Uiso   1.00
C334   C     0.91533   0.32287   0.47594   0.00000  Uiso   1.00
C335   C     0.81194   0.33267   0.44093   0.00000  Uiso   1.00
C336   C     0.07753   0.18181   0.39554   0.00000  Uiso   1.00
C337   C     0.12532   0.26026   0.38605   0.00000  Uiso   1.00
C338   C     0.15925   0.27889   0.32435   0.00000  Uiso   1.00
C339   C     0.20067   0.35381   0.32644   0.00000  Uiso   1.00
C340   C     0.10004   0.12516   0.45954   0.00000  Uiso   1.00
C341   C     0.11270   0.03020   0.45962   0.00000  Uiso   1.00
C342   C     0.13283   0.99138   0.52357   0.00000  Uiso   1.00
C343   C     0.01629   0.22848   0.41877   0.00000  Uiso   1.00
C344   C     0.95852   0.22035   0.38458   0.00000  Uiso   1.00
C345   C     0.90813   0.26849   0.41422   0.00000  Uiso   1.00
H346   H     0.09635   0.32399   0.55694   0.00000  Uiso   1.00
H347   H     0.17944   0.43143   0.49754   0.00000  Uiso   1.00
H348   H     0.13289   0.18277   0.63278   0.00000  Uiso   1.00
H349   H     0.97874   0.37290   0.55776   0.00000  Uiso   1.00
H350   H     0.26841   0.52659   0.40452   0.00000  Uiso   1.00
H351   H     0.17023   0.00227   0.68970   0.00000  Uiso   1.00
H352   H     0.84517   0.40319   0.53150   0.00000  Uiso   1.00
H353   H     0.07193   0.13955   0.34757   0.00000  Uiso   1.00
H354   H     0.15368   0.23688   0.27668   0.00000  Uiso   1.00
H355   H     0.10713   0.98822   0.41193   0.00000  Uiso   1.00
H356   H     0.95298   0.17835   0.33690   0.00000  Uiso   1.00
H357   H     0.24751   0.36868   0.22526   0.00000  Uiso   1.00
H358   H     0.14932   0.84436   0.51045   0.00000  Uiso   1.00
H359   H     0.82426   0.24529   0.35224   0.00000  Uiso   1.00
O360   O     0.31219   0.51496   0.27204   0.00000  Uiso   1.00
O361   O     0.18336   0.82708   0.64619   0.00000  Uiso   1.00
O362   O     0.75690   0.35309   0.43863   0.00000  Uiso   1.00
N363   N     0.25226   0.47608   0.37206   0.00000  Uiso   1.00
N364   N     0.16047   0.98588   0.63868   0.00000  Uiso   1.00
N365   N     0.85657   0.36069   0.49078   0.00000  Uiso   1.00
N366   N     0.24101   0.39111   0.27560   0.00000  Uiso   1.00
N367   N     0.14922   0.90091   0.54222   0.00000  Uiso   1.00
N368   N     0.84532   0.27572   0.39433   0.00000  Uiso   1.00
