data_job_01817
_audit_creation_date              2018-12-19
_audit_creation_method            'Materials Studio'
_symmetry_space_group_name_H-M    'P1'
_symmetry_Int_Tables_number       1
_symmetry_cell_setting            triclinic
loop_
_symmetry_equiv_pos_as_xyz
  x,y,z
_cell_length_a                    12.6920
_cell_length_b                    21.0938
_cell_length_c                    22.1826
_cell_angle_alpha                 90.0000
_cell_angle_beta                  90.0000
_cell_angle_gamma                 90.0000
loop_
_atom_site_label
_atom_site_type_symbol
_atom_site_fract_x
_atom_site_fract_y
_atom_site_fract_z
_atom_site_U_iso_or_equiv
_atom_site_adp_type
_atom_site_occupancy
C1     C     0.31809   0.95525   0.14059   0.00000  Uiso   1.00
C2     C     0.22113   0.93273   0.10610   0.00000  Uiso   1.00
C3     C     0.20343   0.87143   0.08576   0.00000  Uiso   1.00
C4     C     0.10984   0.86042   0.05509   0.00000  Uiso   1.00
C5     C     0.97044   0.81807   0.00303   0.00000  Uiso   1.00
C6     C     0.36371   0.01003   0.10411   0.00000  Uiso   1.00
C7     C     0.46589   0.01373   0.08210   0.00000  Uiso   1.00
C8     C     0.49233   0.06779   0.04976   0.00000  Uiso   1.00
C9     C     0.57431   0.14547   0.99464   0.00000  Uiso   1.00
C10    C     0.27712   0.98428   0.19902   0.00000  Uiso   1.00
C11    C     0.30652   0.96635   0.25682   0.00000  Uiso   1.00
C12    C     0.26007   0.99875   0.30438   0.00000  Uiso   1.00
C13    C     0.20761   0.03645   0.39662   0.00000  Uiso   1.00
C14    C     0.18338   0.04469   0.12229   0.00000  Uiso   1.00
C15    C     0.14796   0.98131   0.09616   0.00000  Uiso   1.00
C16    C     0.05438   0.97039   0.06552   0.00000  Uiso   1.00
C17    C     0.03654   0.90908   0.04514   0.00000  Uiso   1.00
C18    C     0.29055   0.05861   0.09417   0.00000  Uiso   1.00
C19    C     0.31684   0.11268   0.06186   0.00000  Uiso   1.00
C20    C     0.41903   0.11646   0.03981   0.00000  Uiso   1.00
C21    C     0.20395   0.03287   0.18908   0.00000  Uiso   1.00
C22    C     0.15746   0.06530   0.23657   0.00000  Uiso   1.00
C23    C     0.18677   0.04741   0.29443   0.00000  Uiso   1.00
H24    H     0.37507   0.91743   0.14833   0.00000  Uiso   1.00
H25    H     0.26008   0.83385   0.09346   0.00000  Uiso   1.00
H26    H     0.52250   0.97613   0.08981   0.00000  Uiso   1.00
H27    H     0.36314   0.92875   0.26449   0.00000  Uiso   1.00
H28    H     0.10034   0.76262   0.02823   0.00000  Uiso   1.00
H29    H     0.65368   0.06263   0.02054   0.00000  Uiso   1.00
H30    H     0.31765   0.96272   0.38889   0.00000  Uiso   1.00
H31    H     0.12641   0.08252   0.11456   0.00000  Uiso   1.00
H32    H     0.99777   0.00799   0.05783   0.00000  Uiso   1.00
H33    H     0.26020   0.15027   0.05418   0.00000  Uiso   1.00
H34    H     0.10084   0.10289   0.22886   0.00000  Uiso   1.00
H35    H     0.88744   0.90396   0.99931   0.00000  Uiso   1.00
H36    H     0.44079   0.20397   0.99162   0.00000  Uiso   1.00
H37    H     0.10476   0.10406   0.35997   0.00000  Uiso   1.00
O38    O     0.91377   0.78129   0.97705   0.00000  Uiso   1.00
O39    O     0.63974   0.17489   0.96697   0.00000  Uiso   1.00
O40    O     0.19887   0.04382   0.45024   0.00000  Uiso   1.00
N41    N     0.06788   0.80611   0.02922   0.00000  Uiso   1.00
N42    N     0.58522   0.08659   0.02202   0.00000  Uiso   1.00
N43    N     0.27108   0.99320   0.36640   0.00000  Uiso   1.00
N44    N     0.95332   0.88216   0.01366   0.00000  Uiso   1.00
N45    N     0.47066   0.16265   0.00646   0.00000  Uiso   1.00
N46    N     0.15652   0.06926   0.35084   0.00000  Uiso   1.00
C47    C     0.81809   0.45525   0.14059   0.00000  Uiso   1.00
C48    C     0.72113   0.43273   0.10610   0.00000  Uiso   1.00
C49    C     0.70343   0.37143   0.08576   0.00000  Uiso   1.00
C50    C     0.60984   0.36042   0.05509   0.00000  Uiso   1.00
C51    C     0.47044   0.31807   0.00303   0.00000  Uiso   1.00
C52    C     0.86371   0.51003   0.10411   0.00000  Uiso   1.00
C53    C     0.96589   0.51373   0.08210   0.00000  Uiso   1.00
C54    C     0.99233   0.56779   0.04976   0.00000  Uiso   1.00
C55    C     0.07431   0.64547   0.99464   0.00000  Uiso   1.00
C56    C     0.77712   0.48428   0.19902   0.00000  Uiso   1.00
C57    C     0.80652   0.46635   0.25682   0.00000  Uiso   1.00
C58    C     0.76007   0.49875   0.30438   0.00000  Uiso   1.00
C59    C     0.70761   0.53645   0.39662   0.00000  Uiso   1.00
C60    C     0.68338   0.54469   0.12229   0.00000  Uiso   1.00
C61    C     0.64796   0.48131   0.09616   0.00000  Uiso   1.00
C62    C     0.55438   0.47039   0.06552   0.00000  Uiso   1.00
C63    C     0.53654   0.40908   0.04514   0.00000  Uiso   1.00
C64    C     0.79055   0.55861   0.09417   0.00000  Uiso   1.00
C65    C     0.81684   0.61268   0.06186   0.00000  Uiso   1.00
C66    C     0.91903   0.61646   0.03981   0.00000  Uiso   1.00
C67    C     0.70395   0.53287   0.18908   0.00000  Uiso   1.00
C68    C     0.65746   0.56530   0.23657   0.00000  Uiso   1.00
C69    C     0.68677   0.54741   0.29443   0.00000  Uiso   1.00
H70    H     0.87507   0.41743   0.14833   0.00000  Uiso   1.00
H71    H     0.76008   0.33385   0.09346   0.00000  Uiso   1.00
H72    H     0.02250   0.47613   0.08981   0.00000  Uiso   1.00
H73    H     0.86314   0.42875   0.26449   0.00000  Uiso   1.00
H74    H     0.60034   0.26262   0.02823   0.00000  Uiso   1.00
H75    H     0.15368   0.56263   0.02054   0.00000  Uiso   1.00
H76    H     0.81765   0.46272   0.38889   0.00000  Uiso   1.00
H77    H     0.62641   0.58252   0.11456   0.00000  Uiso   1.00
H78    H     0.49777   0.50799   0.05783   0.00000  Uiso   1.00
H79    H     0.76020   0.65027   0.05418   0.00000  Uiso   1.00
H80    H     0.60084   0.60289   0.22886   0.00000  Uiso   1.00
H81    H     0.38744   0.40396   0.99931   0.00000  Uiso   1.00
H82    H     0.94079   0.70397   0.99162   0.00000  Uiso   1.00
H83    H     0.60476   0.60406   0.35997   0.00000  Uiso   1.00
O84    O     0.41377   0.28129   0.97705   0.00000  Uiso   1.00
O85    O     0.13974   0.67489   0.96697   0.00000  Uiso   1.00
O86    O     0.69887   0.54382   0.45024   0.00000  Uiso   1.00
N87    N     0.56788   0.30611   0.02922   0.00000  Uiso   1.00
N88    N     0.08522   0.58659   0.02202   0.00000  Uiso   1.00
N89    N     0.77108   0.49320   0.36640   0.00000  Uiso   1.00
N90    N     0.45332   0.38216   0.01366   0.00000  Uiso   1.00
N91    N     0.97066   0.66265   0.00646   0.00000  Uiso   1.00
N92    N     0.65652   0.56926   0.35084   0.00000  Uiso   1.00
C93    C     0.68191   0.04475   0.64059   0.00000  Uiso   1.00
C94    C     0.77887   0.06727   0.60610   0.00000  Uiso   1.00
C95    C     0.79657   0.12857   0.58576   0.00000  Uiso   1.00
C96    C     0.89016   0.13958   0.55509   0.00000  Uiso   1.00
C97    C     0.02956   0.18193   0.50303   0.00000  Uiso   1.00
C98    C     0.63629   0.98997   0.60411   0.00000  Uiso   1.00
C99    C     0.53411   0.98627   0.58210   0.00000  Uiso   1.00
C100   C     0.50767   0.93221   0.54976   0.00000  Uiso   1.00
C101   C     0.42569   0.85453   0.49464   0.00000  Uiso   1.00
C102   C     0.72288   0.01572   0.69902   0.00000  Uiso   1.00
C103   C     0.69348   0.03365   0.75682   0.00000  Uiso   1.00
C104   C     0.73993   0.00125   0.80438   0.00000  Uiso   1.00
C105   C     0.79239   0.96355   0.89662   0.00000  Uiso   1.00
C106   C     0.81662   0.95531   0.62229   0.00000  Uiso   1.00
C107   C     0.85204   0.01869   0.59616   0.00000  Uiso   1.00
C108   C     0.94562   0.02961   0.56552   0.00000  Uiso   1.00
C109   C     0.96346   0.09092   0.54514   0.00000  Uiso   1.00
C110   C     0.70945   0.94139   0.59417   0.00000  Uiso   1.00
C111   C     0.68316   0.88732   0.56186   0.00000  Uiso   1.00
C112   C     0.58097   0.88354   0.53981   0.00000  Uiso   1.00
C113   C     0.79605   0.96713   0.68908   0.00000  Uiso   1.00
C114   C     0.84254   0.93470   0.73657   0.00000  Uiso   1.00
C115   C     0.81323   0.95259   0.79443   0.00000  Uiso   1.00
H116   H     0.62493   0.08257   0.64833   0.00000  Uiso   1.00
H117   H     0.73992   0.16615   0.59346   0.00000  Uiso   1.00
H118   H     0.47750   0.02387   0.58981   0.00000  Uiso   1.00
H119   H     0.63686   0.07125   0.76449   0.00000  Uiso   1.00
H120   H     0.89966   0.23738   0.52823   0.00000  Uiso   1.00
H121   H     0.34632   0.93737   0.52054   0.00000  Uiso   1.00
H122   H     0.68235   0.03728   0.88889   0.00000  Uiso   1.00
H123   H     0.87359   0.91748   0.61456   0.00000  Uiso   1.00
H124   H     0.00223   0.99201   0.55783   0.00000  Uiso   1.00
H125   H     0.73980   0.84973   0.55418   0.00000  Uiso   1.00
H126   H     0.89916   0.89711   0.72886   0.00000  Uiso   1.00
H127   H     0.11256   0.09604   0.49931   0.00000  Uiso   1.00
H128   H     0.55921   0.79603   0.49162   0.00000  Uiso   1.00
H129   H     0.89524   0.89594   0.85997   0.00000  Uiso   1.00
O130   O     0.08623   0.21871   0.47705   0.00000  Uiso   1.00
O131   O     0.36026   0.82511   0.46697   0.00000  Uiso   1.00
O132   O     0.80113   0.95618   0.95024   0.00000  Uiso   1.00
N133   N     0.93212   0.19389   0.52922   0.00000  Uiso   1.00
N134   N     0.41478   0.91341   0.52202   0.00000  Uiso   1.00
N135   N     0.72892   0.00680   0.86640   0.00000  Uiso   1.00
N136   N     0.04668   0.11784   0.51366   0.00000  Uiso   1.00
N137   N     0.52934   0.83735   0.50646   0.00000  Uiso   1.00
N138   N     0.84348   0.93074   0.85084   0.00000  Uiso   1.00
C139   C     0.18191   0.54475   0.64059   0.00000  Uiso   1.00
C140   C     0.27887   0.56727   0.60610   0.00000  Uiso   1.00
C141   C     0.29657   0.62857   0.58576   0.00000  Uiso   1.00
C142   C     0.39016   0.63958   0.55509   0.00000  Uiso   1.00
C143   C     0.52956   0.68193   0.50303   0.00000  Uiso   1.00
C144   C     0.13629   0.48997   0.60411   0.00000  Uiso   1.00
C145   C     0.03411   0.48627   0.58210   0.00000  Uiso   1.00
C146   C     0.00767   0.43221   0.54976   0.00000  Uiso   1.00
C147   C     0.92569   0.35453   0.49464   0.00000  Uiso   1.00
C148   C     0.22288   0.51572   0.69902   0.00000  Uiso   1.00
C149   C     0.19348   0.53365   0.75682   0.00000  Uiso   1.00
C150   C     0.23993   0.50125   0.80438   0.00000  Uiso   1.00
C151   C     0.29239   0.46355   0.89662   0.00000  Uiso   1.00
C152   C     0.31662   0.45531   0.62229   0.00000  Uiso   1.00
C153   C     0.35204   0.51869   0.59616   0.00000  Uiso   1.00
C154   C     0.44562   0.52961   0.56552   0.00000  Uiso   1.00
C155   C     0.46346   0.59092   0.54514   0.00000  Uiso   1.00
C156   C     0.20945   0.44139   0.59417   0.00000  Uiso   1.00
C157   C     0.18316   0.38732   0.56186   0.00000  Uiso   1.00
C158   C     0.08097   0.38354   0.53981   0.00000  Uiso   1.00
C159   C     0.29605   0.46713   0.68908   0.00000  Uiso   1.00
C160   C     0.34254   0.43470   0.73657   0.00000  Uiso   1.00
C161   C     0.31323   0.45259   0.79443   0.00000  Uiso   1.00
H162   H     0.12493   0.58257   0.64833   0.00000  Uiso   1.00
H163   H     0.23992   0.66615   0.59346   0.00000  Uiso   1.00
H164   H     0.97750   0.52387   0.58981   0.00000  Uiso   1.00
H165   H     0.13686   0.57125   0.76449   0.00000  Uiso   1.00
H166   H     0.39966   0.73738   0.52823   0.00000  Uiso   1.00
H167   H     0.84632   0.43737   0.52054   0.00000  Uiso   1.00
H168   H     0.18235   0.53728   0.88889   0.00000  Uiso   1.00
H169   H     0.37359   0.41748   0.61456   0.00000  Uiso   1.00
H170   H     0.50223   0.49201   0.55783   0.00000  Uiso   1.00
H171   H     0.23980   0.34973   0.55418   0.00000  Uiso   1.00
H172   H     0.39916   0.39711   0.72886   0.00000  Uiso   1.00
H173   H     0.61256   0.59604   0.49931   0.00000  Uiso   1.00
H174   H     0.05921   0.29603   0.49162   0.00000  Uiso   1.00
H175   H     0.39524   0.39594   0.85997   0.00000  Uiso   1.00
O176   O     0.58623   0.71871   0.47705   0.00000  Uiso   1.00
O177   O     0.86026   0.32511   0.46697   0.00000  Uiso   1.00
O178   O     0.30113   0.45618   0.95024   0.00000  Uiso   1.00
N179   N     0.43212   0.69389   0.52922   0.00000  Uiso   1.00
N180   N     0.91478   0.41341   0.52202   0.00000  Uiso   1.00
N181   N     0.22892   0.50680   0.86640   0.00000  Uiso   1.00
N182   N     0.54668   0.61784   0.51366   0.00000  Uiso   1.00
N183   N     0.02934   0.33735   0.50646   0.00000  Uiso   1.00
N184   N     0.34348   0.43074   0.85084   0.00000  Uiso   1.00
C185   C     0.68191   0.95525   0.35941   0.00000  Uiso   1.00
C186   C     0.77887   0.93273   0.39390   0.00000  Uiso   1.00
C187   C     0.79657   0.87143   0.41424   0.00000  Uiso   1.00
C188   C     0.89016   0.86042   0.44491   0.00000  Uiso   1.00
C189   C     0.02956   0.81807   0.49697   0.00000  Uiso   1.00
C190   C     0.63629   0.01003   0.39589   0.00000  Uiso   1.00
C191   C     0.53411   0.01373   0.41790   0.00000  Uiso   1.00
C192   C     0.50767   0.06779   0.45024   0.00000  Uiso   1.00
C193   C     0.42569   0.14547   0.50536   0.00000  Uiso   1.00
C194   C     0.72288   0.98428   0.30098   0.00000  Uiso   1.00
C195   C     0.69348   0.96635   0.24318   0.00000  Uiso   1.00
C196   C     0.73993   0.99875   0.19562   0.00000  Uiso   1.00
C197   C     0.79239   0.03645   0.10338   0.00000  Uiso   1.00
C198   C     0.81662   0.04469   0.37771   0.00000  Uiso   1.00
C199   C     0.85204   0.98131   0.40384   0.00000  Uiso   1.00
C200   C     0.94562   0.97039   0.43448   0.00000  Uiso   1.00
C201   C     0.96346   0.90908   0.45486   0.00000  Uiso   1.00
C202   C     0.70945   0.05861   0.40583   0.00000  Uiso   1.00
C203   C     0.68316   0.11268   0.43814   0.00000  Uiso   1.00
C204   C     0.58097   0.11646   0.46019   0.00000  Uiso   1.00
C205   C     0.79605   0.03287   0.31092   0.00000  Uiso   1.00
C206   C     0.84254   0.06530   0.26343   0.00000  Uiso   1.00
C207   C     0.81323   0.04741   0.20557   0.00000  Uiso   1.00
H208   H     0.62493   0.91743   0.35167   0.00000  Uiso   1.00
H209   H     0.73992   0.83385   0.40654   0.00000  Uiso   1.00
H210   H     0.47750   0.97613   0.41019   0.00000  Uiso   1.00
H211   H     0.63686   0.92875   0.23551   0.00000  Uiso   1.00
H212   H     0.89966   0.76262   0.47177   0.00000  Uiso   1.00
H213   H     0.34632   0.06263   0.47946   0.00000  Uiso   1.00
H214   H     0.68235   0.96272   0.11111   0.00000  Uiso   1.00
H215   H     0.87359   0.08252   0.38544   0.00000  Uiso   1.00
H216   H     0.00223   0.00799   0.44217   0.00000  Uiso   1.00
H217   H     0.73980   0.15027   0.44582   0.00000  Uiso   1.00
H218   H     0.89916   0.10289   0.27114   0.00000  Uiso   1.00
H219   H     0.11256   0.90396   0.50069   0.00000  Uiso   1.00
H220   H     0.55921   0.20397   0.50838   0.00000  Uiso   1.00
H221   H     0.89524   0.10406   0.14003   0.00000  Uiso   1.00
O222   O     0.08623   0.78129   0.52295   0.00000  Uiso   1.00
O223   O     0.36026   0.17489   0.53303   0.00000  Uiso   1.00
O224   O     0.80113   0.04382   0.04976   0.00000  Uiso   1.00
N225   N     0.93212   0.80611   0.47078   0.00000  Uiso   1.00
N226   N     0.41478   0.08659   0.47798   0.00000  Uiso   1.00
N227   N     0.72892   0.99320   0.13360   0.00000  Uiso   1.00
N228   N     0.04668   0.88216   0.48634   0.00000  Uiso   1.00
N229   N     0.52934   0.16265   0.49354   0.00000  Uiso   1.00
N230   N     0.84348   0.06926   0.14916   0.00000  Uiso   1.00
C231   C     0.18191   0.45525   0.35941   0.00000  Uiso   1.00
C232   C     0.27887   0.43273   0.39390   0.00000  Uiso   1.00
C233   C     0.29657   0.37143   0.41424   0.00000  Uiso   1.00
C234   C     0.39016   0.36042   0.44491   0.00000  Uiso   1.00
C235   C     0.52956   0.31807   0.49697   0.00000  Uiso   1.00
C236   C     0.13629   0.51003   0.39589   0.00000  Uiso   1.00
C237   C     0.03411   0.51373   0.41790   0.00000  Uiso   1.00
C238   C     0.00767   0.56779   0.45024   0.00000  Uiso   1.00
C239   C     0.92569   0.64547   0.50536   0.00000  Uiso   1.00
C240   C     0.22288   0.48428   0.30098   0.00000  Uiso   1.00
C241   C     0.19348   0.46635   0.24318   0.00000  Uiso   1.00
C242   C     0.23993   0.49875   0.19562   0.00000  Uiso   1.00
C243   C     0.29239   0.53645   0.10338   0.00000  Uiso   1.00
C244   C     0.31662   0.54469   0.37771   0.00000  Uiso   1.00
C245   C     0.35204   0.48131   0.40384   0.00000  Uiso   1.00
C246   C     0.44562   0.47039   0.43448   0.00000  Uiso   1.00
C247   C     0.46346   0.40908   0.45486   0.00000  Uiso   1.00
C248   C     0.20945   0.55861   0.40583   0.00000  Uiso   1.00
C249   C     0.18316   0.61268   0.43814   0.00000  Uiso   1.00
C250   C     0.08097   0.61646   0.46019   0.00000  Uiso   1.00
C251   C     0.29605   0.53287   0.31092   0.00000  Uiso   1.00
C252   C     0.34254   0.56530   0.26343   0.00000  Uiso   1.00
C253   C     0.31323   0.54741   0.20557   0.00000  Uiso   1.00
H254   H     0.12493   0.41743   0.35167   0.00000  Uiso   1.00
H255   H     0.23992   0.33385   0.40654   0.00000  Uiso   1.00
H256   H     0.97750   0.47613   0.41019   0.00000  Uiso   1.00
H257   H     0.13686   0.42875   0.23551   0.00000  Uiso   1.00
H258   H     0.39966   0.26262   0.47177   0.00000  Uiso   1.00
H259   H     0.84632   0.56263   0.47946   0.00000  Uiso   1.00
H260   H     0.18235   0.46272   0.11111   0.00000  Uiso   1.00
H261   H     0.37359   0.58252   0.38544   0.00000  Uiso   1.00
H262   H     0.50223   0.50799   0.44217   0.00000  Uiso   1.00
H263   H     0.23980   0.65027   0.44582   0.00000  Uiso   1.00
H264   H     0.39916   0.60289   0.27114   0.00000  Uiso   1.00
H265   H     0.61256   0.40396   0.50069   0.00000  Uiso   1.00
H266   H     0.05921   0.70397   0.50838   0.00000  Uiso   1.00
H267   H     0.39524   0.60406   0.14003   0.00000  Uiso   1.00
O268   O     0.58623   0.28129   0.52295   0.00000  Uiso   1.00
O269   O     0.86026   0.67489   0.53303   0.00000  Uiso   1.00
O270   O     0.30113   0.54382   0.04976   0.00000  Uiso   1.00
N271   N     0.43212   0.30611   0.47078   0.00000  Uiso   1.00
N272   N     0.91478   0.58659   0.47798   0.00000  Uiso   1.00
N273   N     0.22892   0.49320   0.13360   0.00000  Uiso   1.00
N274   N     0.54668   0.38216   0.48634   0.00000  Uiso   1.00
N275   N     0.02934   0.66265   0.49354   0.00000  Uiso   1.00
N276   N     0.34348   0.56926   0.14916   0.00000  Uiso   1.00
C277   C     0.31809   0.04475   0.85941   0.00000  Uiso   1.00
C278   C     0.22113   0.06727   0.89390   0.00000  Uiso   1.00
C279   C     0.20343   0.12857   0.91424   0.00000  Uiso   1.00
C280   C     0.10984   0.13958   0.94491   0.00000  Uiso   1.00
C281   C     0.97044   0.18193   0.99697   0.00000  Uiso   1.00
C282   C     0.36371   0.98997   0.89589   0.00000  Uiso   1.00
C283   C     0.46589   0.98627   0.91790   0.00000  Uiso   1.00
C284   C     0.49233   0.93221   0.95024   0.00000  Uiso   1.00
C285   C     0.57431   0.85453   0.00536   0.00000  Uiso   1.00
C286   C     0.27712   0.01572   0.80098   0.00000  Uiso   1.00
C287   C     0.30652   0.03365   0.74318   0.00000  Uiso   1.00
C288   C     0.26007   0.00125   0.69562   0.00000  Uiso   1.00
C289   C     0.20761   0.96355   0.60338   0.00000  Uiso   1.00
C290   C     0.18338   0.95531   0.87771   0.00000  Uiso   1.00
C291   C     0.14796   0.01869   0.90384   0.00000  Uiso   1.00
C292   C     0.05438   0.02961   0.93448   0.00000  Uiso   1.00
C293   C     0.03654   0.09092   0.95486   0.00000  Uiso   1.00
C294   C     0.29055   0.94139   0.90583   0.00000  Uiso   1.00
C295   C     0.31684   0.88732   0.93814   0.00000  Uiso   1.00
C296   C     0.41903   0.88354   0.96019   0.00000  Uiso   1.00
C297   C     0.20395   0.96713   0.81092   0.00000  Uiso   1.00
C298   C     0.15746   0.93470   0.76343   0.00000  Uiso   1.00
C299   C     0.18677   0.95259   0.70557   0.00000  Uiso   1.00
H300   H     0.37507   0.08257   0.85167   0.00000  Uiso   1.00
H301   H     0.26008   0.16615   0.90654   0.00000  Uiso   1.00
H302   H     0.52250   0.02387   0.91019   0.00000  Uiso   1.00
H303   H     0.36314   0.07125   0.73551   0.00000  Uiso   1.00
H304   H     0.10034   0.23738   0.97177   0.00000  Uiso   1.00
H305   H     0.65368   0.93737   0.97946   0.00000  Uiso   1.00
H306   H     0.31765   0.03728   0.61111   0.00000  Uiso   1.00
H307   H     0.12641   0.91748   0.88544   0.00000  Uiso   1.00
H308   H     0.99777   0.99201   0.94217   0.00000  Uiso   1.00
H309   H     0.26020   0.84973   0.94582   0.00000  Uiso   1.00
H310   H     0.10084   0.89711   0.77114   0.00000  Uiso   1.00
H311   H     0.88744   0.09604   0.00069   0.00000  Uiso   1.00
H312   H     0.44079   0.79603   0.00838   0.00000  Uiso   1.00
H313   H     0.10476   0.89594   0.64003   0.00000  Uiso   1.00
O314   O     0.91377   0.21871   0.02295   0.00000  Uiso   1.00
O315   O     0.63974   0.82511   0.03303   0.00000  Uiso   1.00
O316   O     0.19887   0.95618   0.54976   0.00000  Uiso   1.00
N317   N     0.06788   0.19389   0.97078   0.00000  Uiso   1.00
N318   N     0.58522   0.91341   0.97798   0.00000  Uiso   1.00
N319   N     0.27108   0.00680   0.63360   0.00000  Uiso   1.00
N320   N     0.95332   0.11784   0.98634   0.00000  Uiso   1.00
N321   N     0.47066   0.83735   0.99354   0.00000  Uiso   1.00
N322   N     0.15652   0.93074   0.64916   0.00000  Uiso   1.00
C323   C     0.81809   0.54475   0.85941   0.00000  Uiso   1.00
C324   C     0.72113   0.56727   0.89390   0.00000  Uiso   1.00
C325   C     0.70343   0.62857   0.91424   0.00000  Uiso   1.00
C326   C     0.60984   0.63958   0.94491   0.00000  Uiso   1.00
C327   C     0.47044   0.68193   0.99697   0.00000  Uiso   1.00
C328   C     0.86371   0.48997   0.89589   0.00000  Uiso   1.00
C329   C     0.96589   0.48627   0.91790   0.00000  Uiso   1.00
C330   C     0.99233   0.43221   0.95024   0.00000  Uiso   1.00
C331   C     0.07431   0.35453   0.00536   0.00000  Uiso   1.00
C332   C     0.77712   0.51572   0.80098   0.00000  Uiso   1.00
C333   C     0.80652   0.53365   0.74318   0.00000  Uiso   1.00
C334   C     0.76007   0.50125   0.69562   0.00000  Uiso   1.00
C335   C     0.70761   0.46355   0.60338   0.00000  Uiso   1.00
C336   C     0.68338   0.45531   0.87771   0.00000  Uiso   1.00
C337   C     0.64796   0.51869   0.90384   0.00000  Uiso   1.00
C338   C     0.55438   0.52961   0.93448   0.00000  Uiso   1.00
C339   C     0.53654   0.59092   0.95486   0.00000  Uiso   1.00
C340   C     0.79055   0.44139   0.90583   0.00000  Uiso   1.00
C341   C     0.81684   0.38732   0.93814   0.00000  Uiso   1.00
C342   C     0.91903   0.38354   0.96019   0.00000  Uiso   1.00
C343   C     0.70395   0.46713   0.81092   0.00000  Uiso   1.00
C344   C     0.65746   0.43470   0.76343   0.00000  Uiso   1.00
C345   C     0.68677   0.45259   0.70557   0.00000  Uiso   1.00
H346   H     0.87507   0.58257   0.85167   0.00000  Uiso   1.00
H347   H     0.76008   0.66615   0.90654   0.00000  Uiso   1.00
H348   H     0.02250   0.52387   0.91019   0.00000  Uiso   1.00
H349   H     0.86314   0.57125   0.73551   0.00000  Uiso   1.00
H350   H     0.60034   0.73738   0.97177   0.00000  Uiso   1.00
H351   H     0.15368   0.43737   0.97946   0.00000  Uiso   1.00
H352   H     0.81765   0.53728   0.61111   0.00000  Uiso   1.00
H353   H     0.62641   0.41748   0.88544   0.00000  Uiso   1.00
H354   H     0.49777   0.49201   0.94217   0.00000  Uiso   1.00
H355   H     0.76020   0.34973   0.94582   0.00000  Uiso   1.00
H356   H     0.60084   0.39711   0.77114   0.00000  Uiso   1.00
H357   H     0.38744   0.59604   0.00069   0.00000  Uiso   1.00
H358   H     0.94079   0.29603   0.00838   0.00000  Uiso   1.00
H359   H     0.60476   0.39594   0.64003   0.00000  Uiso   1.00
O360   O     0.41377   0.71871   0.02295   0.00000  Uiso   1.00
O361   O     0.13974   0.32511   0.03303   0.00000  Uiso   1.00
O362   O     0.69887   0.45618   0.54976   0.00000  Uiso   1.00
N363   N     0.56788   0.69389   0.97078   0.00000  Uiso   1.00
N364   N     0.08522   0.41341   0.97798   0.00000  Uiso   1.00
N365   N     0.77108   0.50680   0.63360   0.00000  Uiso   1.00
N366   N     0.45332   0.61784   0.98634   0.00000  Uiso   1.00
N367   N     0.97066   0.33735   0.99354   0.00000  Uiso   1.00
N368   N     0.65652   0.43074   0.64916   0.00000  Uiso   1.00
