data_job_03399
_audit_creation_date              2018-12-19
_audit_creation_method            'Materials Studio'
_symmetry_space_group_name_H-M    'P1'
_symmetry_Int_Tables_number       1
_symmetry_cell_setting            triclinic
loop_
_symmetry_equiv_pos_as_xyz
  x,y,z
_cell_length_a                    23.2743
_cell_length_b                    23.3339
_cell_length_c                    10.0591
_cell_angle_alpha                 90.0000
_cell_angle_beta                  90.0000
_cell_angle_gamma                 90.0000
loop_
_atom_site_label
_atom_site_type_symbol
_atom_site_fract_x
_atom_site_fract_y
_atom_site_fract_z
_atom_site_U_iso_or_equiv
_atom_site_adp_type
_atom_site_occupancy
C1     C     0.83093   0.90870   0.28077   0.00000  Uiso   1.00
C2     C     0.88026   0.90524   0.38024   0.00000  Uiso   1.00
C3     C     0.87463   0.90224   0.51741   0.00000  Uiso   1.00
C4     C     0.92498   0.89936   0.59112   0.00000  Uiso   1.00
C5     C     0.99335   0.89401   0.75491   0.00000  Uiso   1.00
C6     C     0.84159   0.96262   0.19874   0.00000  Uiso   1.00
C7     C     0.80345   0.00785   0.18330   0.00000  Uiso   1.00
C8     C     0.82126   0.05327   0.10420   0.00000  Uiso   1.00
C9     C     0.82958   0.13698   0.98614   0.00000  Uiso   1.00
C10    C     0.83909   0.85839   0.18587   0.00000  Uiso   1.00
C11    C     0.79884   0.81599   0.15957   0.00000  Uiso   1.00
C12    C     0.81454   0.77366   0.06962   0.00000  Uiso   1.00
C13    C     0.81898   0.69554   0.93157   0.00000  Uiso   1.00
C14    C     0.93036   0.90892   0.16774   0.00000  Uiso   1.00
C15    C     0.93426   0.90537   0.31884   0.00000  Uiso   1.00
C16    C     0.98464   0.90249   0.39236   0.00000  Uiso   1.00
C17    C     0.97909   0.89948   0.52962   0.00000  Uiso   1.00
C18    C     0.89559   0.96274   0.13735   0.00000  Uiso   1.00
C19    C     0.91346   0.00810   0.05825   0.00000  Uiso   1.00
C20    C     0.87536   0.05339   0.04270   0.00000  Uiso   1.00
C21    C     0.89310   0.85851   0.12448   0.00000  Uiso   1.00
C22    C     0.90885   0.81624   0.03453   0.00000  Uiso   1.00
C23    C     0.86864   0.77379   0.00811   0.00000  Uiso   1.00
H24    H     0.78889   0.90861   0.32856   0.00000  Uiso   1.00
H25    H     0.83283   0.90215   0.56488   0.00000  Uiso   1.00
H26    H     0.76166   0.00775   0.23081   0.00000  Uiso   1.00
H27    H     0.75706   0.81592   0.20710   0.00000  Uiso   1.00
H28    H     0.90536   0.89507   0.79982   0.00000  Uiso   1.00
H29    H     0.75529   0.11771   0.09537   0.00000  Uiso   1.00
H30    H     0.74558   0.71320   0.04537   0.00000  Uiso   1.00
H31    H     0.97241   0.90902   0.11994   0.00000  Uiso   1.00
H32    H     0.02642   0.90258   0.34483   0.00000  Uiso   1.00
H33    H     0.95525   0.00818   0.01075   0.00000  Uiso   1.00
H34    H     0.95065   0.81635   0.98704   0.00000  Uiso   1.00
H35    H     0.06249   0.89543   0.62122   0.00000  Uiso   1.00
H36    H     0.91242   0.11806   0.91676   0.00000  Uiso   1.00
H37    H     0.90271   0.71355   0.86677   0.00000  Uiso   1.00
O38    O     0.01615   0.89103   0.86222   0.00000  Uiso   1.00
O39    O     0.81925   0.18312   0.93799   0.00000  Uiso   1.00
O40    O     0.80651   0.65241   0.87240   0.00000  Uiso   1.00
N41    N     0.93493   0.89603   0.72692   0.00000  Uiso   1.00
N42    N     0.79463   0.10419   0.06832   0.00000  Uiso   1.00
N43    N     0.78554   0.72601   0.02155   0.00000  Uiso   1.00
N44    N     0.01948   0.89622   0.63082   0.00000  Uiso   1.00
N45    N     0.87917   0.10437   0.97222   0.00000  Uiso   1.00
N46    N     0.87009   0.72620   0.92544   0.00000  Uiso   1.00
C47    C     0.16907   0.09130   0.28077   0.00000  Uiso   1.00
C48    C     0.11974   0.09476   0.38024   0.00000  Uiso   1.00
C49    C     0.12537   0.09776   0.51741   0.00000  Uiso   1.00
C50    C     0.07502   0.10064   0.59112   0.00000  Uiso   1.00
C51    C     0.00665   0.10599   0.75491   0.00000  Uiso   1.00
C52    C     0.15841   0.03738   0.19874   0.00000  Uiso   1.00
C53    C     0.19655   0.99215   0.18330   0.00000  Uiso   1.00
C54    C     0.17874   0.94673   0.10420   0.00000  Uiso   1.00
C55    C     0.17042   0.86302   0.98614   0.00000  Uiso   1.00
C56    C     0.16091   0.14161   0.18587   0.00000  Uiso   1.00
C57    C     0.20116   0.18401   0.15957   0.00000  Uiso   1.00
C58    C     0.18546   0.22634   0.06962   0.00000  Uiso   1.00
C59    C     0.18102   0.30446   0.93157   0.00000  Uiso   1.00
C60    C     0.06964   0.09108   0.16774   0.00000  Uiso   1.00
C61    C     0.06574   0.09463   0.31884   0.00000  Uiso   1.00
C62    C     0.01536   0.09751   0.39236   0.00000  Uiso   1.00
C63    C     0.02091   0.10052   0.52962   0.00000  Uiso   1.00
C64    C     0.10441   0.03726   0.13735   0.00000  Uiso   1.00
C65    C     0.08654   0.99190   0.05825   0.00000  Uiso   1.00
C66    C     0.12464   0.94661   0.04270   0.00000  Uiso   1.00
C67    C     0.10690   0.14149   0.12448   0.00000  Uiso   1.00
C68    C     0.09115   0.18376   0.03453   0.00000  Uiso   1.00
C69    C     0.13136   0.22621   0.00811   0.00000  Uiso   1.00
H70    H     0.21111   0.09139   0.32856   0.00000  Uiso   1.00
H71    H     0.16717   0.09785   0.56488   0.00000  Uiso   1.00
H72    H     0.23834   0.99225   0.23081   0.00000  Uiso   1.00
H73    H     0.24294   0.18408   0.20710   0.00000  Uiso   1.00
H74    H     0.09464   0.10493   0.79982   0.00000  Uiso   1.00
H75    H     0.24471   0.88229   0.09537   0.00000  Uiso   1.00
H76    H     0.25442   0.28680   0.04537   0.00000  Uiso   1.00
H77    H     0.02759   0.09098   0.11994   0.00000  Uiso   1.00
H78    H     0.97358   0.09742   0.34483   0.00000  Uiso   1.00
H79    H     0.04475   0.99182   0.01075   0.00000  Uiso   1.00
H80    H     0.04935   0.18365   0.98704   0.00000  Uiso   1.00
H81    H     0.93751   0.10457   0.62122   0.00000  Uiso   1.00
H82    H     0.08758   0.88194   0.91676   0.00000  Uiso   1.00
H83    H     0.09729   0.28645   0.86677   0.00000  Uiso   1.00
O84    O     0.98385   0.10897   0.86222   0.00000  Uiso   1.00
O85    O     0.18075   0.81688   0.93799   0.00000  Uiso   1.00
O86    O     0.19349   0.34759   0.87240   0.00000  Uiso   1.00
N87    N     0.06507   0.10397   0.72692   0.00000  Uiso   1.00
N88    N     0.20537   0.89581   0.06832   0.00000  Uiso   1.00
N89    N     0.21446   0.27399   0.02155   0.00000  Uiso   1.00
N90    N     0.98052   0.10378   0.63082   0.00000  Uiso   1.00
N91    N     0.12083   0.89563   0.97222   0.00000  Uiso   1.00
N92    N     0.12991   0.27380   0.92544   0.00000  Uiso   1.00
C93    C     0.66907   0.40870   0.71923   0.00000  Uiso   1.00
C94    C     0.61974   0.40524   0.61976   0.00000  Uiso   1.00
C95    C     0.62537   0.40224   0.48259   0.00000  Uiso   1.00
C96    C     0.57502   0.39936   0.40888   0.00000  Uiso   1.00
C97    C     0.50665   0.39401   0.24509   0.00000  Uiso   1.00
C98    C     0.65841   0.46262   0.80126   0.00000  Uiso   1.00
C99    C     0.69655   0.50785   0.81670   0.00000  Uiso   1.00
C100   C     0.67874   0.55327   0.89580   0.00000  Uiso   1.00
C101   C     0.67042   0.63698   0.01386   0.00000  Uiso   1.00
C102   C     0.66091   0.35839   0.81413   0.00000  Uiso   1.00
C103   C     0.70116   0.31599   0.84043   0.00000  Uiso   1.00
C104   C     0.68546   0.27366   0.93038   0.00000  Uiso   1.00
C105   C     0.68102   0.19554   0.06843   0.00000  Uiso   1.00
C106   C     0.56964   0.40892   0.83226   0.00000  Uiso   1.00
C107   C     0.56574   0.40537   0.68116   0.00000  Uiso   1.00
C108   C     0.51536   0.40249   0.60764   0.00000  Uiso   1.00
C109   C     0.52091   0.39948   0.47038   0.00000  Uiso   1.00
C110   C     0.60441   0.46274   0.86265   0.00000  Uiso   1.00
C111   C     0.58654   0.50810   0.94175   0.00000  Uiso   1.00
C112   C     0.62464   0.55339   0.95730   0.00000  Uiso   1.00
C113   C     0.60690   0.35851   0.87552   0.00000  Uiso   1.00
C114   C     0.59115   0.31624   0.96547   0.00000  Uiso   1.00
C115   C     0.63136   0.27379   0.99189   0.00000  Uiso   1.00
H116   H     0.71111   0.40861   0.67144   0.00000  Uiso   1.00
H117   H     0.66717   0.40215   0.43512   0.00000  Uiso   1.00
H118   H     0.73834   0.50775   0.76919   0.00000  Uiso   1.00
H119   H     0.74294   0.31592   0.79290   0.00000  Uiso   1.00
H120   H     0.59464   0.39507   0.20018   0.00000  Uiso   1.00
H121   H     0.74471   0.61771   0.90463   0.00000  Uiso   1.00
H122   H     0.75442   0.21320   0.95463   0.00000  Uiso   1.00
H123   H     0.52759   0.40902   0.88006   0.00000  Uiso   1.00
H124   H     0.47358   0.40258   0.65517   0.00000  Uiso   1.00
H125   H     0.54475   0.50818   0.98925   0.00000  Uiso   1.00
H126   H     0.54935   0.31635   0.01296   0.00000  Uiso   1.00
H127   H     0.43751   0.39543   0.37878   0.00000  Uiso   1.00
H128   H     0.58758   0.61806   0.08324   0.00000  Uiso   1.00
H129   H     0.59729   0.21355   0.13323   0.00000  Uiso   1.00
O130   O     0.48385   0.39103   0.13778   0.00000  Uiso   1.00
O131   O     0.68075   0.68312   0.06201   0.00000  Uiso   1.00
O132   O     0.69349   0.15241   0.12760   0.00000  Uiso   1.00
N133   N     0.56507   0.39603   0.27308   0.00000  Uiso   1.00
N134   N     0.70537   0.60419   0.93168   0.00000  Uiso   1.00
N135   N     0.71446   0.22601   0.97845   0.00000  Uiso   1.00
N136   N     0.48052   0.39622   0.36918   0.00000  Uiso   1.00
N137   N     0.62083   0.60437   0.02778   0.00000  Uiso   1.00
N138   N     0.62991   0.22620   0.07456   0.00000  Uiso   1.00
C139   C     0.33093   0.59130   0.71923   0.00000  Uiso   1.00
C140   C     0.38026   0.59476   0.61976   0.00000  Uiso   1.00
C141   C     0.37463   0.59776   0.48259   0.00000  Uiso   1.00
C142   C     0.42498   0.60064   0.40888   0.00000  Uiso   1.00
C143   C     0.49335   0.60599   0.24509   0.00000  Uiso   1.00
C144   C     0.34159   0.53738   0.80126   0.00000  Uiso   1.00
C145   C     0.30345   0.49215   0.81670   0.00000  Uiso   1.00
C146   C     0.32126   0.44673   0.89580   0.00000  Uiso   1.00
C147   C     0.32958   0.36302   0.01386   0.00000  Uiso   1.00
C148   C     0.33909   0.64161   0.81413   0.00000  Uiso   1.00
C149   C     0.29884   0.68401   0.84043   0.00000  Uiso   1.00
C150   C     0.31454   0.72634   0.93038   0.00000  Uiso   1.00
C151   C     0.31898   0.80446   0.06843   0.00000  Uiso   1.00
C152   C     0.43036   0.59108   0.83226   0.00000  Uiso   1.00
C153   C     0.43426   0.59463   0.68116   0.00000  Uiso   1.00
C154   C     0.48464   0.59751   0.60764   0.00000  Uiso   1.00
C155   C     0.47909   0.60052   0.47038   0.00000  Uiso   1.00
C156   C     0.39559   0.53726   0.86265   0.00000  Uiso   1.00
C157   C     0.41346   0.49190   0.94175   0.00000  Uiso   1.00
C158   C     0.37536   0.44661   0.95730   0.00000  Uiso   1.00
C159   C     0.39310   0.64149   0.87552   0.00000  Uiso   1.00
C160   C     0.40885   0.68376   0.96547   0.00000  Uiso   1.00
C161   C     0.36864   0.72621   0.99189   0.00000  Uiso   1.00
H162   H     0.28889   0.59139   0.67144   0.00000  Uiso   1.00
H163   H     0.33283   0.59785   0.43512   0.00000  Uiso   1.00
H164   H     0.26166   0.49225   0.76919   0.00000  Uiso   1.00
H165   H     0.25706   0.68408   0.79290   0.00000  Uiso   1.00
H166   H     0.40536   0.60493   0.20018   0.00000  Uiso   1.00
H167   H     0.25529   0.38229   0.90463   0.00000  Uiso   1.00
H168   H     0.24558   0.78680   0.95463   0.00000  Uiso   1.00
H169   H     0.47241   0.59098   0.88006   0.00000  Uiso   1.00
H170   H     0.52642   0.59742   0.65517   0.00000  Uiso   1.00
H171   H     0.45525   0.49182   0.98925   0.00000  Uiso   1.00
H172   H     0.45065   0.68365   0.01296   0.00000  Uiso   1.00
H173   H     0.56249   0.60457   0.37878   0.00000  Uiso   1.00
H174   H     0.41242   0.38194   0.08324   0.00000  Uiso   1.00
H175   H     0.40271   0.78645   0.13323   0.00000  Uiso   1.00
O176   O     0.51615   0.60897   0.13778   0.00000  Uiso   1.00
O177   O     0.31925   0.31688   0.06201   0.00000  Uiso   1.00
O178   O     0.30651   0.84759   0.12760   0.00000  Uiso   1.00
N179   N     0.43493   0.60397   0.27308   0.00000  Uiso   1.00
N180   N     0.29463   0.39581   0.93168   0.00000  Uiso   1.00
N181   N     0.28554   0.77399   0.97845   0.00000  Uiso   1.00
N182   N     0.51948   0.60378   0.36918   0.00000  Uiso   1.00
N183   N     0.37917   0.39563   0.02778   0.00000  Uiso   1.00
N184   N     0.37009   0.77380   0.07456   0.00000  Uiso   1.00
