data_job_00559
_audit_creation_date              2018-12-19
_audit_creation_method            'Materials Studio'
_symmetry_space_group_name_H-M    'P1'
_symmetry_Int_Tables_number       1
_symmetry_cell_setting            triclinic
loop_
_symmetry_equiv_pos_as_xyz
  x,y,z
_cell_length_a                    28.7286
_cell_length_b                    12.1848
_cell_length_c                    26.9036
_cell_angle_alpha                 90.0000
_cell_angle_beta                  165.6744
_cell_angle_gamma                 90.0000
loop_
_atom_site_label
_atom_site_type_symbol
_atom_site_fract_x
_atom_site_fract_y
_atom_site_fract_z
_atom_site_U_iso_or_equiv
_atom_site_adp_type
_atom_site_occupancy
C1     C     0.58940   0.11927   0.23186   0.00000  Uiso   1.00
C2     C     0.69491   0.04316   0.30572   0.00000  Uiso   1.00
C3     C     0.62131   0.95026   0.20693   0.00000  Uiso   1.00
C4     C     0.74058   0.89159   0.29928   0.00000  Uiso   1.00
C5     C     0.87613   0.76833   0.38594   0.00000  Uiso   1.00
C6     C     0.70501   0.12271   0.39920   0.00000  Uiso   1.00
C7     C     0.63988   0.09671   0.37900   0.00000  Uiso   1.00
C8     C     0.76765   0.10502   0.55005   0.00000  Uiso   1.00
C9     C     0.91884   0.10535   0.78181   0.00000  Uiso   1.00
C10    C     0.60313   0.23375   0.22346   0.00000  Uiso   1.00
C11    C     0.45234   0.30113   0.05552   0.00000  Uiso   1.00
C12    C     0.49434   0.40294   0.07862   0.00000  Uiso   1.00
C13    C     0.48733   0.57568   0.03751   0.00000  Uiso   1.00
C14    C     0.93210   0.18028   0.57154   0.00000  Uiso   1.00
C15    C     0.88105   0.07630   0.49022   0.00000  Uiso   1.00
C16    C     0.00047   0.01776   0.58274   0.00000  Uiso   1.00
C17    C     0.92705   0.92478   0.48411   0.00000  Uiso   1.00
C18    C     0.89114   0.15585   0.58370   0.00000  Uiso   1.00
C19    C     0.01904   0.16421   0.75481   0.00000  Uiso   1.00
C20    C     0.95413   0.13822   0.73488   0.00000  Uiso   1.00
C21    C     0.78927   0.26689   0.40796   0.00000  Uiso   1.00
C22    C     0.83150   0.36863   0.43133   0.00000  Uiso   1.00
C23    C     0.68081   0.43614   0.26345   0.00000  Uiso   1.00
H24    H     0.44448   0.09348   0.08823   0.00000  Uiso   1.00
H25    H     0.47725   0.92463   0.06416   0.00000  Uiso   1.00
H26    H     0.49582   0.07108   0.23620   0.00000  Uiso   1.00
H27    H     0.30831   0.27546   0.91277   0.00000  Uiso   1.00
H28    H     0.59569   0.75203   0.11888   0.00000  Uiso   1.00
H29    H     0.63483   0.06085   0.48162   0.00000  Uiso   1.00
H30    H     0.23943   0.49184   0.79959   0.00000  Uiso   1.00
H31    H     0.07702   0.20609   0.71519   0.00000  Uiso   1.00
H32    H     0.14451   0.04342   0.72552   0.00000  Uiso   1.00
H33    H     0.16307   0.18986   0.89756   0.00000  Uiso   1.00
H34    H     0.97557   0.39424   0.57412   0.00000  Uiso   1.00
H35    H     0.13727   0.84844   0.65566   0.00000  Uiso   1.00
H36    H     0.17640   0.15727   0.01840   0.00000  Uiso   1.00
H37    H     0.78100   0.58824   0.33637   0.00000  Uiso   1.00
O38    O     0.89948   0.69118   0.38279   0.00000  Uiso   1.00
O39    O     0.95080   0.09636   0.85867   0.00000  Uiso   1.00
O40    O     0.43205   0.66179   0.96387   0.00000  Uiso   1.00
N41    N     0.71388   0.79706   0.24377   0.00000  Uiso   1.00
N42    N     0.75048   0.08577   0.58292   0.00000  Uiso   1.00
N43    N     0.38081   0.48871   0.94529   0.00000  Uiso   1.00
N44    N     0.00529   0.84894   0.53261   0.00000  Uiso   1.00
N45    N     0.04189   0.13765   0.87176   0.00000  Uiso   1.00
N46    N     0.67223   0.54059   0.23413   0.00000  Uiso   1.00
C47    C     0.41060   0.61927   0.26814   0.00000  Uiso   1.00
C48    C     0.30509   0.54316   0.19428   0.00000  Uiso   1.00
C49    C     0.37869   0.45026   0.29307   0.00000  Uiso   1.00
C50    C     0.25942   0.39159   0.20072   0.00000  Uiso   1.00
C51    C     0.12387   0.26833   0.11406   0.00000  Uiso   1.00
C52    C     0.29499   0.62271   0.10080   0.00000  Uiso   1.00
C53    C     0.36012   0.59671   0.12100   0.00000  Uiso   1.00
C54    C     0.23235   0.60502   0.94995   0.00000  Uiso   1.00
C55    C     0.08116   0.60535   0.71819   0.00000  Uiso   1.00
C56    C     0.39687   0.73375   0.27654   0.00000  Uiso   1.00
C57    C     0.54766   0.80113   0.44448   0.00000  Uiso   1.00
C58    C     0.50566   0.90294   0.42138   0.00000  Uiso   1.00
C59    C     0.51267   0.07568   0.46249   0.00000  Uiso   1.00
C60    C     0.06790   0.68028   0.92846   0.00000  Uiso   1.00
C61    C     0.11895   0.57630   0.00978   0.00000  Uiso   1.00
C62    C     0.99953   0.51776   0.91726   0.00000  Uiso   1.00
C63    C     0.07295   0.42478   0.01589   0.00000  Uiso   1.00
C64    C     0.10886   0.65585   0.91630   0.00000  Uiso   1.00
C65    C     0.98096   0.66421   0.74519   0.00000  Uiso   1.00
C66    C     0.04587   0.63822   0.76512   0.00000  Uiso   1.00
C67    C     0.21073   0.76689   0.09204   0.00000  Uiso   1.00
C68    C     0.16850   0.86863   0.06867   0.00000  Uiso   1.00
C69    C     0.31919   0.93614   0.23655   0.00000  Uiso   1.00
H70    H     0.55552   0.59348   0.41177   0.00000  Uiso   1.00
H71    H     0.52275   0.42463   0.43584   0.00000  Uiso   1.00
H72    H     0.50418   0.57108   0.26380   0.00000  Uiso   1.00
H73    H     0.69169   0.77546   0.58723   0.00000  Uiso   1.00
H74    H     0.40431   0.25203   0.38112   0.00000  Uiso   1.00
H75    H     0.36517   0.56085   0.01838   0.00000  Uiso   1.00
H76    H     0.76057   0.99184   0.70041   0.00000  Uiso   1.00
H77    H     0.92298   0.70609   0.78481   0.00000  Uiso   1.00
H78    H     0.85549   0.54342   0.77448   0.00000  Uiso   1.00
H79    H     0.83693   0.68986   0.60244   0.00000  Uiso   1.00
H80    H     0.02443   0.89424   0.92588   0.00000  Uiso   1.00
H81    H     0.86273   0.34844   0.84434   0.00000  Uiso   1.00
H82    H     0.82360   0.65727   0.48160   0.00000  Uiso   1.00
H83    H     0.21900   0.08824   0.16363   0.00000  Uiso   1.00
O84    O     0.10052   0.19118   0.11721   0.00000  Uiso   1.00
O85    O     0.04920   0.59636   0.64133   0.00000  Uiso   1.00
O86    O     0.56795   0.16179   0.53613   0.00000  Uiso   1.00
N87    N     0.28612   0.29706   0.25623   0.00000  Uiso   1.00
N88    N     0.24952   0.58577   0.91708   0.00000  Uiso   1.00
N89    N     0.61919   0.98871   0.55471   0.00000  Uiso   1.00
N90    N     0.99471   0.34894   0.96739   0.00000  Uiso   1.00
N91    N     0.95811   0.63765   0.62824   0.00000  Uiso   1.00
N92    N     0.32777   0.04059   0.26587   0.00000  Uiso   1.00
C93    C     0.41060   0.88073   0.76814   0.00000  Uiso   1.00
C94    C     0.30509   0.95684   0.69428   0.00000  Uiso   1.00
C95    C     0.37869   0.04974   0.79307   0.00000  Uiso   1.00
C96    C     0.25942   0.10841   0.70072   0.00000  Uiso   1.00
C97    C     0.12387   0.23167   0.61406   0.00000  Uiso   1.00
C98    C     0.29499   0.87729   0.60080   0.00000  Uiso   1.00
C99    C     0.36012   0.90329   0.62100   0.00000  Uiso   1.00
C100   C     0.23235   0.89498   0.44995   0.00000  Uiso   1.00
C101   C     0.08116   0.89465   0.21819   0.00000  Uiso   1.00
C102   C     0.39687   0.76625   0.77654   0.00000  Uiso   1.00
C103   C     0.54766   0.69887   0.94448   0.00000  Uiso   1.00
C104   C     0.50566   0.59706   0.92138   0.00000  Uiso   1.00
C105   C     0.51267   0.42432   0.96249   0.00000  Uiso   1.00
C106   C     0.06790   0.81972   0.42846   0.00000  Uiso   1.00
C107   C     0.11895   0.92370   0.50978   0.00000  Uiso   1.00
C108   C     0.99953   0.98224   0.41726   0.00000  Uiso   1.00
C109   C     0.07295   0.07522   0.51589   0.00000  Uiso   1.00
C110   C     0.10886   0.84415   0.41630   0.00000  Uiso   1.00
C111   C     0.98096   0.83579   0.24519   0.00000  Uiso   1.00
C112   C     0.04587   0.86178   0.26512   0.00000  Uiso   1.00
C113   C     0.21073   0.73311   0.59204   0.00000  Uiso   1.00
C114   C     0.16850   0.63137   0.56867   0.00000  Uiso   1.00
C115   C     0.31919   0.56386   0.73655   0.00000  Uiso   1.00
H116   H     0.55552   0.90652   0.91177   0.00000  Uiso   1.00
H117   H     0.52275   0.07537   0.93584   0.00000  Uiso   1.00
H118   H     0.50418   0.92892   0.76380   0.00000  Uiso   1.00
H119   H     0.69169   0.72454   0.08723   0.00000  Uiso   1.00
H120   H     0.40431   0.24797   0.88112   0.00000  Uiso   1.00
H121   H     0.36517   0.93915   0.51838   0.00000  Uiso   1.00
H122   H     0.76057   0.50816   0.20041   0.00000  Uiso   1.00
H123   H     0.92298   0.79391   0.28481   0.00000  Uiso   1.00
H124   H     0.85549   0.95658   0.27448   0.00000  Uiso   1.00
H125   H     0.83693   0.81014   0.10244   0.00000  Uiso   1.00
H126   H     0.02443   0.60576   0.42588   0.00000  Uiso   1.00
H127   H     0.86273   0.15156   0.34434   0.00000  Uiso   1.00
H128   H     0.82360   0.84273   0.98160   0.00000  Uiso   1.00
H129   H     0.21900   0.41176   0.66363   0.00000  Uiso   1.00
O130   O     0.10052   0.30882   0.61721   0.00000  Uiso   1.00
O131   O     0.04920   0.90364   0.14133   0.00000  Uiso   1.00
O132   O     0.56795   0.33821   0.03613   0.00000  Uiso   1.00
N133   N     0.28612   0.20294   0.75623   0.00000  Uiso   1.00
N134   N     0.24952   0.91423   0.41708   0.00000  Uiso   1.00
N135   N     0.61919   0.51129   0.05471   0.00000  Uiso   1.00
N136   N     0.99471   0.15106   0.46739   0.00000  Uiso   1.00
N137   N     0.95811   0.86235   0.12824   0.00000  Uiso   1.00
N138   N     0.32777   0.45941   0.76587   0.00000  Uiso   1.00
C139   C     0.58940   0.38073   0.73186   0.00000  Uiso   1.00
C140   C     0.69491   0.45684   0.80572   0.00000  Uiso   1.00
C141   C     0.62131   0.54974   0.70693   0.00000  Uiso   1.00
C142   C     0.74058   0.60841   0.79928   0.00000  Uiso   1.00
C143   C     0.87613   0.73167   0.88594   0.00000  Uiso   1.00
C144   C     0.70501   0.37729   0.89920   0.00000  Uiso   1.00
C145   C     0.63988   0.40329   0.87900   0.00000  Uiso   1.00
C146   C     0.76765   0.39498   0.05005   0.00000  Uiso   1.00
C147   C     0.91884   0.39465   0.28181   0.00000  Uiso   1.00
C148   C     0.60313   0.26625   0.72346   0.00000  Uiso   1.00
C149   C     0.45234   0.19887   0.55552   0.00000  Uiso   1.00
C150   C     0.49434   0.09706   0.57862   0.00000  Uiso   1.00
C151   C     0.48733   0.92432   0.53751   0.00000  Uiso   1.00
C152   C     0.93210   0.31972   0.07154   0.00000  Uiso   1.00
C153   C     0.88105   0.42370   0.99022   0.00000  Uiso   1.00
C154   C     0.00047   0.48224   0.08274   0.00000  Uiso   1.00
C155   C     0.92705   0.57522   0.98411   0.00000  Uiso   1.00
C156   C     0.89114   0.34415   0.08370   0.00000  Uiso   1.00
C157   C     0.01904   0.33579   0.25481   0.00000  Uiso   1.00
C158   C     0.95413   0.36178   0.23488   0.00000  Uiso   1.00
C159   C     0.78927   0.23311   0.90796   0.00000  Uiso   1.00
C160   C     0.83150   0.13137   0.93133   0.00000  Uiso   1.00
C161   C     0.68081   0.06386   0.76345   0.00000  Uiso   1.00
H162   H     0.44448   0.40652   0.58823   0.00000  Uiso   1.00
H163   H     0.47725   0.57537   0.56416   0.00000  Uiso   1.00
H164   H     0.49582   0.42892   0.73620   0.00000  Uiso   1.00
H165   H     0.30831   0.22454   0.41277   0.00000  Uiso   1.00
H166   H     0.59569   0.74797   0.61888   0.00000  Uiso   1.00
H167   H     0.63483   0.43915   0.98162   0.00000  Uiso   1.00
H168   H     0.23943   0.00816   0.29959   0.00000  Uiso   1.00
H169   H     0.07702   0.29391   0.21519   0.00000  Uiso   1.00
H170   H     0.14451   0.45658   0.22552   0.00000  Uiso   1.00
H171   H     0.16307   0.31014   0.39756   0.00000  Uiso   1.00
H172   H     0.97557   0.10576   0.07412   0.00000  Uiso   1.00
H173   H     0.13727   0.65156   0.15566   0.00000  Uiso   1.00
H174   H     0.17640   0.34273   0.51840   0.00000  Uiso   1.00
H175   H     0.78100   0.91176   0.83637   0.00000  Uiso   1.00
O176   O     0.89948   0.80882   0.88279   0.00000  Uiso   1.00
O177   O     0.95080   0.40364   0.35867   0.00000  Uiso   1.00
O178   O     0.43205   0.83821   0.46387   0.00000  Uiso   1.00
N179   N     0.71388   0.70294   0.74377   0.00000  Uiso   1.00
N180   N     0.75048   0.41423   0.08292   0.00000  Uiso   1.00
N181   N     0.38081   0.01129   0.44529   0.00000  Uiso   1.00
N182   N     0.00529   0.65106   0.03261   0.00000  Uiso   1.00
N183   N     0.04189   0.36235   0.37176   0.00000  Uiso   1.00
N184   N     0.67223   0.95941   0.73413   0.00000  Uiso   1.00
