data_job_03826
_audit_creation_date              2018-12-19
_audit_creation_method            'Materials Studio'
_symmetry_space_group_name_H-M    'P1'
_symmetry_Int_Tables_number       1
_symmetry_cell_setting            triclinic
loop_
_symmetry_equiv_pos_as_xyz
  x,y,z
_cell_length_a                    17.4061
_cell_length_b                    13.5568
_cell_length_c                    9.5139
_cell_angle_alpha                 90.0000
_cell_angle_beta                  78.5254
_cell_angle_gamma                 90.0000
loop_
_atom_site_label
_atom_site_type_symbol
_atom_site_fract_x
_atom_site_fract_y
_atom_site_fract_z
_atom_site_U_iso_or_equiv
_atom_site_adp_type
_atom_site_occupancy
C1     C     0.76179   0.42624   0.33913   0.00000  Uiso   1.00
C2     C     0.75678   0.33940   0.44242   0.00000  Uiso   1.00
C3     C     0.75868   0.34555   0.58729   0.00000  Uiso   1.00
C4     C     0.75334   0.25759   0.66337   0.00000  Uiso   1.00
C5     C     0.74666   0.13655   0.83386   0.00000  Uiso   1.00
C6     C     0.83101   0.40457   0.21732   0.00000  Uiso   1.00
C7     C     0.89532   0.46553   0.17292   0.00000  Uiso   1.00
C8     C     0.95245   0.43244   0.05950   0.00000  Uiso   1.00
C9     C     0.06100   0.41261   0.88045   0.00000  Uiso   1.00
C10    C     0.68876   0.42021   0.27368   0.00000  Uiso   1.00
C11    C     0.63346   0.49433   0.27663   0.00000  Uiso   1.00
C12    C     0.57084   0.47442   0.21062   0.00000  Uiso   1.00
C13    C     0.45851   0.47888   0.11908   0.00000  Uiso   1.00
C14    C     0.74891   0.25909   0.21662   0.00000  Uiso   1.00
C15    C     0.74979   0.24861   0.37587   0.00000  Uiso   1.00
C16    C     0.74443   0.16062   0.45175   0.00000  Uiso   1.00
C17    C     0.74632   0.16664   0.59671   0.00000  Uiso   1.00
C18    C     0.82402   0.31378   0.15078   0.00000  Uiso   1.00
C19    C     0.88107   0.28060   0.03738   0.00000  Uiso   1.00
C20    C     0.94545   0.34148   0.99283   0.00000  Uiso   1.00
C21    C     0.68176   0.32942   0.20714   0.00000  Uiso   1.00
C22    C     0.61921   0.30939   0.14110   0.00000  Uiso   1.00
C23    C     0.56383   0.38347   0.14396   0.00000  Uiso   1.00
H24    H     0.76724   0.49693   0.39092   0.00000  Uiso   1.00
H25    H     0.76411   0.41583   0.63874   0.00000  Uiso   1.00
H26    H     0.90071   0.53579   0.22443   0.00000  Uiso   1.00
H27    H     0.63890   0.56458   0.32813   0.00000  Uiso   1.00
H28    H     0.75757   0.28587   0.88414   0.00000  Uiso   1.00
H29    H     0.04561   0.53883   0.01051   0.00000  Uiso   1.00
H30    H     0.49351   0.59955   0.22918   0.00000  Uiso   1.00
H31    H     0.74346   0.18840   0.16481   0.00000  Uiso   1.00
H32    H     0.73902   0.09037   0.40023   0.00000  Uiso   1.00
H33    H     0.87563   0.21033   0.98591   0.00000  Uiso   1.00
H34    H     0.61381   0.23913   0.08962   0.00000  Uiso   1.00
H35    H     0.73722   0.02171   0.69055   0.00000  Uiso   1.00
H36    H     0.02525   0.27468   0.81691   0.00000  Uiso   1.00
H37    H     0.47316   0.33540   0.03559   0.00000  Uiso   1.00
O38    O     0.74493   0.09487   0.94628   0.00000  Uiso   1.00
O39    O     0.12281   0.42676   0.80009   0.00000  Uiso   1.00
O40    O     0.39848   0.50642   0.08699   0.00000  Uiso   1.00
N41    N     0.75337   0.23715   0.80628   0.00000  Uiso   1.00
N42    N     0.02268   0.47366   0.98950   0.00000  Uiso   1.00
N43    N     0.50653   0.53043   0.19390   0.00000  Uiso   1.00
N44    N     0.74242   0.09502   0.70211   0.00000  Uiso   1.00
N45    N     0.01172   0.33152   0.88533   0.00000  Uiso   1.00
N46    N     0.49557   0.38830   0.08974   0.00000  Uiso   1.00
C47    C     0.26179   0.92624   0.33913   0.00000  Uiso   1.00
C48    C     0.25678   0.83940   0.44242   0.00000  Uiso   1.00
C49    C     0.25868   0.84555   0.58729   0.00000  Uiso   1.00
C50    C     0.25334   0.75759   0.66337   0.00000  Uiso   1.00
C51    C     0.24666   0.63655   0.83386   0.00000  Uiso   1.00
C52    C     0.33101   0.90457   0.21732   0.00000  Uiso   1.00
C53    C     0.39532   0.96553   0.17292   0.00000  Uiso   1.00
C54    C     0.45245   0.93244   0.05950   0.00000  Uiso   1.00
C55    C     0.56100   0.91261   0.88045   0.00000  Uiso   1.00
C56    C     0.18876   0.92021   0.27368   0.00000  Uiso   1.00
C57    C     0.13346   0.99433   0.27663   0.00000  Uiso   1.00
C58    C     0.07084   0.97442   0.21062   0.00000  Uiso   1.00
C59    C     0.95851   0.97888   0.11908   0.00000  Uiso   1.00
C60    C     0.24891   0.75909   0.21662   0.00000  Uiso   1.00
C61    C     0.24979   0.74861   0.37587   0.00000  Uiso   1.00
C62    C     0.24443   0.66062   0.45175   0.00000  Uiso   1.00
C63    C     0.24632   0.66664   0.59671   0.00000  Uiso   1.00
C64    C     0.32402   0.81378   0.15078   0.00000  Uiso   1.00
C65    C     0.38107   0.78060   0.03738   0.00000  Uiso   1.00
C66    C     0.44545   0.84148   0.99283   0.00000  Uiso   1.00
C67    C     0.18176   0.82942   0.20714   0.00000  Uiso   1.00
C68    C     0.11921   0.80939   0.14110   0.00000  Uiso   1.00
C69    C     0.06383   0.88347   0.14396   0.00000  Uiso   1.00
H70    H     0.26724   0.99693   0.39092   0.00000  Uiso   1.00
H71    H     0.26411   0.91583   0.63874   0.00000  Uiso   1.00
H72    H     0.40071   0.03579   0.22443   0.00000  Uiso   1.00
H73    H     0.13890   0.06458   0.32813   0.00000  Uiso   1.00
H74    H     0.25757   0.78587   0.88414   0.00000  Uiso   1.00
H75    H     0.54561   0.03883   0.01051   0.00000  Uiso   1.00
H76    H     0.99351   0.09955   0.22918   0.00000  Uiso   1.00
H77    H     0.24346   0.68840   0.16481   0.00000  Uiso   1.00
H78    H     0.23902   0.59037   0.40023   0.00000  Uiso   1.00
H79    H     0.37563   0.71033   0.98591   0.00000  Uiso   1.00
H80    H     0.11381   0.73913   0.08962   0.00000  Uiso   1.00
H81    H     0.23722   0.52171   0.69055   0.00000  Uiso   1.00
H82    H     0.52525   0.77468   0.81691   0.00000  Uiso   1.00
H83    H     0.97316   0.83540   0.03559   0.00000  Uiso   1.00
O84    O     0.24493   0.59487   0.94628   0.00000  Uiso   1.00
O85    O     0.62281   0.92676   0.80009   0.00000  Uiso   1.00
O86    O     0.89848   0.00642   0.08699   0.00000  Uiso   1.00
N87    N     0.25337   0.73715   0.80628   0.00000  Uiso   1.00
N88    N     0.52268   0.97366   0.98950   0.00000  Uiso   1.00
N89    N     0.00653   0.03043   0.19390   0.00000  Uiso   1.00
N90    N     0.24242   0.59502   0.70211   0.00000  Uiso   1.00
N91    N     0.51172   0.83152   0.88533   0.00000  Uiso   1.00
N92    N     0.99557   0.88830   0.08974   0.00000  Uiso   1.00
C93    C     0.76179   0.57376   0.83913   0.00000  Uiso   1.00
C94    C     0.75678   0.66060   0.94242   0.00000  Uiso   1.00
C95    C     0.75868   0.65445   0.08729   0.00000  Uiso   1.00
C96    C     0.75334   0.74241   0.16337   0.00000  Uiso   1.00
C97    C     0.74666   0.86345   0.33386   0.00000  Uiso   1.00
C98    C     0.83101   0.59543   0.71732   0.00000  Uiso   1.00
C99    C     0.89532   0.53447   0.67292   0.00000  Uiso   1.00
C100   C     0.95245   0.56756   0.55950   0.00000  Uiso   1.00
C101   C     0.06100   0.58739   0.38045   0.00000  Uiso   1.00
C102   C     0.68876   0.57979   0.77368   0.00000  Uiso   1.00
C103   C     0.63346   0.50567   0.77663   0.00000  Uiso   1.00
C104   C     0.57084   0.52558   0.71062   0.00000  Uiso   1.00
C105   C     0.45851   0.52112   0.61908   0.00000  Uiso   1.00
C106   C     0.74891   0.74091   0.71662   0.00000  Uiso   1.00
C107   C     0.74979   0.75139   0.87587   0.00000  Uiso   1.00
C108   C     0.74443   0.83938   0.95175   0.00000  Uiso   1.00
C109   C     0.74632   0.83336   0.09671   0.00000  Uiso   1.00
C110   C     0.82402   0.68622   0.65078   0.00000  Uiso   1.00
C111   C     0.88107   0.71940   0.53738   0.00000  Uiso   1.00
C112   C     0.94545   0.65852   0.49283   0.00000  Uiso   1.00
C113   C     0.68176   0.67058   0.70714   0.00000  Uiso   1.00
C114   C     0.61921   0.69061   0.64110   0.00000  Uiso   1.00
C115   C     0.56383   0.61653   0.64396   0.00000  Uiso   1.00
H116   H     0.76724   0.50307   0.89092   0.00000  Uiso   1.00
H117   H     0.76411   0.58417   0.13874   0.00000  Uiso   1.00
H118   H     0.90071   0.46421   0.72443   0.00000  Uiso   1.00
H119   H     0.63890   0.43542   0.82813   0.00000  Uiso   1.00
H120   H     0.75757   0.71413   0.38414   0.00000  Uiso   1.00
H121   H     0.04561   0.46117   0.51051   0.00000  Uiso   1.00
H122   H     0.49351   0.40045   0.72918   0.00000  Uiso   1.00
H123   H     0.74346   0.81160   0.66481   0.00000  Uiso   1.00
H124   H     0.73902   0.90963   0.90023   0.00000  Uiso   1.00
H125   H     0.87563   0.78967   0.48591   0.00000  Uiso   1.00
H126   H     0.61381   0.76087   0.58962   0.00000  Uiso   1.00
H127   H     0.73722   0.97829   0.19055   0.00000  Uiso   1.00
H128   H     0.02525   0.72532   0.31691   0.00000  Uiso   1.00
H129   H     0.47316   0.66460   0.53559   0.00000  Uiso   1.00
O130   O     0.74493   0.90513   0.44628   0.00000  Uiso   1.00
O131   O     0.12281   0.57324   0.30009   0.00000  Uiso   1.00
O132   O     0.39848   0.49358   0.58699   0.00000  Uiso   1.00
N133   N     0.75337   0.76285   0.30628   0.00000  Uiso   1.00
N134   N     0.02268   0.52634   0.48950   0.00000  Uiso   1.00
N135   N     0.50653   0.46957   0.69390   0.00000  Uiso   1.00
N136   N     0.74242   0.90498   0.20211   0.00000  Uiso   1.00
N137   N     0.01172   0.66848   0.38533   0.00000  Uiso   1.00
N138   N     0.49557   0.61170   0.58974   0.00000  Uiso   1.00
C139   C     0.26179   0.07376   0.83913   0.00000  Uiso   1.00
C140   C     0.25678   0.16060   0.94242   0.00000  Uiso   1.00
C141   C     0.25868   0.15445   0.08729   0.00000  Uiso   1.00
C142   C     0.25334   0.24241   0.16337   0.00000  Uiso   1.00
C143   C     0.24666   0.36345   0.33386   0.00000  Uiso   1.00
C144   C     0.33101   0.09543   0.71732   0.00000  Uiso   1.00
C145   C     0.39532   0.03447   0.67292   0.00000  Uiso   1.00
C146   C     0.45245   0.06756   0.55950   0.00000  Uiso   1.00
C147   C     0.56100   0.08739   0.38045   0.00000  Uiso   1.00
C148   C     0.18876   0.07979   0.77368   0.00000  Uiso   1.00
C149   C     0.13346   0.00567   0.77663   0.00000  Uiso   1.00
C150   C     0.07084   0.02558   0.71062   0.00000  Uiso   1.00
C151   C     0.95851   0.02112   0.61908   0.00000  Uiso   1.00
C152   C     0.24891   0.24091   0.71662   0.00000  Uiso   1.00
C153   C     0.24979   0.25139   0.87587   0.00000  Uiso   1.00
C154   C     0.24443   0.33938   0.95175   0.00000  Uiso   1.00
C155   C     0.24632   0.33336   0.09671   0.00000  Uiso   1.00
C156   C     0.32402   0.18622   0.65078   0.00000  Uiso   1.00
C157   C     0.38107   0.21940   0.53738   0.00000  Uiso   1.00
C158   C     0.44545   0.15852   0.49283   0.00000  Uiso   1.00
C159   C     0.18176   0.17058   0.70714   0.00000  Uiso   1.00
C160   C     0.11921   0.19061   0.64110   0.00000  Uiso   1.00
C161   C     0.06383   0.11653   0.64396   0.00000  Uiso   1.00
H162   H     0.26724   0.00307   0.89092   0.00000  Uiso   1.00
H163   H     0.26411   0.08417   0.13874   0.00000  Uiso   1.00
H164   H     0.40071   0.96421   0.72443   0.00000  Uiso   1.00
H165   H     0.13890   0.93542   0.82813   0.00000  Uiso   1.00
H166   H     0.25757   0.21413   0.38414   0.00000  Uiso   1.00
H167   H     0.54561   0.96117   0.51051   0.00000  Uiso   1.00
H168   H     0.99351   0.90045   0.72918   0.00000  Uiso   1.00
H169   H     0.24346   0.31160   0.66481   0.00000  Uiso   1.00
H170   H     0.23902   0.40963   0.90023   0.00000  Uiso   1.00
H171   H     0.37563   0.28967   0.48591   0.00000  Uiso   1.00
H172   H     0.11381   0.26087   0.58962   0.00000  Uiso   1.00
H173   H     0.23722   0.47829   0.19055   0.00000  Uiso   1.00
H174   H     0.52525   0.22532   0.31691   0.00000  Uiso   1.00
H175   H     0.97316   0.16460   0.53559   0.00000  Uiso   1.00
O176   O     0.24493   0.40513   0.44628   0.00000  Uiso   1.00
O177   O     0.62281   0.07324   0.30009   0.00000  Uiso   1.00
O178   O     0.89848   0.99358   0.58699   0.00000  Uiso   1.00
N179   N     0.25337   0.26285   0.30628   0.00000  Uiso   1.00
N180   N     0.52268   0.02634   0.48950   0.00000  Uiso   1.00
N181   N     0.00653   0.96957   0.69390   0.00000  Uiso   1.00
N182   N     0.24242   0.40498   0.20211   0.00000  Uiso   1.00
N183   N     0.51172   0.16848   0.38533   0.00000  Uiso   1.00
N184   N     0.99557   0.11170   0.58974   0.00000  Uiso   1.00
