data_job_00207
_audit_creation_date              2018-12-19
_audit_creation_method            'Materials Studio'
_symmetry_space_group_name_H-M    'P1'
_symmetry_Int_Tables_number       1
_symmetry_cell_setting            triclinic
loop_
_symmetry_equiv_pos_as_xyz
  x,y,z
_cell_length_a                    11.7531
_cell_length_b                    11.7531
_cell_length_c                    16.3430
_cell_angle_alpha                 90.0000
_cell_angle_beta                  90.0000
_cell_angle_gamma                 90.0000
loop_
_atom_site_label
_atom_site_type_symbol
_atom_site_fract_x
_atom_site_fract_y
_atom_site_fract_z
_atom_site_U_iso_or_equiv
_atom_site_adp_type
_atom_site_occupancy
C1     C     0.34446   0.86452   0.82111   0.00000  Uiso   1.00
C2     C     0.30643   0.89394   0.73445   0.00000  Uiso   1.00
C3     C     0.30662   0.00183   0.69995   0.00000  Uiso   1.00
C4     C     0.26855   0.01101   0.61980   0.00000  Uiso   1.00
C5     C     0.21506   0.07119   0.49194   0.00000  Uiso   1.00
C6     C     0.24359   0.80508   0.86132   0.00000  Uiso   1.00
C7     C     0.19096   0.83825   0.93350   0.00000  Uiso   1.00
C8     C     0.10000   0.77261   0.96015   0.00000  Uiso   1.00
C9     C     0.94900   0.69479   0.02929   0.00000  Uiso   1.00
C10    C     0.43679   0.77425   0.81207   0.00000  Uiso   1.00
C11    C     0.54660   0.78148   0.84287   0.00000  Uiso   1.00
C12    C     0.61829   0.68987   0.82807   0.00000  Uiso   1.00
C13    C     0.76727   0.56418   0.82075   0.00000  Uiso   1.00
C14    C     0.27652   0.68896   0.74012   0.00000  Uiso   1.00
C15    C     0.26952   0.79857   0.69046   0.00000  Uiso   1.00
C16    C     0.23145   0.80759   0.61034   0.00000  Uiso   1.00
C17    C     0.23159   0.91547   0.57573   0.00000  Uiso   1.00
C18    C     0.20668   0.70972   0.81733   0.00000  Uiso   1.00
C19    C     0.11579   0.64401   0.84389   0.00000  Uiso   1.00
C20    C     0.06303   0.67708   0.91608   0.00000  Uiso   1.00
C21    C     0.39989   0.67888   0.76808   0.00000  Uiso   1.00
C22    C     0.47143   0.58724   0.75325   0.00000  Uiso   1.00
C23    C     0.58132   0.59433   0.78400   0.00000  Uiso   1.00
H24    H     0.37318   0.93876   0.85537   0.00000  Uiso   1.00
H25    H     0.33517   0.07561   0.73402   0.00000  Uiso   1.00
H26    H     0.21954   0.91204   0.96753   0.00000  Uiso   1.00
H27    H     0.57512   0.85529   0.87691   0.00000  Uiso   1.00
H28    H     0.27672   0.18528   0.58009   0.00000  Uiso   1.00
H29    H     0.03292   0.84037   0.07248   0.00000  Uiso   1.00
H30    H     0.78274   0.72069   0.88138   0.00000  Uiso   1.00
H31    H     0.24779   0.61471   0.70587   0.00000  Uiso   1.00
H32    H     0.20290   0.73378   0.57631   0.00000  Uiso   1.00
H33    H     0.08726   0.57021   0.80983   0.00000  Uiso   1.00
H34    H     0.44284   0.51346   0.71920   0.00000  Uiso   1.00
H35    H     0.16935   0.90784   0.45209   0.00000  Uiso   1.00
H36    H     0.92556   0.56293   0.94448   0.00000  Uiso   1.00
H37    H     0.67538   0.44324   0.75338   0.00000  Uiso   1.00
O38    O     0.19573   0.13073   0.43357   0.00000  Uiso   1.00
O39    O     0.87590   0.67822   0.07957   0.00000  Uiso   1.00
O40    O     0.85964   0.52120   0.82885   0.00000  Uiso   1.00
N41    N     0.25763   0.10364   0.56774   0.00000  Uiso   1.00
N42    N     0.02969   0.78118   0.02809   0.00000  Uiso   1.00
N43    N     0.73069   0.66928   0.84945   0.00000  Uiso   1.00
N44    N     0.19986   0.95435   0.49886   0.00000  Uiso   1.00
N45    N     0.97192   0.63189   0.95921   0.00000  Uiso   1.00
N46    N     0.67292   0.51998   0.78057   0.00000  Uiso   1.00
C47    C     0.65554   0.13548   0.32111   0.00000  Uiso   1.00
C48    C     0.69357   0.10606   0.23445   0.00000  Uiso   1.00
C49    C     0.69338   0.99817   0.19995   0.00000  Uiso   1.00
C50    C     0.73145   0.98899   0.11980   0.00000  Uiso   1.00
C51    C     0.78494   0.92881   0.99194   0.00000  Uiso   1.00
C52    C     0.75641   0.19492   0.36132   0.00000  Uiso   1.00
C53    C     0.80904   0.16175   0.43350   0.00000  Uiso   1.00
C54    C     0.90000   0.22739   0.46015   0.00000  Uiso   1.00
C55    C     0.05100   0.30521   0.52929   0.00000  Uiso   1.00
C56    C     0.56321   0.22575   0.31207   0.00000  Uiso   1.00
C57    C     0.45340   0.21852   0.34287   0.00000  Uiso   1.00
C58    C     0.38171   0.31013   0.32807   0.00000  Uiso   1.00
C59    C     0.23273   0.43582   0.32075   0.00000  Uiso   1.00
C60    C     0.72348   0.31104   0.24012   0.00000  Uiso   1.00
C61    C     0.73048   0.20143   0.19046   0.00000  Uiso   1.00
C62    C     0.76855   0.19241   0.11034   0.00000  Uiso   1.00
C63    C     0.76841   0.08453   0.07573   0.00000  Uiso   1.00
C64    C     0.79332   0.29028   0.31733   0.00000  Uiso   1.00
C65    C     0.88421   0.35599   0.34389   0.00000  Uiso   1.00
C66    C     0.93697   0.32292   0.41608   0.00000  Uiso   1.00
C67    C     0.60011   0.32112   0.26808   0.00000  Uiso   1.00
C68    C     0.52857   0.41276   0.25325   0.00000  Uiso   1.00
C69    C     0.41868   0.40567   0.28400   0.00000  Uiso   1.00
H70    H     0.62682   0.06124   0.35537   0.00000  Uiso   1.00
H71    H     0.66483   0.92439   0.23402   0.00000  Uiso   1.00
H72    H     0.78046   0.08796   0.46753   0.00000  Uiso   1.00
H73    H     0.42488   0.14471   0.37691   0.00000  Uiso   1.00
H74    H     0.72328   0.81472   0.08009   0.00000  Uiso   1.00
H75    H     0.96708   0.15963   0.57248   0.00000  Uiso   1.00
H76    H     0.21726   0.27931   0.38138   0.00000  Uiso   1.00
H77    H     0.75221   0.38529   0.20587   0.00000  Uiso   1.00
H78    H     0.79710   0.26622   0.07631   0.00000  Uiso   1.00
H79    H     0.91274   0.42979   0.30983   0.00000  Uiso   1.00
H80    H     0.55716   0.48654   0.21920   0.00000  Uiso   1.00
H81    H     0.83065   0.09216   0.95209   0.00000  Uiso   1.00
H82    H     0.07444   0.43707   0.44448   0.00000  Uiso   1.00
H83    H     0.32462   0.55676   0.25338   0.00000  Uiso   1.00
O84    O     0.80427   0.86927   0.93357   0.00000  Uiso   1.00
O85    O     0.12410   0.32178   0.57957   0.00000  Uiso   1.00
O86    O     0.14036   0.47880   0.32885   0.00000  Uiso   1.00
N87    N     0.74237   0.89636   0.06774   0.00000  Uiso   1.00
N88    N     0.97031   0.21882   0.52809   0.00000  Uiso   1.00
N89    N     0.26931   0.33072   0.34945   0.00000  Uiso   1.00
N90    N     0.80014   0.04565   0.99886   0.00000  Uiso   1.00
N91    N     0.02808   0.36811   0.45921   0.00000  Uiso   1.00
N92    N     0.32708   0.48002   0.28057   0.00000  Uiso   1.00
C93    C     0.13548   0.34446   0.07111   0.00000  Uiso   1.00
C94    C     0.10606   0.30643   0.98445   0.00000  Uiso   1.00
C95    C     0.99817   0.30662   0.94995   0.00000  Uiso   1.00
C96    C     0.98899   0.26855   0.86980   0.00000  Uiso   1.00
C97    C     0.92881   0.21506   0.74194   0.00000  Uiso   1.00
C98    C     0.19492   0.24359   0.11132   0.00000  Uiso   1.00
C99    C     0.16175   0.19096   0.18350   0.00000  Uiso   1.00
C100   C     0.22739   0.10000   0.21015   0.00000  Uiso   1.00
C101   C     0.30521   0.94900   0.27929   0.00000  Uiso   1.00
C102   C     0.22575   0.43679   0.06207   0.00000  Uiso   1.00
C103   C     0.21852   0.54660   0.09287   0.00000  Uiso   1.00
C104   C     0.31013   0.61829   0.07807   0.00000  Uiso   1.00
C105   C     0.43582   0.76727   0.07075   0.00000  Uiso   1.00
C106   C     0.31104   0.27652   0.99012   0.00000  Uiso   1.00
C107   C     0.20143   0.26952   0.94046   0.00000  Uiso   1.00
C108   C     0.19241   0.23145   0.86034   0.00000  Uiso   1.00
C109   C     0.08453   0.23159   0.82573   0.00000  Uiso   1.00
C110   C     0.29028   0.20668   0.06733   0.00000  Uiso   1.00
C111   C     0.35599   0.11579   0.09389   0.00000  Uiso   1.00
C112   C     0.32292   0.06303   0.16608   0.00000  Uiso   1.00
C113   C     0.32112   0.39989   0.01808   0.00000  Uiso   1.00
C114   C     0.41276   0.47143   0.00325   0.00000  Uiso   1.00
C115   C     0.40567   0.58132   0.03400   0.00000  Uiso   1.00
H116   H     0.06124   0.37318   0.10537   0.00000  Uiso   1.00
H117   H     0.92439   0.33517   0.98402   0.00000  Uiso   1.00
H118   H     0.08796   0.21954   0.21753   0.00000  Uiso   1.00
H119   H     0.14471   0.57512   0.12691   0.00000  Uiso   1.00
H120   H     0.81472   0.27672   0.83009   0.00000  Uiso   1.00
H121   H     0.15963   0.03292   0.32248   0.00000  Uiso   1.00
H122   H     0.27931   0.78274   0.13138   0.00000  Uiso   1.00
H123   H     0.38529   0.24779   0.95587   0.00000  Uiso   1.00
H124   H     0.26622   0.20290   0.82631   0.00000  Uiso   1.00
H125   H     0.42979   0.08726   0.05983   0.00000  Uiso   1.00
H126   H     0.48654   0.44284   0.96920   0.00000  Uiso   1.00
H127   H     0.09216   0.16935   0.70209   0.00000  Uiso   1.00
H128   H     0.43707   0.92556   0.19448   0.00000  Uiso   1.00
H129   H     0.55676   0.67538   0.00338   0.00000  Uiso   1.00
O130   O     0.86927   0.19573   0.68357   0.00000  Uiso   1.00
O131   O     0.32178   0.87590   0.32957   0.00000  Uiso   1.00
O132   O     0.47880   0.85964   0.07885   0.00000  Uiso   1.00
N133   N     0.89636   0.25763   0.81774   0.00000  Uiso   1.00
N134   N     0.21882   0.02969   0.27809   0.00000  Uiso   1.00
N135   N     0.33072   0.73069   0.09945   0.00000  Uiso   1.00
N136   N     0.04565   0.19986   0.74886   0.00000  Uiso   1.00
N137   N     0.36811   0.97192   0.20921   0.00000  Uiso   1.00
N138   N     0.48002   0.67292   0.03057   0.00000  Uiso   1.00
C139   C     0.86452   0.65554   0.57111   0.00000  Uiso   1.00
C140   C     0.89394   0.69357   0.48445   0.00000  Uiso   1.00
C141   C     0.00183   0.69338   0.44995   0.00000  Uiso   1.00
C142   C     0.01101   0.73145   0.36980   0.00000  Uiso   1.00
C143   C     0.07119   0.78494   0.24194   0.00000  Uiso   1.00
C144   C     0.80508   0.75641   0.61132   0.00000  Uiso   1.00
C145   C     0.83825   0.80904   0.68350   0.00000  Uiso   1.00
C146   C     0.77261   0.90000   0.71015   0.00000  Uiso   1.00
C147   C     0.69479   0.05100   0.77929   0.00000  Uiso   1.00
C148   C     0.77425   0.56321   0.56207   0.00000  Uiso   1.00
C149   C     0.78148   0.45340   0.59287   0.00000  Uiso   1.00
C150   C     0.68987   0.38171   0.57807   0.00000  Uiso   1.00
C151   C     0.56418   0.23273   0.57075   0.00000  Uiso   1.00
C152   C     0.68896   0.72348   0.49012   0.00000  Uiso   1.00
C153   C     0.79857   0.73048   0.44046   0.00000  Uiso   1.00
C154   C     0.80759   0.76855   0.36034   0.00000  Uiso   1.00
C155   C     0.91547   0.76841   0.32573   0.00000  Uiso   1.00
C156   C     0.70972   0.79332   0.56733   0.00000  Uiso   1.00
C157   C     0.64401   0.88421   0.59389   0.00000  Uiso   1.00
C158   C     0.67708   0.93697   0.66608   0.00000  Uiso   1.00
C159   C     0.67888   0.60011   0.51808   0.00000  Uiso   1.00
C160   C     0.58724   0.52857   0.50325   0.00000  Uiso   1.00
C161   C     0.59433   0.41868   0.53400   0.00000  Uiso   1.00
H162   H     0.93876   0.62682   0.60537   0.00000  Uiso   1.00
H163   H     0.07561   0.66483   0.48402   0.00000  Uiso   1.00
H164   H     0.91204   0.78046   0.71753   0.00000  Uiso   1.00
H165   H     0.85529   0.42488   0.62691   0.00000  Uiso   1.00
H166   H     0.18528   0.72328   0.33009   0.00000  Uiso   1.00
H167   H     0.84037   0.96708   0.82248   0.00000  Uiso   1.00
H168   H     0.72069   0.21726   0.63138   0.00000  Uiso   1.00
H169   H     0.61471   0.75221   0.45587   0.00000  Uiso   1.00
H170   H     0.73378   0.79710   0.32631   0.00000  Uiso   1.00
H171   H     0.57021   0.91274   0.55983   0.00000  Uiso   1.00
H172   H     0.51346   0.55716   0.46920   0.00000  Uiso   1.00
H173   H     0.90784   0.83065   0.20209   0.00000  Uiso   1.00
H174   H     0.56293   0.07444   0.69448   0.00000  Uiso   1.00
H175   H     0.44324   0.32462   0.50338   0.00000  Uiso   1.00
O176   O     0.13073   0.80427   0.18357   0.00000  Uiso   1.00
O177   O     0.67822   0.12410   0.82957   0.00000  Uiso   1.00
O178   O     0.52120   0.14036   0.57885   0.00000  Uiso   1.00
N179   N     0.10364   0.74237   0.31774   0.00000  Uiso   1.00
N180   N     0.78118   0.97031   0.77809   0.00000  Uiso   1.00
N181   N     0.66928   0.26931   0.59945   0.00000  Uiso   1.00
N182   N     0.95435   0.80014   0.24886   0.00000  Uiso   1.00
N183   N     0.63189   0.02808   0.70921   0.00000  Uiso   1.00
N184   N     0.51998   0.32708   0.53057   0.00000  Uiso   1.00
