data_job_01177
_audit_creation_date              2018-12-19
_audit_creation_method            'Materials Studio'
_symmetry_space_group_name_H-M    'P1'
_symmetry_Int_Tables_number       1
_symmetry_cell_setting            triclinic
loop_
_symmetry_equiv_pos_as_xyz
  x,y,z
_cell_length_a                    12.5538
_cell_length_b                    21.9253
_cell_length_c                    16.7240
_cell_angle_alpha                 90.0000
_cell_angle_beta                  90.0000
_cell_angle_gamma                 90.0000
loop_
_atom_site_label
_atom_site_type_symbol
_atom_site_fract_x
_atom_site_fract_y
_atom_site_fract_z
_atom_site_U_iso_or_equiv
_atom_site_adp_type
_atom_site_occupancy
C1     C     0.21760   0.31978   0.98072   0.00000  Uiso   1.00
C2     C     0.11566   0.33682   0.93645   0.00000  Uiso   1.00
C3     C     0.05606   0.29814   0.88837   0.00000  Uiso   1.00
C4     C     0.96536   0.32242   0.85312   0.00000  Uiso   1.00
C5     C     0.81166   0.33964   0.78245   0.00000  Uiso   1.00
C6     C     0.30212   0.36498   0.95282   0.00000  Uiso   1.00
C7     C     0.39931   0.34996   0.91851   0.00000  Uiso   1.00
C8     C     0.46557   0.39794   0.89706   0.00000  Uiso   1.00
C9     C     0.60139   0.45887   0.85186   0.00000  Uiso   1.00
C10    C     0.19725   0.33426   0.06859   0.00000  Uiso   1.00
C11    C     0.20629   0.29342   0.13162   0.00000  Uiso   1.00
C12    C     0.18428   0.31555   0.20764   0.00000  Uiso   1.00
C13    C     0.15727   0.32877   0.34218   0.00000  Uiso   1.00
C14    C     0.16249   0.43171   0.00363   0.00000  Uiso   1.00
C15    C     0.08573   0.39762   0.94889   0.00000  Uiso   1.00
C16    C     0.99509   0.42197   0.91371   0.00000  Uiso   1.00
C17    C     0.93537   0.38332   0.86559   0.00000  Uiso   1.00
C18    C     0.27219   0.42577   0.96526   0.00000  Uiso   1.00
C19    C     0.33833   0.47379   0.94386   0.00000  Uiso   1.00
C20    C     0.43559   0.45885   0.90953   0.00000  Uiso   1.00
C21    C     0.16731   0.39505   0.08103   0.00000  Uiso   1.00
C22    C     0.14530   0.41725   0.15697   0.00000  Uiso   1.00
C23    C     0.15430   0.37645   0.22010   0.00000  Uiso   1.00
H24    H     0.24091   0.27246   0.97103   0.00000  Uiso   1.00
H25    H     0.07926   0.25109   0.87874   0.00000  Uiso   1.00
H26    H     0.42246   0.30291   0.90890   0.00000  Uiso   1.00
H27    H     0.22946   0.24638   0.12197   0.00000  Uiso   1.00
H28    H     0.88687   0.25422   0.78189   0.00000  Uiso   1.00
H29    H     0.61052   0.36348   0.84550   0.00000  Uiso   1.00
H30    H     0.20355   0.24427   0.29480   0.00000  Uiso   1.00
H31    H     0.13918   0.47904   0.01332   0.00000  Uiso   1.00
H32    H     0.97194   0.46902   0.92335   0.00000  Uiso   1.00
H33    H     0.31514   0.52083   0.95350   0.00000  Uiso   1.00
H34    H     0.12214   0.46430   0.16657   0.00000  Uiso   1.00
H35    H     0.79977   0.43110   0.81809   0.00000  Uiso   1.00
H36    H     0.52343   0.54035   0.88170   0.00000  Uiso   1.00
H37    H     0.11645   0.42114   0.33100   0.00000  Uiso   1.00
O38    O     0.73516   0.33234   0.74002   0.00000  Uiso   1.00
O39    O     0.68457   0.47568   0.82349   0.00000  Uiso   1.00
O40    O     0.15063   0.31928   0.41296   0.00000  Uiso   1.00
N41    N     0.88931   0.29722   0.80277   0.00000  Uiso   1.00
N42    N     0.56587   0.39937   0.86223   0.00000  Uiso   1.00
N43    N     0.18542   0.28792   0.28229   0.00000  Uiso   1.00
N44    N     0.84244   0.39240   0.82225   0.00000  Uiso   1.00
N45    N     0.51901   0.49454   0.88171   0.00000  Uiso   1.00
N46    N     0.13855   0.38310   0.30177   0.00000  Uiso   1.00
C47    C     0.28240   0.18022   0.48072   0.00000  Uiso   1.00
C48    C     0.38434   0.16318   0.43645   0.00000  Uiso   1.00
C49    C     0.44394   0.20186   0.38837   0.00000  Uiso   1.00
C50    C     0.53464   0.17758   0.35312   0.00000  Uiso   1.00
C51    C     0.68834   0.16036   0.28245   0.00000  Uiso   1.00
C52    C     0.19788   0.13502   0.45282   0.00000  Uiso   1.00
C53    C     0.10069   0.15004   0.41851   0.00000  Uiso   1.00
C54    C     0.03443   0.10206   0.39706   0.00000  Uiso   1.00
C55    C     0.89861   0.04113   0.35186   0.00000  Uiso   1.00
C56    C     0.30275   0.16574   0.56859   0.00000  Uiso   1.00
C57    C     0.29371   0.20658   0.63162   0.00000  Uiso   1.00
C58    C     0.31572   0.18445   0.70764   0.00000  Uiso   1.00
C59    C     0.34273   0.17123   0.84218   0.00000  Uiso   1.00
C60    C     0.33751   0.06829   0.50363   0.00000  Uiso   1.00
C61    C     0.41427   0.10238   0.44889   0.00000  Uiso   1.00
C62    C     0.50491   0.07803   0.41371   0.00000  Uiso   1.00
C63    C     0.56463   0.11668   0.36559   0.00000  Uiso   1.00
C64    C     0.22781   0.07423   0.46526   0.00000  Uiso   1.00
C65    C     0.16167   0.02621   0.44386   0.00000  Uiso   1.00
C66    C     0.06441   0.04115   0.40953   0.00000  Uiso   1.00
C67    C     0.33269   0.10495   0.58103   0.00000  Uiso   1.00
C68    C     0.35470   0.08275   0.65697   0.00000  Uiso   1.00
C69    C     0.34570   0.12355   0.72010   0.00000  Uiso   1.00
H70    H     0.25909   0.22754   0.47103   0.00000  Uiso   1.00
H71    H     0.42074   0.24891   0.37874   0.00000  Uiso   1.00
H72    H     0.07754   0.19709   0.40890   0.00000  Uiso   1.00
H73    H     0.27054   0.25362   0.62197   0.00000  Uiso   1.00
H74    H     0.61313   0.24578   0.28189   0.00000  Uiso   1.00
H75    H     0.88948   0.13652   0.34550   0.00000  Uiso   1.00
H76    H     0.29645   0.25573   0.79480   0.00000  Uiso   1.00
H77    H     0.36082   0.02096   0.51332   0.00000  Uiso   1.00
H78    H     0.52806   0.03098   0.42335   0.00000  Uiso   1.00
H79    H     0.18486   0.97917   0.45350   0.00000  Uiso   1.00
H80    H     0.37786   0.03570   0.66657   0.00000  Uiso   1.00
H81    H     0.70023   0.06890   0.31809   0.00000  Uiso   1.00
H82    H     0.97657   0.95965   0.38170   0.00000  Uiso   1.00
H83    H     0.38355   0.07886   0.83100   0.00000  Uiso   1.00
O84    O     0.76484   0.16766   0.24002   0.00000  Uiso   1.00
O85    O     0.81543   0.02432   0.32349   0.00000  Uiso   1.00
O86    O     0.34937   0.18072   0.91296   0.00000  Uiso   1.00
N87    N     0.61069   0.20278   0.30277   0.00000  Uiso   1.00
N88    N     0.93413   0.10063   0.36223   0.00000  Uiso   1.00
N89    N     0.31458   0.21208   0.78229   0.00000  Uiso   1.00
N90    N     0.65756   0.10760   0.32225   0.00000  Uiso   1.00
N91    N     0.98099   0.00546   0.38171   0.00000  Uiso   1.00
N92    N     0.36145   0.11690   0.80177   0.00000  Uiso   1.00
C93    C     0.78240   0.31978   0.51928   0.00000  Uiso   1.00
C94    C     0.88434   0.33682   0.56355   0.00000  Uiso   1.00
C95    C     0.94394   0.29814   0.61163   0.00000  Uiso   1.00
C96    C     0.03464   0.32242   0.64688   0.00000  Uiso   1.00
C97    C     0.18834   0.33964   0.71755   0.00000  Uiso   1.00
C98    C     0.69788   0.36498   0.54718   0.00000  Uiso   1.00
C99    C     0.60069   0.34996   0.58149   0.00000  Uiso   1.00
C100   C     0.53443   0.39794   0.60294   0.00000  Uiso   1.00
C101   C     0.39861   0.45887   0.64814   0.00000  Uiso   1.00
C102   C     0.80275   0.33426   0.43141   0.00000  Uiso   1.00
C103   C     0.79371   0.29342   0.36838   0.00000  Uiso   1.00
C104   C     0.81572   0.31555   0.29236   0.00000  Uiso   1.00
C105   C     0.84273   0.32877   0.15782   0.00000  Uiso   1.00
C106   C     0.83751   0.43171   0.49637   0.00000  Uiso   1.00
C107   C     0.91427   0.39762   0.55111   0.00000  Uiso   1.00
C108   C     0.00491   0.42197   0.58629   0.00000  Uiso   1.00
C109   C     0.06463   0.38332   0.63441   0.00000  Uiso   1.00
C110   C     0.72781   0.42577   0.53474   0.00000  Uiso   1.00
C111   C     0.66167   0.47379   0.55614   0.00000  Uiso   1.00
C112   C     0.56441   0.45885   0.59047   0.00000  Uiso   1.00
C113   C     0.83269   0.39505   0.41897   0.00000  Uiso   1.00
C114   C     0.85470   0.41725   0.34303   0.00000  Uiso   1.00
C115   C     0.84570   0.37645   0.27990   0.00000  Uiso   1.00
H116   H     0.75909   0.27246   0.52897   0.00000  Uiso   1.00
H117   H     0.92074   0.25109   0.62126   0.00000  Uiso   1.00
H118   H     0.57754   0.30291   0.59110   0.00000  Uiso   1.00
H119   H     0.77054   0.24638   0.37803   0.00000  Uiso   1.00
H120   H     0.11313   0.25422   0.71811   0.00000  Uiso   1.00
H121   H     0.38948   0.36348   0.65450   0.00000  Uiso   1.00
H122   H     0.79645   0.24427   0.20520   0.00000  Uiso   1.00
H123   H     0.86082   0.47904   0.48668   0.00000  Uiso   1.00
H124   H     0.02806   0.46902   0.57665   0.00000  Uiso   1.00
H125   H     0.68486   0.52083   0.54650   0.00000  Uiso   1.00
H126   H     0.87786   0.46430   0.33343   0.00000  Uiso   1.00
H127   H     0.20023   0.43110   0.68191   0.00000  Uiso   1.00
H128   H     0.47657   0.54035   0.61830   0.00000  Uiso   1.00
H129   H     0.88355   0.42114   0.16900   0.00000  Uiso   1.00
O130   O     0.26484   0.33234   0.75998   0.00000  Uiso   1.00
O131   O     0.31543   0.47568   0.67651   0.00000  Uiso   1.00
O132   O     0.84937   0.31928   0.08704   0.00000  Uiso   1.00
N133   N     0.11069   0.29722   0.69723   0.00000  Uiso   1.00
N134   N     0.43413   0.39937   0.63777   0.00000  Uiso   1.00
N135   N     0.81458   0.28792   0.21771   0.00000  Uiso   1.00
N136   N     0.15756   0.39240   0.67775   0.00000  Uiso   1.00
N137   N     0.48099   0.49454   0.61829   0.00000  Uiso   1.00
N138   N     0.86145   0.38310   0.19823   0.00000  Uiso   1.00
C139   C     0.71760   0.18022   0.01928   0.00000  Uiso   1.00
C140   C     0.61566   0.16318   0.06355   0.00000  Uiso   1.00
C141   C     0.55606   0.20186   0.11163   0.00000  Uiso   1.00
C142   C     0.46536   0.17758   0.14688   0.00000  Uiso   1.00
C143   C     0.31166   0.16036   0.21755   0.00000  Uiso   1.00
C144   C     0.80212   0.13502   0.04718   0.00000  Uiso   1.00
C145   C     0.89931   0.15004   0.08149   0.00000  Uiso   1.00
C146   C     0.96557   0.10206   0.10294   0.00000  Uiso   1.00
C147   C     0.10139   0.04113   0.14814   0.00000  Uiso   1.00
C148   C     0.69725   0.16574   0.93141   0.00000  Uiso   1.00
C149   C     0.70629   0.20658   0.86838   0.00000  Uiso   1.00
C150   C     0.68428   0.18445   0.79236   0.00000  Uiso   1.00
C151   C     0.65727   0.17123   0.65782   0.00000  Uiso   1.00
C152   C     0.66249   0.06829   0.99637   0.00000  Uiso   1.00
C153   C     0.58573   0.10238   0.05111   0.00000  Uiso   1.00
C154   C     0.49509   0.07803   0.08629   0.00000  Uiso   1.00
C155   C     0.43537   0.11668   0.13441   0.00000  Uiso   1.00
C156   C     0.77219   0.07423   0.03474   0.00000  Uiso   1.00
C157   C     0.83833   0.02621   0.05614   0.00000  Uiso   1.00
C158   C     0.93559   0.04115   0.09047   0.00000  Uiso   1.00
C159   C     0.66731   0.10495   0.91897   0.00000  Uiso   1.00
C160   C     0.64530   0.08275   0.84303   0.00000  Uiso   1.00
C161   C     0.65430   0.12355   0.77990   0.00000  Uiso   1.00
H162   H     0.74091   0.22754   0.02897   0.00000  Uiso   1.00
H163   H     0.57926   0.24891   0.12126   0.00000  Uiso   1.00
H164   H     0.92246   0.19709   0.09110   0.00000  Uiso   1.00
H165   H     0.72946   0.25362   0.87803   0.00000  Uiso   1.00
H166   H     0.38687   0.24578   0.21811   0.00000  Uiso   1.00
H167   H     0.11052   0.13652   0.15450   0.00000  Uiso   1.00
H168   H     0.70355   0.25573   0.70520   0.00000  Uiso   1.00
H169   H     0.63918   0.02096   0.98668   0.00000  Uiso   1.00
H170   H     0.47194   0.03098   0.07665   0.00000  Uiso   1.00
H171   H     0.81514   0.97917   0.04650   0.00000  Uiso   1.00
H172   H     0.62214   0.03570   0.83343   0.00000  Uiso   1.00
H173   H     0.29977   0.06890   0.18191   0.00000  Uiso   1.00
H174   H     0.02343   0.95965   0.11830   0.00000  Uiso   1.00
H175   H     0.61645   0.07886   0.66900   0.00000  Uiso   1.00
O176   O     0.23516   0.16766   0.25998   0.00000  Uiso   1.00
O177   O     0.18457   0.02432   0.17651   0.00000  Uiso   1.00
O178   O     0.65063   0.18072   0.58704   0.00000  Uiso   1.00
N179   N     0.38931   0.20278   0.19723   0.00000  Uiso   1.00
N180   N     0.06587   0.10063   0.13777   0.00000  Uiso   1.00
N181   N     0.68542   0.21208   0.71771   0.00000  Uiso   1.00
N182   N     0.34244   0.10760   0.17775   0.00000  Uiso   1.00
N183   N     0.01901   0.00546   0.11829   0.00000  Uiso   1.00
N184   N     0.63855   0.11690   0.69823   0.00000  Uiso   1.00
C185   C     0.78240   0.68022   0.01928   0.00000  Uiso   1.00
C186   C     0.88434   0.66318   0.06355   0.00000  Uiso   1.00
C187   C     0.94394   0.70186   0.11163   0.00000  Uiso   1.00
C188   C     0.03464   0.67758   0.14688   0.00000  Uiso   1.00
C189   C     0.18834   0.66036   0.21755   0.00000  Uiso   1.00
C190   C     0.69788   0.63502   0.04718   0.00000  Uiso   1.00
C191   C     0.60069   0.65004   0.08149   0.00000  Uiso   1.00
C192   C     0.53443   0.60206   0.10294   0.00000  Uiso   1.00
C193   C     0.39861   0.54113   0.14814   0.00000  Uiso   1.00
C194   C     0.80275   0.66574   0.93141   0.00000  Uiso   1.00
C195   C     0.79371   0.70658   0.86838   0.00000  Uiso   1.00
C196   C     0.81572   0.68445   0.79236   0.00000  Uiso   1.00
C197   C     0.84273   0.67123   0.65782   0.00000  Uiso   1.00
C198   C     0.83751   0.56829   0.99637   0.00000  Uiso   1.00
C199   C     0.91427   0.60238   0.05111   0.00000  Uiso   1.00
C200   C     0.00491   0.57803   0.08629   0.00000  Uiso   1.00
C201   C     0.06463   0.61668   0.13441   0.00000  Uiso   1.00
C202   C     0.72781   0.57423   0.03474   0.00000  Uiso   1.00
C203   C     0.66167   0.52621   0.05614   0.00000  Uiso   1.00
C204   C     0.56441   0.54115   0.09047   0.00000  Uiso   1.00
C205   C     0.83269   0.60495   0.91897   0.00000  Uiso   1.00
C206   C     0.85470   0.58275   0.84303   0.00000  Uiso   1.00
C207   C     0.84570   0.62355   0.77990   0.00000  Uiso   1.00
H208   H     0.75909   0.72754   0.02897   0.00000  Uiso   1.00
H209   H     0.92074   0.74891   0.12126   0.00000  Uiso   1.00
H210   H     0.57754   0.69709   0.09110   0.00000  Uiso   1.00
H211   H     0.77054   0.75362   0.87803   0.00000  Uiso   1.00
H212   H     0.11313   0.74578   0.21811   0.00000  Uiso   1.00
H213   H     0.38948   0.63652   0.15450   0.00000  Uiso   1.00
H214   H     0.79645   0.75573   0.70520   0.00000  Uiso   1.00
H215   H     0.86082   0.52096   0.98668   0.00000  Uiso   1.00
H216   H     0.02806   0.53098   0.07665   0.00000  Uiso   1.00
H217   H     0.68486   0.47917   0.04650   0.00000  Uiso   1.00
H218   H     0.87786   0.53570   0.83343   0.00000  Uiso   1.00
H219   H     0.20023   0.56890   0.18191   0.00000  Uiso   1.00
H220   H     0.47657   0.45965   0.11830   0.00000  Uiso   1.00
H221   H     0.88355   0.57886   0.66900   0.00000  Uiso   1.00
O222   O     0.26484   0.66766   0.25998   0.00000  Uiso   1.00
O223   O     0.31543   0.52432   0.17651   0.00000  Uiso   1.00
O224   O     0.84937   0.68072   0.58704   0.00000  Uiso   1.00
N225   N     0.11069   0.70278   0.19723   0.00000  Uiso   1.00
N226   N     0.43413   0.60063   0.13777   0.00000  Uiso   1.00
N227   N     0.81458   0.71208   0.71771   0.00000  Uiso   1.00
N228   N     0.15756   0.60760   0.17775   0.00000  Uiso   1.00
N229   N     0.48099   0.50546   0.11829   0.00000  Uiso   1.00
N230   N     0.86145   0.61690   0.69823   0.00000  Uiso   1.00
C231   C     0.71760   0.81978   0.51928   0.00000  Uiso   1.00
C232   C     0.61566   0.83682   0.56355   0.00000  Uiso   1.00
C233   C     0.55606   0.79814   0.61163   0.00000  Uiso   1.00
C234   C     0.46536   0.82242   0.64688   0.00000  Uiso   1.00
C235   C     0.31166   0.83964   0.71755   0.00000  Uiso   1.00
C236   C     0.80212   0.86498   0.54718   0.00000  Uiso   1.00
C237   C     0.89931   0.84996   0.58149   0.00000  Uiso   1.00
C238   C     0.96557   0.89794   0.60294   0.00000  Uiso   1.00
C239   C     0.10139   0.95887   0.64814   0.00000  Uiso   1.00
C240   C     0.69725   0.83426   0.43141   0.00000  Uiso   1.00
C241   C     0.70629   0.79342   0.36838   0.00000  Uiso   1.00
C242   C     0.68428   0.81555   0.29236   0.00000  Uiso   1.00
C243   C     0.65727   0.82877   0.15782   0.00000  Uiso   1.00
C244   C     0.66249   0.93171   0.49637   0.00000  Uiso   1.00
C245   C     0.58573   0.89762   0.55111   0.00000  Uiso   1.00
C246   C     0.49509   0.92197   0.58629   0.00000  Uiso   1.00
C247   C     0.43537   0.88332   0.63441   0.00000  Uiso   1.00
C248   C     0.77219   0.92577   0.53474   0.00000  Uiso   1.00
C249   C     0.83833   0.97379   0.55614   0.00000  Uiso   1.00
C250   C     0.93559   0.95885   0.59047   0.00000  Uiso   1.00
C251   C     0.66731   0.89505   0.41897   0.00000  Uiso   1.00
C252   C     0.64530   0.91725   0.34303   0.00000  Uiso   1.00
C253   C     0.65430   0.87645   0.27990   0.00000  Uiso   1.00
H254   H     0.74091   0.77246   0.52897   0.00000  Uiso   1.00
H255   H     0.57926   0.75109   0.62126   0.00000  Uiso   1.00
H256   H     0.92246   0.80291   0.59110   0.00000  Uiso   1.00
H257   H     0.72946   0.74638   0.37803   0.00000  Uiso   1.00
H258   H     0.38687   0.75422   0.71811   0.00000  Uiso   1.00
H259   H     0.11052   0.86348   0.65450   0.00000  Uiso   1.00
H260   H     0.70355   0.74427   0.20520   0.00000  Uiso   1.00
H261   H     0.63918   0.97904   0.48668   0.00000  Uiso   1.00
H262   H     0.47194   0.96902   0.57665   0.00000  Uiso   1.00
H263   H     0.81514   0.02083   0.54650   0.00000  Uiso   1.00
H264   H     0.62214   0.96430   0.33343   0.00000  Uiso   1.00
H265   H     0.29977   0.93110   0.68191   0.00000  Uiso   1.00
H266   H     0.02343   0.04035   0.61830   0.00000  Uiso   1.00
H267   H     0.61645   0.92114   0.16900   0.00000  Uiso   1.00
O268   O     0.23516   0.83234   0.75998   0.00000  Uiso   1.00
O269   O     0.18457   0.97568   0.67651   0.00000  Uiso   1.00
O270   O     0.65063   0.81928   0.08704   0.00000  Uiso   1.00
N271   N     0.38931   0.79722   0.69723   0.00000  Uiso   1.00
N272   N     0.06587   0.89937   0.63777   0.00000  Uiso   1.00
N273   N     0.68542   0.78792   0.21771   0.00000  Uiso   1.00
N274   N     0.34244   0.89240   0.67775   0.00000  Uiso   1.00
N275   N     0.01901   0.99454   0.61829   0.00000  Uiso   1.00
N276   N     0.63855   0.88310   0.19823   0.00000  Uiso   1.00
C277   C     0.21760   0.68022   0.48072   0.00000  Uiso   1.00
C278   C     0.11566   0.66318   0.43645   0.00000  Uiso   1.00
C279   C     0.05606   0.70186   0.38837   0.00000  Uiso   1.00
C280   C     0.96536   0.67758   0.35312   0.00000  Uiso   1.00
C281   C     0.81166   0.66036   0.28245   0.00000  Uiso   1.00
C282   C     0.30212   0.63502   0.45282   0.00000  Uiso   1.00
C283   C     0.39931   0.65004   0.41851   0.00000  Uiso   1.00
C284   C     0.46557   0.60206   0.39706   0.00000  Uiso   1.00
C285   C     0.60139   0.54113   0.35186   0.00000  Uiso   1.00
C286   C     0.19725   0.66574   0.56859   0.00000  Uiso   1.00
C287   C     0.20629   0.70658   0.63162   0.00000  Uiso   1.00
C288   C     0.18428   0.68445   0.70764   0.00000  Uiso   1.00
C289   C     0.15727   0.67123   0.84218   0.00000  Uiso   1.00
C290   C     0.16249   0.56829   0.50363   0.00000  Uiso   1.00
C291   C     0.08573   0.60238   0.44889   0.00000  Uiso   1.00
C292   C     0.99509   0.57803   0.41371   0.00000  Uiso   1.00
C293   C     0.93537   0.61668   0.36559   0.00000  Uiso   1.00
C294   C     0.27219   0.57423   0.46526   0.00000  Uiso   1.00
C295   C     0.33833   0.52621   0.44386   0.00000  Uiso   1.00
C296   C     0.43559   0.54115   0.40953   0.00000  Uiso   1.00
C297   C     0.16731   0.60495   0.58103   0.00000  Uiso   1.00
C298   C     0.14530   0.58275   0.65697   0.00000  Uiso   1.00
C299   C     0.15430   0.62355   0.72010   0.00000  Uiso   1.00
H300   H     0.24091   0.72754   0.47103   0.00000  Uiso   1.00
H301   H     0.07926   0.74891   0.37874   0.00000  Uiso   1.00
H302   H     0.42246   0.69709   0.40890   0.00000  Uiso   1.00
H303   H     0.22946   0.75362   0.62197   0.00000  Uiso   1.00
H304   H     0.88687   0.74578   0.28189   0.00000  Uiso   1.00
H305   H     0.61052   0.63652   0.34550   0.00000  Uiso   1.00
H306   H     0.20355   0.75573   0.79480   0.00000  Uiso   1.00
H307   H     0.13918   0.52096   0.51332   0.00000  Uiso   1.00
H308   H     0.97194   0.53098   0.42335   0.00000  Uiso   1.00
H309   H     0.31514   0.47917   0.45350   0.00000  Uiso   1.00
H310   H     0.12214   0.53570   0.66657   0.00000  Uiso   1.00
H311   H     0.79977   0.56890   0.31809   0.00000  Uiso   1.00
H312   H     0.52343   0.45965   0.38170   0.00000  Uiso   1.00
H313   H     0.11645   0.57886   0.83100   0.00000  Uiso   1.00
O314   O     0.73516   0.66766   0.24002   0.00000  Uiso   1.00
O315   O     0.68457   0.52432   0.32349   0.00000  Uiso   1.00
O316   O     0.15063   0.68072   0.91296   0.00000  Uiso   1.00
N317   N     0.88931   0.70278   0.30277   0.00000  Uiso   1.00
N318   N     0.56587   0.60063   0.36223   0.00000  Uiso   1.00
N319   N     0.18542   0.71208   0.78229   0.00000  Uiso   1.00
N320   N     0.84244   0.60760   0.32225   0.00000  Uiso   1.00
N321   N     0.51901   0.50546   0.38171   0.00000  Uiso   1.00
N322   N     0.13855   0.61690   0.80177   0.00000  Uiso   1.00
C323   C     0.28240   0.81978   0.98072   0.00000  Uiso   1.00
C324   C     0.38434   0.83682   0.93645   0.00000  Uiso   1.00
C325   C     0.44394   0.79814   0.88837   0.00000  Uiso   1.00
C326   C     0.53464   0.82242   0.85312   0.00000  Uiso   1.00
C327   C     0.68834   0.83964   0.78245   0.00000  Uiso   1.00
C328   C     0.19788   0.86498   0.95282   0.00000  Uiso   1.00
C329   C     0.10069   0.84996   0.91851   0.00000  Uiso   1.00
C330   C     0.03443   0.89794   0.89706   0.00000  Uiso   1.00
C331   C     0.89861   0.95887   0.85186   0.00000  Uiso   1.00
C332   C     0.30275   0.83426   0.06859   0.00000  Uiso   1.00
C333   C     0.29371   0.79342   0.13162   0.00000  Uiso   1.00
C334   C     0.31572   0.81555   0.20764   0.00000  Uiso   1.00
C335   C     0.34273   0.82877   0.34218   0.00000  Uiso   1.00
C336   C     0.33751   0.93171   0.00363   0.00000  Uiso   1.00
C337   C     0.41427   0.89762   0.94889   0.00000  Uiso   1.00
C338   C     0.50491   0.92197   0.91371   0.00000  Uiso   1.00
C339   C     0.56463   0.88332   0.86559   0.00000  Uiso   1.00
C340   C     0.22781   0.92577   0.96526   0.00000  Uiso   1.00
C341   C     0.16167   0.97379   0.94386   0.00000  Uiso   1.00
C342   C     0.06441   0.95885   0.90953   0.00000  Uiso   1.00
C343   C     0.33269   0.89505   0.08103   0.00000  Uiso   1.00
C344   C     0.35470   0.91725   0.15697   0.00000  Uiso   1.00
C345   C     0.34570   0.87645   0.22010   0.00000  Uiso   1.00
H346   H     0.25909   0.77246   0.97103   0.00000  Uiso   1.00
H347   H     0.42074   0.75109   0.87874   0.00000  Uiso   1.00
H348   H     0.07754   0.80291   0.90890   0.00000  Uiso   1.00
H349   H     0.27054   0.74638   0.12197   0.00000  Uiso   1.00
H350   H     0.61313   0.75422   0.78189   0.00000  Uiso   1.00
H351   H     0.88948   0.86348   0.84550   0.00000  Uiso   1.00
H352   H     0.29645   0.74427   0.29480   0.00000  Uiso   1.00
H353   H     0.36082   0.97904   0.01332   0.00000  Uiso   1.00
H354   H     0.52806   0.96902   0.92335   0.00000  Uiso   1.00
H355   H     0.18486   0.02083   0.95350   0.00000  Uiso   1.00
H356   H     0.37786   0.96430   0.16657   0.00000  Uiso   1.00
H357   H     0.70023   0.93110   0.81809   0.00000  Uiso   1.00
H358   H     0.97657   0.04035   0.88170   0.00000  Uiso   1.00
H359   H     0.38355   0.92114   0.33100   0.00000  Uiso   1.00
O360   O     0.76484   0.83234   0.74002   0.00000  Uiso   1.00
O361   O     0.81543   0.97568   0.82349   0.00000  Uiso   1.00
O362   O     0.34937   0.81928   0.41296   0.00000  Uiso   1.00
N363   N     0.61069   0.79722   0.80277   0.00000  Uiso   1.00
N364   N     0.93413   0.89937   0.86223   0.00000  Uiso   1.00
N365   N     0.31458   0.78792   0.28229   0.00000  Uiso   1.00
N366   N     0.65756   0.89240   0.82225   0.00000  Uiso   1.00
N367   N     0.98099   0.99454   0.88171   0.00000  Uiso   1.00
N368   N     0.36145   0.88310   0.30177   0.00000  Uiso   1.00
