data_job_02170
_audit_creation_date              2018-12-19
_audit_creation_method            'Materials Studio'
_symmetry_space_group_name_H-M    'P1'
_symmetry_Int_Tables_number       1
_symmetry_cell_setting            triclinic
loop_
_symmetry_equiv_pos_as_xyz
  x,y,z
_cell_length_a                    16.2766
_cell_length_b                    16.2766
_cell_length_c                    17.7208
_cell_angle_alpha                 90.0000
_cell_angle_beta                  90.0000
_cell_angle_gamma                 120.0000
loop_
_atom_site_label
_atom_site_type_symbol
_atom_site_fract_x
_atom_site_fract_y
_atom_site_fract_z
_atom_site_U_iso_or_equiv
_atom_site_adp_type
_atom_site_occupancy
C1     C     0.50623   0.91781   0.30317   0.00000  Uiso   1.00
C2     C     0.61318   0.97659   0.29117   0.00000  Uiso   1.00
C3     C     0.66072   0.06374   0.25493   0.00000  Uiso   1.00
C4     C     0.75870   0.10615   0.24971   0.00000  Uiso   1.00
C5     C     0.91737   0.20398   0.22647   0.00000  Uiso   1.00
C6     C     0.47516   0.82104   0.26815   0.00000  Uiso   1.00
C7     C     0.40665   0.77740   0.21257   0.00000  Uiso   1.00
C8     C     0.38845   0.68886   0.18798   0.00000  Uiso   1.00
C9     C     0.33279   0.54516   0.12906   0.00000  Uiso   1.00
C10    C     0.49166   0.90120   0.38801   0.00000  Uiso   1.00
C11    C     0.43700   0.92494   0.43320   0.00000  Uiso   1.00
C12    C     0.43266   0.90385   0.50953   0.00000  Uiso   1.00
C13    C     0.40262   0.88462   0.63669   0.00000  Uiso   1.00
C14    C     0.59570   0.83813   0.35836   0.00000  Uiso   1.00
C15    C     0.66177   0.93331   0.32114   0.00000  Uiso   1.00
C16    C     0.75971   0.97559   0.31598   0.00000  Uiso   1.00
C17    C     0.80739   0.06279   0.27974   0.00000  Uiso   1.00
C18    C     0.52376   0.77776   0.29812   0.00000  Uiso   1.00
C19    C     0.50564   0.68925   0.27362   0.00000  Uiso   1.00
C20    C     0.43713   0.64550   0.21801   0.00000  Uiso   1.00
C21    C     0.54026   0.85792   0.41798   0.00000  Uiso   1.00
C22    C     0.53600   0.83679   0.49425   0.00000  Uiso   1.00
C23    C     0.48134   0.86050   0.53955   0.00000  Uiso   1.00
H24    H     0.46839   0.95150   0.27984   0.00000  Uiso   1.00
H25    H     0.62308   0.09721   0.23173   0.00000  Uiso   1.00
H26    H     0.36905   0.81091   0.18939   0.00000  Uiso   1.00
H27    H     0.39940   0.95843   0.40999   0.00000  Uiso   1.00
H28    H     0.81602   0.23965   0.19160   0.00000  Uiso   1.00
H29    H     0.28035   0.63596   0.10233   0.00000  Uiso   1.00
H30    H     0.34434   0.94702   0.56750   0.00000  Uiso   1.00
H31    H     0.63354   0.80443   0.38169   0.00000  Uiso   1.00
H32    H     0.79730   0.94208   0.33918   0.00000  Uiso   1.00
H33    H     0.54326   0.65578   0.29683   0.00000  Uiso   1.00
H34    H     0.57361   0.80329   0.51743   0.00000  Uiso   1.00
H35    H     0.95742   0.11374   0.27880   0.00000  Uiso   1.00
H36    H     0.42174   0.51005   0.18953   0.00000  Uiso   1.00
H37    H     0.48574   0.82111   0.65470   0.00000  Uiso   1.00
O38    O     0.99146   0.26988   0.20537   0.00000  Uiso   1.00
O39    O     0.28867   0.47786   0.08827   0.00000  Uiso   1.00
O40    O     0.37264   0.88597   0.69856   0.00000  Uiso   1.00
N41    N     0.82682   0.19114   0.21797   0.00000  Uiso   1.00
N42    N     0.32602   0.62673   0.13450   0.00000  Uiso   1.00
N43    N     0.38582   0.91753   0.56939   0.00000  Uiso   1.00
N44    N     0.90291   0.12339   0.26489   0.00000  Uiso   1.00
N45    N     0.40210   0.55898   0.18142   0.00000  Uiso   1.00
N46    N     0.46191   0.84977   0.61631   0.00000  Uiso   1.00
C47    C     0.08219   0.58842   0.96984   0.00000  Uiso   1.00
C48    C     0.02341   0.63659   0.95784   0.00000  Uiso   1.00
C49    C     0.93626   0.59698   0.92160   0.00000  Uiso   1.00
C50    C     0.89385   0.65255   0.91638   0.00000  Uiso   1.00
C51    C     0.79602   0.71339   0.89314   0.00000  Uiso   1.00
C52    C     0.17896   0.65413   0.93482   0.00000  Uiso   1.00
C53    C     0.22260   0.62925   0.87924   0.00000  Uiso   1.00
C54    C     0.31114   0.69959   0.85465   0.00000  Uiso   1.00
C55    C     0.45484   0.78763   0.79572   0.00000  Uiso   1.00
C56    C     0.09880   0.59046   0.05468   0.00000  Uiso   1.00
C57    C     0.07506   0.51206   0.09987   0.00000  Uiso   1.00
C58    C     0.09615   0.52881   0.17619   0.00000  Uiso   1.00
C59    C     0.11538   0.51800   0.30336   0.00000  Uiso   1.00
C60    C     0.16187   0.75757   0.02502   0.00000  Uiso   1.00
C61    C     0.06669   0.72847   0.98781   0.00000  Uiso   1.00
C62    C     0.02441   0.78412   0.98265   0.00000  Uiso   1.00
C63    C     0.93721   0.74459   0.94640   0.00000  Uiso   1.00
C64    C     0.22224   0.74600   0.96479   0.00000  Uiso   1.00
C65    C     0.31075   0.81639   0.94029   0.00000  Uiso   1.00
C66    C     0.35450   0.79163   0.88468   0.00000  Uiso   1.00
C67    C     0.14208   0.68234   0.08465   0.00000  Uiso   1.00
C68    C     0.16321   0.69921   0.16092   0.00000  Uiso   1.00
C69    C     0.13950   0.62085   0.20622   0.00000  Uiso   1.00
H70    H     0.04850   0.51689   0.94651   0.00000  Uiso   1.00
H71    H     0.90279   0.52587   0.89840   0.00000  Uiso   1.00
H72    H     0.18909   0.55814   0.85606   0.00000  Uiso   1.00
H73    H     0.04157   0.44097   0.07665   0.00000  Uiso   1.00
H74    H     0.76035   0.57636   0.85826   0.00000  Uiso   1.00
H75    H     0.36404   0.64439   0.76900   0.00000  Uiso   1.00
H76    H     0.05298   0.39732   0.23417   0.00000  Uiso   1.00
H77    H     0.19557   0.82910   0.04836   0.00000  Uiso   1.00
H78    H     0.05792   0.85522   0.00584   0.00000  Uiso   1.00
H79    H     0.34422   0.88748   0.96350   0.00000  Uiso   1.00
H80    H     0.19671   0.77032   0.18409   0.00000  Uiso   1.00
H81    H     0.88626   0.84367   0.94546   0.00000  Uiso   1.00
H82    H     0.48995   0.91170   0.85620   0.00000  Uiso   1.00
H83    H     0.17889   0.66463   0.32137   0.00000  Uiso   1.00
O84    O     0.73012   0.72157   0.87204   0.00000  Uiso   1.00
O85    O     0.52214   0.81081   0.75493   0.00000  Uiso   1.00
O86    O     0.11403   0.48667   0.36523   0.00000  Uiso   1.00
N87    N     0.80886   0.63568   0.88463   0.00000  Uiso   1.00
N88    N     0.37327   0.69929   0.80117   0.00000  Uiso   1.00
N89    N     0.08247   0.46830   0.23606   0.00000  Uiso   1.00
N90    N     0.87661   0.77952   0.93156   0.00000  Uiso   1.00
N91    N     0.44102   0.84312   0.84809   0.00000  Uiso   1.00
N92    N     0.15023   0.61214   0.28298   0.00000  Uiso   1.00
C93    C     0.41158   0.49377   0.63651   0.00000  Uiso   1.00
C94    C     0.36341   0.38682   0.62450   0.00000  Uiso   1.00
C95    C     0.40302   0.33928   0.58826   0.00000  Uiso   1.00
C96    C     0.34745   0.24130   0.58304   0.00000  Uiso   1.00
C97    C     0.28661   0.08263   0.55981   0.00000  Uiso   1.00
C98    C     0.34587   0.52484   0.60149   0.00000  Uiso   1.00
C99    C     0.37075   0.59335   0.54590   0.00000  Uiso   1.00
C100   C     0.30041   0.61155   0.52132   0.00000  Uiso   1.00
C101   C     0.21237   0.66721   0.46239   0.00000  Uiso   1.00
C102   C     0.40954   0.50834   0.72134   0.00000  Uiso   1.00
C103   C     0.48794   0.56300   0.76654   0.00000  Uiso   1.00
C104   C     0.47119   0.56734   0.84286   0.00000  Uiso   1.00
C105   C     0.48200   0.59738   0.97003   0.00000  Uiso   1.00
C106   C     0.24243   0.40430   0.69169   0.00000  Uiso   1.00
C107   C     0.27153   0.33823   0.65447   0.00000  Uiso   1.00
C108   C     0.21588   0.24029   0.64931   0.00000  Uiso   1.00
C109   C     0.25541   0.19261   0.61307   0.00000  Uiso   1.00
C110   C     0.25400   0.47624   0.63146   0.00000  Uiso   1.00
C111   C     0.18361   0.49436   0.60695   0.00000  Uiso   1.00
C112   C     0.20837   0.56287   0.55134   0.00000  Uiso   1.00
C113   C     0.31766   0.45974   0.75132   0.00000  Uiso   1.00
C114   C     0.30079   0.46400   0.82758   0.00000  Uiso   1.00
C115   C     0.37915   0.51866   0.87288   0.00000  Uiso   1.00
H116   H     0.48311   0.53161   0.61317   0.00000  Uiso   1.00
H117   H     0.47413   0.37692   0.56507   0.00000  Uiso   1.00
H118   H     0.44186   0.63095   0.52272   0.00000  Uiso   1.00
H119   H     0.55903   0.60060   0.74332   0.00000  Uiso   1.00
H120   H     0.42364   0.18398   0.52493   0.00000  Uiso   1.00
H121   H     0.35561   0.71965   0.43566   0.00000  Uiso   1.00
H122   H     0.60268   0.65566   0.90084   0.00000  Uiso   1.00
H123   H     0.17090   0.36646   0.71502   0.00000  Uiso   1.00
H124   H     0.14478   0.20270   0.67251   0.00000  Uiso   1.00
H125   H     0.11252   0.45674   0.63016   0.00000  Uiso   1.00
H126   H     0.22968   0.42639   0.85076   0.00000  Uiso   1.00
H127   H     0.15633   0.04258   0.61213   0.00000  Uiso   1.00
H128   H     0.08830   0.57826   0.52286   0.00000  Uiso   1.00
H129   H     0.33537   0.51426   0.98804   0.00000  Uiso   1.00
O130   O     0.27843   0.00854   0.53870   0.00000  Uiso   1.00
O131   O     0.18919   0.71133   0.42160   0.00000  Uiso   1.00
O132   O     0.51333   0.62736   0.03189   0.00000  Uiso   1.00
N133   N     0.36432   0.17318   0.55130   0.00000  Uiso   1.00
N134   N     0.30071   0.67398   0.46783   0.00000  Uiso   1.00
N135   N     0.53170   0.61418   0.90273   0.00000  Uiso   1.00
N136   N     0.22048   0.09709   0.59822   0.00000  Uiso   1.00
N137   N     0.15688   0.59790   0.51475   0.00000  Uiso   1.00
N138   N     0.38786   0.53809   0.94965   0.00000  Uiso   1.00
C139   C     0.91781   0.50623   0.69683   0.00000  Uiso   1.00
C140   C     0.97659   0.61318   0.70883   0.00000  Uiso   1.00
C141   C     0.06374   0.66072   0.74507   0.00000  Uiso   1.00
C142   C     0.10615   0.75870   0.75029   0.00000  Uiso   1.00
C143   C     0.20398   0.91737   0.77353   0.00000  Uiso   1.00
C144   C     0.82104   0.47516   0.73185   0.00000  Uiso   1.00
C145   C     0.77740   0.40665   0.78743   0.00000  Uiso   1.00
C146   C     0.68886   0.38845   0.81202   0.00000  Uiso   1.00
C147   C     0.54516   0.33279   0.87094   0.00000  Uiso   1.00
C148   C     0.90120   0.49166   0.61199   0.00000  Uiso   1.00
C149   C     0.92494   0.43700   0.56680   0.00000  Uiso   1.00
C150   C     0.90385   0.43266   0.49047   0.00000  Uiso   1.00
C151   C     0.88462   0.40262   0.36331   0.00000  Uiso   1.00
C152   C     0.83813   0.59570   0.64164   0.00000  Uiso   1.00
C153   C     0.93331   0.66177   0.67886   0.00000  Uiso   1.00
C154   C     0.97559   0.75971   0.68402   0.00000  Uiso   1.00
C155   C     0.06279   0.80739   0.72026   0.00000  Uiso   1.00
C156   C     0.77776   0.52376   0.70188   0.00000  Uiso   1.00
C157   C     0.68925   0.50564   0.72638   0.00000  Uiso   1.00
C158   C     0.64550   0.43713   0.78199   0.00000  Uiso   1.00
C159   C     0.85792   0.54026   0.58202   0.00000  Uiso   1.00
C160   C     0.83679   0.53600   0.50575   0.00000  Uiso   1.00
C161   C     0.86050   0.48134   0.46045   0.00000  Uiso   1.00
H162   H     0.95150   0.46839   0.72016   0.00000  Uiso   1.00
H163   H     0.09721   0.62308   0.76827   0.00000  Uiso   1.00
H164   H     0.81091   0.36905   0.81061   0.00000  Uiso   1.00
H165   H     0.95843   0.39940   0.59001   0.00000  Uiso   1.00
H166   H     0.23965   0.81602   0.80840   0.00000  Uiso   1.00
H167   H     0.63596   0.28035   0.89767   0.00000  Uiso   1.00
H168   H     0.94702   0.34434   0.43250   0.00000  Uiso   1.00
H169   H     0.80443   0.63354   0.61831   0.00000  Uiso   1.00
H170   H     0.94208   0.79730   0.66082   0.00000  Uiso   1.00
H171   H     0.65578   0.54326   0.70317   0.00000  Uiso   1.00
H172   H     0.80329   0.57361   0.48257   0.00000  Uiso   1.00
H173   H     0.11374   0.95742   0.72120   0.00000  Uiso   1.00
H174   H     0.51005   0.42174   0.81047   0.00000  Uiso   1.00
H175   H     0.82111   0.48574   0.34530   0.00000  Uiso   1.00
O176   O     0.26988   0.99146   0.79463   0.00000  Uiso   1.00
O177   O     0.47786   0.28867   0.91173   0.00000  Uiso   1.00
O178   O     0.88597   0.37264   0.30144   0.00000  Uiso   1.00
N179   N     0.19114   0.82682   0.78203   0.00000  Uiso   1.00
N180   N     0.62673   0.32602   0.86550   0.00000  Uiso   1.00
N181   N     0.91753   0.38582   0.43061   0.00000  Uiso   1.00
N182   N     0.12339   0.90291   0.73511   0.00000  Uiso   1.00
N183   N     0.55898   0.40210   0.81858   0.00000  Uiso   1.00
N184   N     0.84977   0.46191   0.38369   0.00000  Uiso   1.00
C185   C     0.58842   0.08219   0.03016   0.00000  Uiso   1.00
C186   C     0.63659   0.02341   0.04216   0.00000  Uiso   1.00
C187   C     0.59698   0.93626   0.07840   0.00000  Uiso   1.00
C188   C     0.65255   0.89385   0.08362   0.00000  Uiso   1.00
C189   C     0.71339   0.79602   0.10686   0.00000  Uiso   1.00
C190   C     0.65413   0.17896   0.06518   0.00000  Uiso   1.00
C191   C     0.62925   0.22260   0.12076   0.00000  Uiso   1.00
C192   C     0.69959   0.31114   0.14535   0.00000  Uiso   1.00
C193   C     0.78763   0.45484   0.20428   0.00000  Uiso   1.00
C194   C     0.59046   0.09880   0.94532   0.00000  Uiso   1.00
C195   C     0.51206   0.07506   0.90013   0.00000  Uiso   1.00
C196   C     0.52881   0.09615   0.82381   0.00000  Uiso   1.00
C197   C     0.51800   0.11538   0.69664   0.00000  Uiso   1.00
C198   C     0.75757   0.16187   0.97498   0.00000  Uiso   1.00
C199   C     0.72847   0.06669   0.01219   0.00000  Uiso   1.00
C200   C     0.78412   0.02441   0.01735   0.00000  Uiso   1.00
C201   C     0.74459   0.93721   0.05360   0.00000  Uiso   1.00
C202   C     0.74600   0.22224   0.03521   0.00000  Uiso   1.00
C203   C     0.81639   0.31075   0.05971   0.00000  Uiso   1.00
C204   C     0.79163   0.35450   0.11532   0.00000  Uiso   1.00
C205   C     0.68234   0.14208   0.91535   0.00000  Uiso   1.00
C206   C     0.69921   0.16321   0.83908   0.00000  Uiso   1.00
C207   C     0.62085   0.13950   0.79378   0.00000  Uiso   1.00
H208   H     0.51689   0.04850   0.05349   0.00000  Uiso   1.00
H209   H     0.52587   0.90279   0.10160   0.00000  Uiso   1.00
H210   H     0.55814   0.18909   0.14394   0.00000  Uiso   1.00
H211   H     0.44097   0.04157   0.92335   0.00000  Uiso   1.00
H212   H     0.57636   0.76035   0.14174   0.00000  Uiso   1.00
H213   H     0.64439   0.36404   0.23100   0.00000  Uiso   1.00
H214   H     0.39732   0.05298   0.76583   0.00000  Uiso   1.00
H215   H     0.82910   0.19557   0.95164   0.00000  Uiso   1.00
H216   H     0.85522   0.05792   0.99416   0.00000  Uiso   1.00
H217   H     0.88748   0.34422   0.03650   0.00000  Uiso   1.00
H218   H     0.77032   0.19671   0.81591   0.00000  Uiso   1.00
H219   H     0.84367   0.88626   0.05454   0.00000  Uiso   1.00
H220   H     0.91170   0.48995   0.14380   0.00000  Uiso   1.00
H221   H     0.66463   0.17889   0.67863   0.00000  Uiso   1.00
O222   O     0.72157   0.73012   0.12796   0.00000  Uiso   1.00
O223   O     0.81081   0.52214   0.24507   0.00000  Uiso   1.00
O224   O     0.48667   0.11403   0.63477   0.00000  Uiso   1.00
N225   N     0.63568   0.80886   0.11537   0.00000  Uiso   1.00
N226   N     0.69929   0.37327   0.19883   0.00000  Uiso   1.00
N227   N     0.46830   0.08247   0.76394   0.00000  Uiso   1.00
N228   N     0.77952   0.87661   0.06844   0.00000  Uiso   1.00
N229   N     0.84312   0.44102   0.15191   0.00000  Uiso   1.00
N230   N     0.61214   0.15023   0.71702   0.00000  Uiso   1.00
C231   C     0.49377   0.41158   0.36349   0.00000  Uiso   1.00
C232   C     0.38682   0.36341   0.37550   0.00000  Uiso   1.00
C233   C     0.33928   0.40302   0.41174   0.00000  Uiso   1.00
C234   C     0.24130   0.34745   0.41696   0.00000  Uiso   1.00
C235   C     0.08263   0.28661   0.44019   0.00000  Uiso   1.00
C236   C     0.52484   0.34587   0.39851   0.00000  Uiso   1.00
C237   C     0.59335   0.37075   0.45410   0.00000  Uiso   1.00
C238   C     0.61155   0.30041   0.47868   0.00000  Uiso   1.00
C239   C     0.66721   0.21237   0.53761   0.00000  Uiso   1.00
C240   C     0.50834   0.40954   0.27866   0.00000  Uiso   1.00
C241   C     0.56300   0.48794   0.23346   0.00000  Uiso   1.00
C242   C     0.56734   0.47119   0.15714   0.00000  Uiso   1.00
C243   C     0.59738   0.48200   0.02997   0.00000  Uiso   1.00
C244   C     0.40430   0.24243   0.30831   0.00000  Uiso   1.00
C245   C     0.33823   0.27153   0.34553   0.00000  Uiso   1.00
C246   C     0.24029   0.21588   0.35069   0.00000  Uiso   1.00
C247   C     0.19261   0.25541   0.38693   0.00000  Uiso   1.00
C248   C     0.47624   0.25400   0.36854   0.00000  Uiso   1.00
C249   C     0.49436   0.18361   0.39305   0.00000  Uiso   1.00
C250   C     0.56287   0.20837   0.44866   0.00000  Uiso   1.00
C251   C     0.45974   0.31766   0.24868   0.00000  Uiso   1.00
C252   C     0.46400   0.30079   0.17242   0.00000  Uiso   1.00
C253   C     0.51866   0.37915   0.12712   0.00000  Uiso   1.00
H254   H     0.53161   0.48311   0.38683   0.00000  Uiso   1.00
H255   H     0.37692   0.47413   0.43493   0.00000  Uiso   1.00
H256   H     0.63095   0.44186   0.47728   0.00000  Uiso   1.00
H257   H     0.60060   0.55903   0.25668   0.00000  Uiso   1.00
H258   H     0.18398   0.42364   0.47507   0.00000  Uiso   1.00
H259   H     0.71965   0.35561   0.56434   0.00000  Uiso   1.00
H260   H     0.65566   0.60268   0.09916   0.00000  Uiso   1.00
H261   H     0.36646   0.17090   0.28498   0.00000  Uiso   1.00
H262   H     0.20270   0.14478   0.32749   0.00000  Uiso   1.00
H263   H     0.45674   0.11252   0.36984   0.00000  Uiso   1.00
H264   H     0.42639   0.22968   0.14924   0.00000  Uiso   1.00
H265   H     0.04258   0.15633   0.38787   0.00000  Uiso   1.00
H266   H     0.57826   0.08830   0.47714   0.00000  Uiso   1.00
H267   H     0.51426   0.33537   0.01196   0.00000  Uiso   1.00
O268   O     0.00854   0.27843   0.46130   0.00000  Uiso   1.00
O269   O     0.71133   0.18919   0.57840   0.00000  Uiso   1.00
O270   O     0.62736   0.51333   0.96811   0.00000  Uiso   1.00
N271   N     0.17318   0.36432   0.44870   0.00000  Uiso   1.00
N272   N     0.67398   0.30071   0.53217   0.00000  Uiso   1.00
N273   N     0.61418   0.53170   0.09727   0.00000  Uiso   1.00
N274   N     0.09709   0.22048   0.40178   0.00000  Uiso   1.00
N275   N     0.59790   0.15688   0.48525   0.00000  Uiso   1.00
N276   N     0.53809   0.38786   0.05035   0.00000  Uiso   1.00
