data_job_05337
_audit_creation_date              2018-12-19
_audit_creation_method            'Materials Studio'
_symmetry_space_group_name_H-M    'P1'
_symmetry_Int_Tables_number       1
_symmetry_cell_setting            triclinic
loop_
_symmetry_equiv_pos_as_xyz
  x,y,z
_cell_length_a                    13.4348
_cell_length_b                    9.9969
_cell_length_c                    33.1834
_cell_angle_alpha                 90.0000
_cell_angle_beta                  90.0000
_cell_angle_gamma                 90.0000
loop_
_atom_site_label
_atom_site_type_symbol
_atom_site_fract_x
_atom_site_fract_y
_atom_site_fract_z
_atom_site_U_iso_or_equiv
_atom_site_adp_type
_atom_site_occupancy
C1     C     0.60327   0.09575   0.59669   0.00000  Uiso   1.00
C2     C     0.62827   0.18353   0.63288   0.00000  Uiso   1.00
C3     C     0.72333   0.21432   0.64635   0.00000  Uiso   1.00
C4     C     0.73050   0.29627   0.68001   0.00000  Uiso   1.00
C5     C     0.78224   0.42502   0.73326   0.00000  Uiso   1.00
C6     C     0.53603   0.98479   0.61261   0.00000  Uiso   1.00
C7     C     0.55354   0.84849   0.60903   0.00000  Uiso   1.00
C8     C     0.48305   0.76314   0.62561   0.00000  Uiso   1.00
C9     C     0.39156   0.58334   0.64736   0.00000  Uiso   1.00
C10    C     0.53837   0.18112   0.56912   0.00000  Uiso   1.00
C11    C     0.55783   0.20986   0.52897   0.00000  Uiso   1.00
C12    C     0.48929   0.28978   0.50894   0.00000  Uiso   1.00
C13    C     0.40142   0.41480   0.46318   0.00000  Uiso   1.00
C14    C     0.44693   0.18652   0.63251   0.00000  Uiso   1.00
C15    C     0.54335   0.23283   0.65234   0.00000  Uiso   1.00
C16    C     0.55037   0.31475   0.68598   0.00000  Uiso   1.00
C17    C     0.64544   0.34567   0.69950   0.00000  Uiso   1.00
C18    C     0.45112   0.03409   0.63207   0.00000  Uiso   1.00
C19    C     0.38058   0.94892   0.64866   0.00000  Uiso   1.00
C20    C     0.39799   0.81253   0.64510   0.00000  Uiso   1.00
C21    C     0.45345   0.23042   0.58858   0.00000  Uiso   1.00
C22    C     0.38487   0.31030   0.56861   0.00000  Uiso   1.00
C23    C     0.40422   0.33917   0.52843   0.00000  Uiso   1.00
H24    H     0.66937   0.05736   0.58154   0.00000  Uiso   1.00
H25    H     0.78903   0.17614   0.63129   0.00000  Uiso   1.00
H26    H     0.61926   0.81037   0.59397   0.00000  Uiso   1.00
H27    H     0.62355   0.17169   0.51393   0.00000  Uiso   1.00
H28    H     0.88425   0.32953   0.69503   0.00000  Uiso   1.00
H29    H     0.52626   0.55828   0.61632   0.00000  Uiso   1.00
H30    H     0.53530   0.32020   0.44754   0.00000  Uiso   1.00
H31    H     0.38082   0.22490   0.64766   0.00000  Uiso   1.00
H32    H     0.48465   0.35289   0.70103   0.00000  Uiso   1.00
H33    H     0.31488   0.98711   0.66371   0.00000  Uiso   1.00
H34    H     0.31916   0.34843   0.58367   0.00000  Uiso   1.00
H35    H     0.63720   0.47299   0.75164   0.00000  Uiso   1.00
H36    H     0.27921   0.70173   0.67292   0.00000  Uiso   1.00
H37    H     0.28825   0.46365   0.50415   0.00000  Uiso   1.00
O38    O     0.83423   0.48239   0.75726   0.00000  Uiso   1.00
O39    O     0.36455   0.47054   0.65399   0.00000  Uiso   1.00
O40    O     0.37642   0.47016   0.43256   0.00000  Uiso   1.00
N41    N     0.81186   0.34575   0.70103   0.00000  Uiso   1.00
N42    N     0.47717   0.62468   0.62744   0.00000  Uiso   1.00
N43    N     0.48560   0.33698   0.46965   0.00000  Uiso   1.00
N44    N     0.67892   0.42295   0.73149   0.00000  Uiso   1.00
N45    N     0.34423   0.70187   0.65790   0.00000  Uiso   1.00
N46    N     0.35267   0.41417   0.50010   0.00000  Uiso   1.00
C47    C     0.89673   0.90425   0.09669   0.00000  Uiso   1.00
C48    C     0.87173   0.81647   0.13288   0.00000  Uiso   1.00
C49    C     0.77667   0.78568   0.14635   0.00000  Uiso   1.00
C50    C     0.76950   0.70373   0.18001   0.00000  Uiso   1.00
C51    C     0.71776   0.57498   0.23326   0.00000  Uiso   1.00
C52    C     0.96397   0.01521   0.11261   0.00000  Uiso   1.00
C53    C     0.94646   0.15151   0.10903   0.00000  Uiso   1.00
C54    C     0.01695   0.23686   0.12561   0.00000  Uiso   1.00
C55    C     0.10844   0.41666   0.14736   0.00000  Uiso   1.00
C56    C     0.96163   0.81888   0.06912   0.00000  Uiso   1.00
C57    C     0.94217   0.79014   0.02897   0.00000  Uiso   1.00
C58    C     0.01071   0.71022   0.00894   0.00000  Uiso   1.00
C59    C     0.09858   0.58520   0.96318   0.00000  Uiso   1.00
C60    C     0.05307   0.81348   0.13251   0.00000  Uiso   1.00
C61    C     0.95665   0.76717   0.15234   0.00000  Uiso   1.00
C62    C     0.94963   0.68525   0.18598   0.00000  Uiso   1.00
C63    C     0.85456   0.65433   0.19950   0.00000  Uiso   1.00
C64    C     0.04888   0.96591   0.13207   0.00000  Uiso   1.00
C65    C     0.11942   0.05108   0.14866   0.00000  Uiso   1.00
C66    C     0.10201   0.18747   0.14510   0.00000  Uiso   1.00
C67    C     0.04655   0.76958   0.08858   0.00000  Uiso   1.00
C68    C     0.11513   0.68970   0.06861   0.00000  Uiso   1.00
C69    C     0.09578   0.66083   0.02843   0.00000  Uiso   1.00
H70    H     0.83063   0.94264   0.08154   0.00000  Uiso   1.00
H71    H     0.71097   0.82386   0.13129   0.00000  Uiso   1.00
H72    H     0.88074   0.18963   0.09397   0.00000  Uiso   1.00
H73    H     0.87645   0.82831   0.01393   0.00000  Uiso   1.00
H74    H     0.61575   0.67047   0.19503   0.00000  Uiso   1.00
H75    H     0.97374   0.44172   0.11632   0.00000  Uiso   1.00
H76    H     0.96470   0.67980   0.94754   0.00000  Uiso   1.00
H77    H     0.11918   0.77510   0.14766   0.00000  Uiso   1.00
H78    H     0.01535   0.64711   0.20103   0.00000  Uiso   1.00
H79    H     0.18512   0.01289   0.16371   0.00000  Uiso   1.00
H80    H     0.18084   0.65157   0.08367   0.00000  Uiso   1.00
H81    H     0.86280   0.52701   0.25164   0.00000  Uiso   1.00
H82    H     0.22079   0.29827   0.17292   0.00000  Uiso   1.00
H83    H     0.21175   0.53635   0.00415   0.00000  Uiso   1.00
O84    O     0.66577   0.51761   0.25726   0.00000  Uiso   1.00
O85    O     0.13545   0.52946   0.15399   0.00000  Uiso   1.00
O86    O     0.12358   0.52984   0.93256   0.00000  Uiso   1.00
N87    N     0.68814   0.65425   0.20103   0.00000  Uiso   1.00
N88    N     0.02283   0.37532   0.12744   0.00000  Uiso   1.00
N89    N     0.01440   0.66302   0.96965   0.00000  Uiso   1.00
N90    N     0.82108   0.57705   0.23149   0.00000  Uiso   1.00
N91    N     0.15577   0.29813   0.15790   0.00000  Uiso   1.00
N92    N     0.14733   0.58583   0.00010   0.00000  Uiso   1.00
C93    C     0.39673   0.59575   0.90331   0.00000  Uiso   1.00
C94    C     0.37173   0.68353   0.86712   0.00000  Uiso   1.00
C95    C     0.27667   0.71432   0.85365   0.00000  Uiso   1.00
C96    C     0.26950   0.79627   0.81999   0.00000  Uiso   1.00
C97    C     0.21776   0.92502   0.76674   0.00000  Uiso   1.00
C98    C     0.46397   0.48479   0.88739   0.00000  Uiso   1.00
C99    C     0.44646   0.34849   0.89097   0.00000  Uiso   1.00
C100   C     0.51695   0.26314   0.87439   0.00000  Uiso   1.00
C101   C     0.60844   0.08334   0.85264   0.00000  Uiso   1.00
C102   C     0.46163   0.68112   0.93088   0.00000  Uiso   1.00
C103   C     0.44217   0.70986   0.97103   0.00000  Uiso   1.00
C104   C     0.51071   0.78978   0.99106   0.00000  Uiso   1.00
C105   C     0.59858   0.91480   0.03682   0.00000  Uiso   1.00
C106   C     0.55307   0.68652   0.86749   0.00000  Uiso   1.00
C107   C     0.45665   0.73283   0.84766   0.00000  Uiso   1.00
C108   C     0.44963   0.81475   0.81402   0.00000  Uiso   1.00
C109   C     0.35456   0.84567   0.80050   0.00000  Uiso   1.00
C110   C     0.54888   0.53409   0.86793   0.00000  Uiso   1.00
C111   C     0.61942   0.44892   0.85134   0.00000  Uiso   1.00
C112   C     0.60201   0.31253   0.85490   0.00000  Uiso   1.00
C113   C     0.54655   0.73042   0.91142   0.00000  Uiso   1.00
C114   C     0.61513   0.81030   0.93139   0.00000  Uiso   1.00
C115   C     0.59578   0.83917   0.97157   0.00000  Uiso   1.00
H116   H     0.33063   0.55736   0.91846   0.00000  Uiso   1.00
H117   H     0.21097   0.67614   0.86871   0.00000  Uiso   1.00
H118   H     0.38074   0.31037   0.90603   0.00000  Uiso   1.00
H119   H     0.37645   0.67169   0.98607   0.00000  Uiso   1.00
H120   H     0.11575   0.82953   0.80497   0.00000  Uiso   1.00
H121   H     0.47374   0.05828   0.88368   0.00000  Uiso   1.00
H122   H     0.46470   0.82020   0.05246   0.00000  Uiso   1.00
H123   H     0.61918   0.72490   0.85234   0.00000  Uiso   1.00
H124   H     0.51535   0.85289   0.79897   0.00000  Uiso   1.00
H125   H     0.68512   0.48711   0.83629   0.00000  Uiso   1.00
H126   H     0.68084   0.84843   0.91633   0.00000  Uiso   1.00
H127   H     0.36280   0.97299   0.74836   0.00000  Uiso   1.00
H128   H     0.72079   0.20173   0.82708   0.00000  Uiso   1.00
H129   H     0.71175   0.96365   0.99585   0.00000  Uiso   1.00
O130   O     0.16577   0.98239   0.74274   0.00000  Uiso   1.00
O131   O     0.63545   0.97054   0.84601   0.00000  Uiso   1.00
O132   O     0.62358   0.97016   0.06744   0.00000  Uiso   1.00
N133   N     0.18814   0.84575   0.79897   0.00000  Uiso   1.00
N134   N     0.52283   0.12468   0.87256   0.00000  Uiso   1.00
N135   N     0.51440   0.83698   0.03035   0.00000  Uiso   1.00
N136   N     0.32108   0.92295   0.76851   0.00000  Uiso   1.00
N137   N     0.65577   0.20187   0.84210   0.00000  Uiso   1.00
N138   N     0.64733   0.91417   0.99990   0.00000  Uiso   1.00
C139   C     0.10327   0.40425   0.40331   0.00000  Uiso   1.00
C140   C     0.12827   0.31647   0.36712   0.00000  Uiso   1.00
C141   C     0.22333   0.28568   0.35365   0.00000  Uiso   1.00
C142   C     0.23050   0.20373   0.31999   0.00000  Uiso   1.00
C143   C     0.28224   0.07498   0.26674   0.00000  Uiso   1.00
C144   C     0.03603   0.51521   0.38739   0.00000  Uiso   1.00
C145   C     0.05354   0.65151   0.39097   0.00000  Uiso   1.00
C146   C     0.98305   0.73686   0.37439   0.00000  Uiso   1.00
C147   C     0.89156   0.91666   0.35264   0.00000  Uiso   1.00
C148   C     0.03837   0.31888   0.43088   0.00000  Uiso   1.00
C149   C     0.05783   0.29014   0.47103   0.00000  Uiso   1.00
C150   C     0.98929   0.21022   0.49106   0.00000  Uiso   1.00
C151   C     0.90142   0.08520   0.53682   0.00000  Uiso   1.00
C152   C     0.94693   0.31348   0.36749   0.00000  Uiso   1.00
C153   C     0.04335   0.26717   0.34766   0.00000  Uiso   1.00
C154   C     0.05037   0.18525   0.31402   0.00000  Uiso   1.00
C155   C     0.14544   0.15433   0.30050   0.00000  Uiso   1.00
C156   C     0.95112   0.46591   0.36793   0.00000  Uiso   1.00
C157   C     0.88058   0.55108   0.35134   0.00000  Uiso   1.00
C158   C     0.89799   0.68747   0.35490   0.00000  Uiso   1.00
C159   C     0.95345   0.26958   0.41142   0.00000  Uiso   1.00
C160   C     0.88487   0.18970   0.43139   0.00000  Uiso   1.00
C161   C     0.90422   0.16083   0.47157   0.00000  Uiso   1.00
H162   H     0.16937   0.44264   0.41846   0.00000  Uiso   1.00
H163   H     0.28903   0.32386   0.36871   0.00000  Uiso   1.00
H164   H     0.11926   0.68963   0.40603   0.00000  Uiso   1.00
H165   H     0.12355   0.32831   0.48607   0.00000  Uiso   1.00
H166   H     0.38425   0.17047   0.30497   0.00000  Uiso   1.00
H167   H     0.02626   0.94172   0.38368   0.00000  Uiso   1.00
H168   H     0.03530   0.17980   0.55246   0.00000  Uiso   1.00
H169   H     0.88082   0.27510   0.35234   0.00000  Uiso   1.00
H170   H     0.98465   0.14711   0.29897   0.00000  Uiso   1.00
H171   H     0.81488   0.51289   0.33629   0.00000  Uiso   1.00
H172   H     0.81916   0.15157   0.41633   0.00000  Uiso   1.00
H173   H     0.13720   0.02701   0.24836   0.00000  Uiso   1.00
H174   H     0.77921   0.79827   0.32708   0.00000  Uiso   1.00
H175   H     0.78825   0.03635   0.49585   0.00000  Uiso   1.00
O176   O     0.33423   0.01761   0.24274   0.00000  Uiso   1.00
O177   O     0.86455   0.02946   0.34601   0.00000  Uiso   1.00
O178   O     0.87642   0.02984   0.56744   0.00000  Uiso   1.00
N179   N     0.31186   0.15425   0.29897   0.00000  Uiso   1.00
N180   N     0.97717   0.87532   0.37256   0.00000  Uiso   1.00
N181   N     0.98560   0.16302   0.53035   0.00000  Uiso   1.00
N182   N     0.17892   0.07705   0.26851   0.00000  Uiso   1.00
N183   N     0.84423   0.79813   0.34210   0.00000  Uiso   1.00
N184   N     0.85267   0.08583   0.49990   0.00000  Uiso   1.00
C185   C     0.39673   0.90425   0.40331   0.00000  Uiso   1.00
C186   C     0.37173   0.81647   0.36712   0.00000  Uiso   1.00
C187   C     0.27667   0.78568   0.35365   0.00000  Uiso   1.00
C188   C     0.26950   0.70373   0.31999   0.00000  Uiso   1.00
C189   C     0.21776   0.57498   0.26674   0.00000  Uiso   1.00
C190   C     0.46397   0.01521   0.38739   0.00000  Uiso   1.00
C191   C     0.44646   0.15151   0.39097   0.00000  Uiso   1.00
C192   C     0.51695   0.23686   0.37439   0.00000  Uiso   1.00
C193   C     0.60844   0.41666   0.35264   0.00000  Uiso   1.00
C194   C     0.46163   0.81888   0.43088   0.00000  Uiso   1.00
C195   C     0.44217   0.79014   0.47103   0.00000  Uiso   1.00
C196   C     0.51071   0.71022   0.49106   0.00000  Uiso   1.00
C197   C     0.59858   0.58520   0.53682   0.00000  Uiso   1.00
C198   C     0.55307   0.81348   0.36749   0.00000  Uiso   1.00
C199   C     0.45665   0.76717   0.34766   0.00000  Uiso   1.00
C200   C     0.44963   0.68525   0.31402   0.00000  Uiso   1.00
C201   C     0.35456   0.65433   0.30050   0.00000  Uiso   1.00
C202   C     0.54888   0.96591   0.36793   0.00000  Uiso   1.00
C203   C     0.61942   0.05108   0.35134   0.00000  Uiso   1.00
C204   C     0.60201   0.18747   0.35490   0.00000  Uiso   1.00
C205   C     0.54655   0.76958   0.41142   0.00000  Uiso   1.00
C206   C     0.61513   0.68970   0.43139   0.00000  Uiso   1.00
C207   C     0.59578   0.66083   0.47157   0.00000  Uiso   1.00
H208   H     0.33063   0.94264   0.41846   0.00000  Uiso   1.00
H209   H     0.21097   0.82386   0.36871   0.00000  Uiso   1.00
H210   H     0.38074   0.18963   0.40603   0.00000  Uiso   1.00
H211   H     0.37645   0.82831   0.48607   0.00000  Uiso   1.00
H212   H     0.11575   0.67047   0.30497   0.00000  Uiso   1.00
H213   H     0.47374   0.44172   0.38368   0.00000  Uiso   1.00
H214   H     0.46470   0.67980   0.55246   0.00000  Uiso   1.00
H215   H     0.61918   0.77510   0.35234   0.00000  Uiso   1.00
H216   H     0.51535   0.64711   0.29897   0.00000  Uiso   1.00
H217   H     0.68512   0.01289   0.33629   0.00000  Uiso   1.00
H218   H     0.68084   0.65157   0.41633   0.00000  Uiso   1.00
H219   H     0.36280   0.52701   0.24836   0.00000  Uiso   1.00
H220   H     0.72079   0.29827   0.32708   0.00000  Uiso   1.00
H221   H     0.71175   0.53635   0.49585   0.00000  Uiso   1.00
O222   O     0.16577   0.51761   0.24274   0.00000  Uiso   1.00
O223   O     0.63545   0.52946   0.34601   0.00000  Uiso   1.00
O224   O     0.62358   0.52984   0.56744   0.00000  Uiso   1.00
N225   N     0.18814   0.65425   0.29897   0.00000  Uiso   1.00
N226   N     0.52283   0.37532   0.37256   0.00000  Uiso   1.00
N227   N     0.51440   0.66302   0.53035   0.00000  Uiso   1.00
N228   N     0.32108   0.57705   0.26851   0.00000  Uiso   1.00
N229   N     0.65577   0.29813   0.34210   0.00000  Uiso   1.00
N230   N     0.64733   0.58583   0.49990   0.00000  Uiso   1.00
C231   C     0.10327   0.09575   0.90331   0.00000  Uiso   1.00
C232   C     0.12827   0.18353   0.86712   0.00000  Uiso   1.00
C233   C     0.22333   0.21432   0.85365   0.00000  Uiso   1.00
C234   C     0.23050   0.29627   0.81999   0.00000  Uiso   1.00
C235   C     0.28224   0.42502   0.76674   0.00000  Uiso   1.00
C236   C     0.03603   0.98479   0.88739   0.00000  Uiso   1.00
C237   C     0.05354   0.84849   0.89097   0.00000  Uiso   1.00
C238   C     0.98305   0.76314   0.87439   0.00000  Uiso   1.00
C239   C     0.89156   0.58334   0.85264   0.00000  Uiso   1.00
C240   C     0.03837   0.18112   0.93088   0.00000  Uiso   1.00
C241   C     0.05783   0.20986   0.97103   0.00000  Uiso   1.00
C242   C     0.98929   0.28978   0.99106   0.00000  Uiso   1.00
C243   C     0.90142   0.41480   0.03682   0.00000  Uiso   1.00
C244   C     0.94693   0.18652   0.86749   0.00000  Uiso   1.00
C245   C     0.04335   0.23283   0.84766   0.00000  Uiso   1.00
C246   C     0.05037   0.31475   0.81402   0.00000  Uiso   1.00
C247   C     0.14544   0.34567   0.80050   0.00000  Uiso   1.00
C248   C     0.95112   0.03409   0.86793   0.00000  Uiso   1.00
C249   C     0.88058   0.94892   0.85134   0.00000  Uiso   1.00
C250   C     0.89799   0.81253   0.85490   0.00000  Uiso   1.00
C251   C     0.95345   0.23042   0.91142   0.00000  Uiso   1.00
C252   C     0.88487   0.31030   0.93139   0.00000  Uiso   1.00
C253   C     0.90422   0.33917   0.97157   0.00000  Uiso   1.00
H254   H     0.16937   0.05736   0.91846   0.00000  Uiso   1.00
H255   H     0.28903   0.17614   0.86871   0.00000  Uiso   1.00
H256   H     0.11926   0.81037   0.90603   0.00000  Uiso   1.00
H257   H     0.12355   0.17169   0.98607   0.00000  Uiso   1.00
H258   H     0.38425   0.32953   0.80497   0.00000  Uiso   1.00
H259   H     0.02626   0.55828   0.88368   0.00000  Uiso   1.00
H260   H     0.03530   0.32020   0.05246   0.00000  Uiso   1.00
H261   H     0.88082   0.22490   0.85234   0.00000  Uiso   1.00
H262   H     0.98465   0.35289   0.79897   0.00000  Uiso   1.00
H263   H     0.81488   0.98711   0.83629   0.00000  Uiso   1.00
H264   H     0.81916   0.34843   0.91633   0.00000  Uiso   1.00
H265   H     0.13720   0.47299   0.74836   0.00000  Uiso   1.00
H266   H     0.77921   0.70173   0.82708   0.00000  Uiso   1.00
H267   H     0.78825   0.46365   0.99585   0.00000  Uiso   1.00
O268   O     0.33423   0.48239   0.74274   0.00000  Uiso   1.00
O269   O     0.86455   0.47054   0.84601   0.00000  Uiso   1.00
O270   O     0.87642   0.47016   0.06744   0.00000  Uiso   1.00
N271   N     0.31186   0.34575   0.79897   0.00000  Uiso   1.00
N272   N     0.97717   0.62468   0.87256   0.00000  Uiso   1.00
N273   N     0.98560   0.33698   0.03035   0.00000  Uiso   1.00
N274   N     0.17892   0.42295   0.76851   0.00000  Uiso   1.00
N275   N     0.84423   0.70187   0.84210   0.00000  Uiso   1.00
N276   N     0.85267   0.41417   0.99990   0.00000  Uiso   1.00
C277   C     0.60327   0.40425   0.09669   0.00000  Uiso   1.00
C278   C     0.62827   0.31647   0.13288   0.00000  Uiso   1.00
C279   C     0.72333   0.28568   0.14635   0.00000  Uiso   1.00
C280   C     0.73050   0.20373   0.18001   0.00000  Uiso   1.00
C281   C     0.78224   0.07498   0.23326   0.00000  Uiso   1.00
C282   C     0.53603   0.51521   0.11261   0.00000  Uiso   1.00
C283   C     0.55354   0.65151   0.10903   0.00000  Uiso   1.00
C284   C     0.48305   0.73686   0.12561   0.00000  Uiso   1.00
C285   C     0.39156   0.91666   0.14736   0.00000  Uiso   1.00
C286   C     0.53837   0.31888   0.06912   0.00000  Uiso   1.00
C287   C     0.55783   0.29014   0.02897   0.00000  Uiso   1.00
C288   C     0.48929   0.21022   0.00894   0.00000  Uiso   1.00
C289   C     0.40142   0.08520   0.96318   0.00000  Uiso   1.00
C290   C     0.44693   0.31348   0.13251   0.00000  Uiso   1.00
C291   C     0.54335   0.26717   0.15234   0.00000  Uiso   1.00
C292   C     0.55037   0.18525   0.18598   0.00000  Uiso   1.00
C293   C     0.64544   0.15433   0.19950   0.00000  Uiso   1.00
C294   C     0.45112   0.46591   0.13207   0.00000  Uiso   1.00
C295   C     0.38058   0.55108   0.14866   0.00000  Uiso   1.00
C296   C     0.39799   0.68747   0.14510   0.00000  Uiso   1.00
C297   C     0.45345   0.26958   0.08858   0.00000  Uiso   1.00
C298   C     0.38487   0.18970   0.06861   0.00000  Uiso   1.00
C299   C     0.40422   0.16083   0.02843   0.00000  Uiso   1.00
H300   H     0.66937   0.44264   0.08154   0.00000  Uiso   1.00
H301   H     0.78903   0.32386   0.13129   0.00000  Uiso   1.00
H302   H     0.61926   0.68963   0.09397   0.00000  Uiso   1.00
H303   H     0.62355   0.32831   0.01393   0.00000  Uiso   1.00
H304   H     0.88425   0.17047   0.19503   0.00000  Uiso   1.00
H305   H     0.52626   0.94172   0.11632   0.00000  Uiso   1.00
H306   H     0.53530   0.17980   0.94754   0.00000  Uiso   1.00
H307   H     0.38082   0.27510   0.14766   0.00000  Uiso   1.00
H308   H     0.48465   0.14711   0.20103   0.00000  Uiso   1.00
H309   H     0.31488   0.51289   0.16371   0.00000  Uiso   1.00
H310   H     0.31916   0.15157   0.08367   0.00000  Uiso   1.00
H311   H     0.63720   0.02701   0.25164   0.00000  Uiso   1.00
H312   H     0.27921   0.79827   0.17292   0.00000  Uiso   1.00
H313   H     0.28825   0.03635   0.00415   0.00000  Uiso   1.00
O314   O     0.83423   0.01761   0.25726   0.00000  Uiso   1.00
O315   O     0.36455   0.02946   0.15399   0.00000  Uiso   1.00
O316   O     0.37642   0.02984   0.93256   0.00000  Uiso   1.00
N317   N     0.81186   0.15425   0.20103   0.00000  Uiso   1.00
N318   N     0.47717   0.87532   0.12744   0.00000  Uiso   1.00
N319   N     0.48560   0.16302   0.96965   0.00000  Uiso   1.00
N320   N     0.67892   0.07705   0.23149   0.00000  Uiso   1.00
N321   N     0.34423   0.79813   0.15790   0.00000  Uiso   1.00
N322   N     0.35267   0.08583   0.00010   0.00000  Uiso   1.00
C323   C     0.89673   0.59575   0.59669   0.00000  Uiso   1.00
C324   C     0.87173   0.68353   0.63288   0.00000  Uiso   1.00
C325   C     0.77667   0.71432   0.64635   0.00000  Uiso   1.00
C326   C     0.76950   0.79627   0.68001   0.00000  Uiso   1.00
C327   C     0.71776   0.92502   0.73326   0.00000  Uiso   1.00
C328   C     0.96397   0.48479   0.61261   0.00000  Uiso   1.00
C329   C     0.94646   0.34849   0.60903   0.00000  Uiso   1.00
C330   C     0.01695   0.26314   0.62561   0.00000  Uiso   1.00
C331   C     0.10844   0.08334   0.64736   0.00000  Uiso   1.00
C332   C     0.96163   0.68112   0.56912   0.00000  Uiso   1.00
C333   C     0.94217   0.70986   0.52897   0.00000  Uiso   1.00
C334   C     0.01071   0.78978   0.50894   0.00000  Uiso   1.00
C335   C     0.09858   0.91480   0.46318   0.00000  Uiso   1.00
C336   C     0.05307   0.68652   0.63251   0.00000  Uiso   1.00
C337   C     0.95665   0.73283   0.65234   0.00000  Uiso   1.00
C338   C     0.94963   0.81475   0.68598   0.00000  Uiso   1.00
C339   C     0.85456   0.84567   0.69950   0.00000  Uiso   1.00
C340   C     0.04888   0.53409   0.63207   0.00000  Uiso   1.00
C341   C     0.11942   0.44892   0.64866   0.00000  Uiso   1.00
C342   C     0.10201   0.31253   0.64510   0.00000  Uiso   1.00
C343   C     0.04655   0.73042   0.58858   0.00000  Uiso   1.00
C344   C     0.11513   0.81030   0.56861   0.00000  Uiso   1.00
C345   C     0.09578   0.83917   0.52843   0.00000  Uiso   1.00
H346   H     0.83063   0.55736   0.58154   0.00000  Uiso   1.00
H347   H     0.71097   0.67614   0.63129   0.00000  Uiso   1.00
H348   H     0.88074   0.31037   0.59397   0.00000  Uiso   1.00
H349   H     0.87645   0.67169   0.51393   0.00000  Uiso   1.00
H350   H     0.61575   0.82953   0.69503   0.00000  Uiso   1.00
H351   H     0.97374   0.05828   0.61632   0.00000  Uiso   1.00
H352   H     0.96470   0.82020   0.44754   0.00000  Uiso   1.00
H353   H     0.11918   0.72490   0.64766   0.00000  Uiso   1.00
H354   H     0.01535   0.85289   0.70103   0.00000  Uiso   1.00
H355   H     0.18512   0.48711   0.66371   0.00000  Uiso   1.00
H356   H     0.18084   0.84843   0.58367   0.00000  Uiso   1.00
H357   H     0.86280   0.97299   0.75164   0.00000  Uiso   1.00
H358   H     0.22079   0.20173   0.67292   0.00000  Uiso   1.00
H359   H     0.21175   0.96365   0.50415   0.00000  Uiso   1.00
O360   O     0.66577   0.98239   0.75726   0.00000  Uiso   1.00
O361   O     0.13545   0.97054   0.65399   0.00000  Uiso   1.00
O362   O     0.12358   0.97016   0.43256   0.00000  Uiso   1.00
N363   N     0.68814   0.84575   0.70103   0.00000  Uiso   1.00
N364   N     0.02283   0.12468   0.62744   0.00000  Uiso   1.00
N365   N     0.01440   0.83698   0.46965   0.00000  Uiso   1.00
N366   N     0.82108   0.92295   0.73149   0.00000  Uiso   1.00
N367   N     0.15577   0.20187   0.65790   0.00000  Uiso   1.00
N368   N     0.14733   0.91417   0.50010   0.00000  Uiso   1.00
