data_job_02916
_audit_creation_date              2018-12-19
_audit_creation_method            'Materials Studio'
_symmetry_space_group_name_H-M    'P1'
_symmetry_Int_Tables_number       1
_symmetry_cell_setting            triclinic
loop_
_symmetry_equiv_pos_as_xyz
  x,y,z
_cell_length_a                    22.4616
_cell_length_b                    16.2003
_cell_length_c                    13.3381
_cell_angle_alpha                 90.0000
_cell_angle_beta                  90.0000
_cell_angle_gamma                 90.0000
loop_
_atom_site_label
_atom_site_type_symbol
_atom_site_fract_x
_atom_site_fract_y
_atom_site_fract_z
_atom_site_U_iso_or_equiv
_atom_site_adp_type
_atom_site_occupancy
C1     C     0.83532   0.52017   0.26911   0.00000  Uiso   1.00
C2     C     0.87712   0.55300   0.18834   0.00000  Uiso   1.00
C3     C     0.92681   0.60211   0.20470   0.00000  Uiso   1.00
C4     C     0.95927   0.62573   0.12090   0.00000  Uiso   1.00
C5     C     0.02670   0.68050   0.01018   0.00000  Uiso   1.00
C6     C     0.77318   0.54981   0.24038   0.00000  Uiso   1.00
C7     C     0.73547   0.59623   0.30051   0.00000  Uiso   1.00
C8     C     0.68043   0.61716   0.26052   0.00000  Uiso   1.00
C9     C     0.58647   0.66692   0.23062   0.00000  Uiso   1.00
C10    C     0.83461   0.42661   0.25669   0.00000  Uiso   1.00
C11    C     0.84853   0.36942   0.33053   0.00000  Uiso   1.00
C12    C     0.84520   0.28662   0.30427   0.00000  Uiso   1.00
C13    C     0.84662   0.14508   0.29968   0.00000  Uiso   1.00
C14    C     0.80462   0.47480   0.09119   0.00000  Uiso   1.00
C15    C     0.86045   0.52836   0.09170   0.00000  Uiso   1.00
C16    C     0.89285   0.55191   0.00785   0.00000  Uiso   1.00
C17    C     0.94257   0.60104   0.02409   0.00000  Uiso   1.00
C18    C     0.75651   0.52517   0.14374   0.00000  Uiso   1.00
C19    C     0.70151   0.54603   0.10366   0.00000  Uiso   1.00
C20    C     0.66373   0.59247   0.16370   0.00000  Uiso   1.00
C21    C     0.81794   0.40196   0.16004   0.00000  Uiso   1.00
C22    C     0.81458   0.31923   0.13367   0.00000  Uiso   1.00
C23    C     0.82850   0.26193   0.20745   0.00000  Uiso   1.00
H24    H     0.84829   0.53936   0.34435   0.00000  Uiso   1.00
H25    H     0.93969   0.62118   0.27951   0.00000  Uiso   1.00
H26    H     0.74838   0.61528   0.37530   0.00000  Uiso   1.00
H27    H     0.86143   0.38852   0.40530   0.00000  Uiso   1.00
H28    H     0.03366   0.70104   0.16499   0.00000  Uiso   1.00
H29    H     0.63026   0.68860   0.36699   0.00000  Uiso   1.00
H30    H     0.86865   0.21041   0.43026   0.00000  Uiso   1.00
H31    H     0.79164   0.45561   0.01595   0.00000  Uiso   1.00
H32    H     0.87994   0.53283   0.93307   0.00000  Uiso   1.00
H33    H     0.68863   0.52694   0.02887   0.00000  Uiso   1.00
H34    H     0.80168   0.30018   0.05887   0.00000  Uiso   1.00
H35    H     0.98516   0.62934   0.88381   0.00000  Uiso   1.00
H36    H     0.58176   0.61690   0.08581   0.00000  Uiso   1.00
H37    H     0.82015   0.13871   0.14908   0.00000  Uiso   1.00
O38    O     0.06850   0.71753   0.97580   0.00000  Uiso   1.00
O39    O     0.53926   0.70118   0.24083   0.00000  Uiso   1.00
O40    O     0.85202   0.07382   0.32384   0.00000  Uiso   1.00
N41    N     0.01013   0.67356   0.11019   0.00000  Uiso   1.00
N42    N     0.63299   0.66193   0.29904   0.00000  Uiso   1.00
N43    N     0.85584   0.21487   0.35820   0.00000  Uiso   1.00
N44    N     0.98404   0.63497   0.95889   0.00000  Uiso   1.00
N45    N     0.60689   0.62335   0.14774   0.00000  Uiso   1.00
N46    N     0.82975   0.17629   0.20690   0.00000  Uiso   1.00
C47    C     0.66468   0.97983   0.26911   0.00000  Uiso   1.00
C48    C     0.62288   0.94700   0.18834   0.00000  Uiso   1.00
C49    C     0.57319   0.89789   0.20470   0.00000  Uiso   1.00
C50    C     0.54073   0.87427   0.12090   0.00000  Uiso   1.00
C51    C     0.47330   0.81950   0.01018   0.00000  Uiso   1.00
C52    C     0.72682   0.95019   0.24038   0.00000  Uiso   1.00
C53    C     0.76453   0.90377   0.30051   0.00000  Uiso   1.00
C54    C     0.81957   0.88284   0.26052   0.00000  Uiso   1.00
C55    C     0.91353   0.83308   0.23062   0.00000  Uiso   1.00
C56    C     0.66539   0.07339   0.25669   0.00000  Uiso   1.00
C57    C     0.65147   0.13058   0.33053   0.00000  Uiso   1.00
C58    C     0.65480   0.21338   0.30427   0.00000  Uiso   1.00
C59    C     0.65338   0.35492   0.29968   0.00000  Uiso   1.00
C60    C     0.69538   0.02520   0.09119   0.00000  Uiso   1.00
C61    C     0.63955   0.97164   0.09170   0.00000  Uiso   1.00
C62    C     0.60715   0.94809   0.00785   0.00000  Uiso   1.00
C63    C     0.55743   0.89896   0.02409   0.00000  Uiso   1.00
C64    C     0.74349   0.97483   0.14374   0.00000  Uiso   1.00
C65    C     0.79849   0.95397   0.10366   0.00000  Uiso   1.00
C66    C     0.83627   0.90753   0.16370   0.00000  Uiso   1.00
C67    C     0.68206   0.09804   0.16004   0.00000  Uiso   1.00
C68    C     0.68542   0.18077   0.13367   0.00000  Uiso   1.00
C69    C     0.67150   0.23807   0.20745   0.00000  Uiso   1.00
H70    H     0.65171   0.96064   0.34435   0.00000  Uiso   1.00
H71    H     0.56031   0.87882   0.27951   0.00000  Uiso   1.00
H72    H     0.75162   0.88472   0.37530   0.00000  Uiso   1.00
H73    H     0.63857   0.11148   0.40530   0.00000  Uiso   1.00
H74    H     0.46634   0.79896   0.16499   0.00000  Uiso   1.00
H75    H     0.86974   0.81140   0.36699   0.00000  Uiso   1.00
H76    H     0.63135   0.28959   0.43026   0.00000  Uiso   1.00
H77    H     0.70836   0.04439   0.01595   0.00000  Uiso   1.00
H78    H     0.62006   0.96717   0.93307   0.00000  Uiso   1.00
H79    H     0.81137   0.97306   0.02887   0.00000  Uiso   1.00
H80    H     0.69832   0.19982   0.05887   0.00000  Uiso   1.00
H81    H     0.51484   0.87066   0.88381   0.00000  Uiso   1.00
H82    H     0.91824   0.88310   0.08581   0.00000  Uiso   1.00
H83    H     0.67985   0.36129   0.14908   0.00000  Uiso   1.00
O84    O     0.43150   0.78247   0.97580   0.00000  Uiso   1.00
O85    O     0.96074   0.79882   0.24083   0.00000  Uiso   1.00
O86    O     0.64798   0.42618   0.32384   0.00000  Uiso   1.00
N87    N     0.48987   0.82644   0.11019   0.00000  Uiso   1.00
N88    N     0.86701   0.83807   0.29904   0.00000  Uiso   1.00
N89    N     0.64416   0.28513   0.35820   0.00000  Uiso   1.00
N90    N     0.51596   0.86503   0.95889   0.00000  Uiso   1.00
N91    N     0.89311   0.87665   0.14774   0.00000  Uiso   1.00
N92    N     0.67025   0.32371   0.20690   0.00000  Uiso   1.00
C93    C     0.16468   0.02017   0.23089   0.00000  Uiso   1.00
C94    C     0.12288   0.05300   0.31166   0.00000  Uiso   1.00
C95    C     0.07319   0.10211   0.29530   0.00000  Uiso   1.00
C96    C     0.04073   0.12573   0.37910   0.00000  Uiso   1.00
C97    C     0.97330   0.18050   0.48982   0.00000  Uiso   1.00
C98    C     0.22682   0.04981   0.25962   0.00000  Uiso   1.00
C99    C     0.26453   0.09623   0.19949   0.00000  Uiso   1.00
C100   C     0.31957   0.11716   0.23948   0.00000  Uiso   1.00
C101   C     0.41353   0.16692   0.26938   0.00000  Uiso   1.00
C102   C     0.16539   0.92661   0.24331   0.00000  Uiso   1.00
C103   C     0.15147   0.86942   0.16947   0.00000  Uiso   1.00
C104   C     0.15480   0.78662   0.19573   0.00000  Uiso   1.00
C105   C     0.15338   0.64508   0.20032   0.00000  Uiso   1.00
C106   C     0.19538   0.97480   0.40881   0.00000  Uiso   1.00
C107   C     0.13955   0.02836   0.40830   0.00000  Uiso   1.00
C108   C     0.10715   0.05191   0.49215   0.00000  Uiso   1.00
C109   C     0.05743   0.10104   0.47591   0.00000  Uiso   1.00
C110   C     0.24349   0.02517   0.35626   0.00000  Uiso   1.00
C111   C     0.29849   0.04603   0.39634   0.00000  Uiso   1.00
C112   C     0.33627   0.09247   0.33630   0.00000  Uiso   1.00
C113   C     0.18206   0.90196   0.33996   0.00000  Uiso   1.00
C114   C     0.18542   0.81923   0.36633   0.00000  Uiso   1.00
C115   C     0.17150   0.76193   0.29255   0.00000  Uiso   1.00
H116   H     0.15171   0.03936   0.15565   0.00000  Uiso   1.00
H117   H     0.06031   0.12118   0.22049   0.00000  Uiso   1.00
H118   H     0.25162   0.11528   0.12470   0.00000  Uiso   1.00
H119   H     0.13857   0.88852   0.09470   0.00000  Uiso   1.00
H120   H     0.96634   0.20104   0.33501   0.00000  Uiso   1.00
H121   H     0.36974   0.18860   0.13301   0.00000  Uiso   1.00
H122   H     0.13135   0.71041   0.06974   0.00000  Uiso   1.00
H123   H     0.20836   0.95561   0.48405   0.00000  Uiso   1.00
H124   H     0.12006   0.03283   0.56693   0.00000  Uiso   1.00
H125   H     0.31137   0.02694   0.47113   0.00000  Uiso   1.00
H126   H     0.19832   0.80018   0.44113   0.00000  Uiso   1.00
H127   H     0.01484   0.12934   0.61619   0.00000  Uiso   1.00
H128   H     0.41824   0.11690   0.41419   0.00000  Uiso   1.00
H129   H     0.17985   0.63871   0.35092   0.00000  Uiso   1.00
O130   O     0.93150   0.21753   0.52420   0.00000  Uiso   1.00
O131   O     0.46074   0.20118   0.25917   0.00000  Uiso   1.00
O132   O     0.14798   0.57382   0.17616   0.00000  Uiso   1.00
N133   N     0.98987   0.17356   0.38981   0.00000  Uiso   1.00
N134   N     0.36701   0.16193   0.20096   0.00000  Uiso   1.00
N135   N     0.14416   0.71487   0.14180   0.00000  Uiso   1.00
N136   N     0.01596   0.13497   0.54111   0.00000  Uiso   1.00
N137   N     0.39311   0.12335   0.35226   0.00000  Uiso   1.00
N138   N     0.17025   0.67629   0.29310   0.00000  Uiso   1.00
C139   C     0.33532   0.47983   0.23089   0.00000  Uiso   1.00
C140   C     0.37712   0.44700   0.31166   0.00000  Uiso   1.00
C141   C     0.42681   0.39789   0.29530   0.00000  Uiso   1.00
C142   C     0.45927   0.37427   0.37910   0.00000  Uiso   1.00
C143   C     0.52670   0.31950   0.48982   0.00000  Uiso   1.00
C144   C     0.27318   0.45019   0.25962   0.00000  Uiso   1.00
C145   C     0.23547   0.40377   0.19949   0.00000  Uiso   1.00
C146   C     0.18043   0.38284   0.23948   0.00000  Uiso   1.00
C147   C     0.08647   0.33308   0.26938   0.00000  Uiso   1.00
C148   C     0.33461   0.57339   0.24331   0.00000  Uiso   1.00
C149   C     0.34853   0.63058   0.16947   0.00000  Uiso   1.00
C150   C     0.34520   0.71338   0.19573   0.00000  Uiso   1.00
C151   C     0.34662   0.85492   0.20032   0.00000  Uiso   1.00
C152   C     0.30462   0.52520   0.40881   0.00000  Uiso   1.00
C153   C     0.36045   0.47164   0.40830   0.00000  Uiso   1.00
C154   C     0.39285   0.44809   0.49215   0.00000  Uiso   1.00
C155   C     0.44257   0.39896   0.47591   0.00000  Uiso   1.00
C156   C     0.25651   0.47483   0.35626   0.00000  Uiso   1.00
C157   C     0.20151   0.45397   0.39634   0.00000  Uiso   1.00
C158   C     0.16373   0.40753   0.33630   0.00000  Uiso   1.00
C159   C     0.31794   0.59804   0.33996   0.00000  Uiso   1.00
C160   C     0.31458   0.68077   0.36633   0.00000  Uiso   1.00
C161   C     0.32850   0.73807   0.29255   0.00000  Uiso   1.00
H162   H     0.34829   0.46064   0.15565   0.00000  Uiso   1.00
H163   H     0.43969   0.37882   0.22049   0.00000  Uiso   1.00
H164   H     0.24838   0.38472   0.12470   0.00000  Uiso   1.00
H165   H     0.36143   0.61148   0.09470   0.00000  Uiso   1.00
H166   H     0.53366   0.29896   0.33501   0.00000  Uiso   1.00
H167   H     0.13026   0.31140   0.13301   0.00000  Uiso   1.00
H168   H     0.36865   0.78959   0.06974   0.00000  Uiso   1.00
H169   H     0.29164   0.54439   0.48405   0.00000  Uiso   1.00
H170   H     0.37994   0.46717   0.56693   0.00000  Uiso   1.00
H171   H     0.18863   0.47306   0.47113   0.00000  Uiso   1.00
H172   H     0.30168   0.69982   0.44113   0.00000  Uiso   1.00
H173   H     0.48516   0.37066   0.61619   0.00000  Uiso   1.00
H174   H     0.08176   0.38310   0.41419   0.00000  Uiso   1.00
H175   H     0.32015   0.86129   0.35092   0.00000  Uiso   1.00
O176   O     0.56850   0.28247   0.52420   0.00000  Uiso   1.00
O177   O     0.03926   0.29882   0.25917   0.00000  Uiso   1.00
O178   O     0.35202   0.92618   0.17616   0.00000  Uiso   1.00
N179   N     0.51013   0.32644   0.38981   0.00000  Uiso   1.00
N180   N     0.13299   0.33807   0.20096   0.00000  Uiso   1.00
N181   N     0.35584   0.78513   0.14180   0.00000  Uiso   1.00
N182   N     0.48404   0.36503   0.54111   0.00000  Uiso   1.00
N183   N     0.10689   0.37665   0.35226   0.00000  Uiso   1.00
N184   N     0.32975   0.82371   0.29310   0.00000  Uiso   1.00
C185   C     0.16468   0.47983   0.73089   0.00000  Uiso   1.00
C186   C     0.12288   0.44700   0.81166   0.00000  Uiso   1.00
C187   C     0.07319   0.39789   0.79530   0.00000  Uiso   1.00
C188   C     0.04073   0.37427   0.87910   0.00000  Uiso   1.00
C189   C     0.97330   0.31950   0.98982   0.00000  Uiso   1.00
C190   C     0.22682   0.45019   0.75962   0.00000  Uiso   1.00
C191   C     0.26453   0.40377   0.69949   0.00000  Uiso   1.00
C192   C     0.31957   0.38284   0.73948   0.00000  Uiso   1.00
C193   C     0.41353   0.33308   0.76938   0.00000  Uiso   1.00
C194   C     0.16539   0.57339   0.74331   0.00000  Uiso   1.00
C195   C     0.15147   0.63058   0.66947   0.00000  Uiso   1.00
C196   C     0.15480   0.71338   0.69573   0.00000  Uiso   1.00
C197   C     0.15338   0.85492   0.70032   0.00000  Uiso   1.00
C198   C     0.19538   0.52520   0.90881   0.00000  Uiso   1.00
C199   C     0.13955   0.47164   0.90830   0.00000  Uiso   1.00
C200   C     0.10715   0.44809   0.99215   0.00000  Uiso   1.00
C201   C     0.05743   0.39896   0.97591   0.00000  Uiso   1.00
C202   C     0.24349   0.47483   0.85626   0.00000  Uiso   1.00
C203   C     0.29849   0.45397   0.89634   0.00000  Uiso   1.00
C204   C     0.33627   0.40753   0.83630   0.00000  Uiso   1.00
C205   C     0.18206   0.59804   0.83996   0.00000  Uiso   1.00
C206   C     0.18542   0.68077   0.86633   0.00000  Uiso   1.00
C207   C     0.17150   0.73807   0.79255   0.00000  Uiso   1.00
H208   H     0.15171   0.46064   0.65565   0.00000  Uiso   1.00
H209   H     0.06031   0.37882   0.72049   0.00000  Uiso   1.00
H210   H     0.25162   0.38472   0.62470   0.00000  Uiso   1.00
H211   H     0.13857   0.61148   0.59470   0.00000  Uiso   1.00
H212   H     0.96634   0.29896   0.83501   0.00000  Uiso   1.00
H213   H     0.36974   0.31140   0.63301   0.00000  Uiso   1.00
H214   H     0.13135   0.78959   0.56974   0.00000  Uiso   1.00
H215   H     0.20836   0.54439   0.98405   0.00000  Uiso   1.00
H216   H     0.12006   0.46717   0.06693   0.00000  Uiso   1.00
H217   H     0.31137   0.47306   0.97113   0.00000  Uiso   1.00
H218   H     0.19832   0.69982   0.94113   0.00000  Uiso   1.00
H219   H     0.01484   0.37066   0.11619   0.00000  Uiso   1.00
H220   H     0.41824   0.38310   0.91419   0.00000  Uiso   1.00
H221   H     0.17985   0.86129   0.85092   0.00000  Uiso   1.00
O222   O     0.93150   0.28247   0.02420   0.00000  Uiso   1.00
O223   O     0.46074   0.29882   0.75917   0.00000  Uiso   1.00
O224   O     0.14798   0.92618   0.67616   0.00000  Uiso   1.00
N225   N     0.98987   0.32644   0.88981   0.00000  Uiso   1.00
N226   N     0.36701   0.33807   0.70096   0.00000  Uiso   1.00
N227   N     0.14416   0.78513   0.64180   0.00000  Uiso   1.00
N228   N     0.01596   0.36503   0.04111   0.00000  Uiso   1.00
N229   N     0.39311   0.37665   0.85226   0.00000  Uiso   1.00
N230   N     0.17025   0.82371   0.79310   0.00000  Uiso   1.00
C231   C     0.33532   0.02017   0.73089   0.00000  Uiso   1.00
C232   C     0.37712   0.05300   0.81166   0.00000  Uiso   1.00
C233   C     0.42681   0.10211   0.79530   0.00000  Uiso   1.00
C234   C     0.45927   0.12573   0.87910   0.00000  Uiso   1.00
C235   C     0.52670   0.18050   0.98982   0.00000  Uiso   1.00
C236   C     0.27318   0.04981   0.75962   0.00000  Uiso   1.00
C237   C     0.23547   0.09623   0.69949   0.00000  Uiso   1.00
C238   C     0.18043   0.11716   0.73948   0.00000  Uiso   1.00
C239   C     0.08647   0.16692   0.76938   0.00000  Uiso   1.00
C240   C     0.33461   0.92661   0.74331   0.00000  Uiso   1.00
C241   C     0.34853   0.86942   0.66947   0.00000  Uiso   1.00
C242   C     0.34520   0.78662   0.69573   0.00000  Uiso   1.00
C243   C     0.34662   0.64508   0.70032   0.00000  Uiso   1.00
C244   C     0.30462   0.97480   0.90881   0.00000  Uiso   1.00
C245   C     0.36045   0.02836   0.90830   0.00000  Uiso   1.00
C246   C     0.39285   0.05191   0.99215   0.00000  Uiso   1.00
C247   C     0.44257   0.10104   0.97591   0.00000  Uiso   1.00
C248   C     0.25651   0.02517   0.85626   0.00000  Uiso   1.00
C249   C     0.20151   0.04603   0.89634   0.00000  Uiso   1.00
C250   C     0.16373   0.09247   0.83630   0.00000  Uiso   1.00
C251   C     0.31794   0.90196   0.83996   0.00000  Uiso   1.00
C252   C     0.31458   0.81923   0.86633   0.00000  Uiso   1.00
C253   C     0.32850   0.76193   0.79255   0.00000  Uiso   1.00
H254   H     0.34829   0.03936   0.65565   0.00000  Uiso   1.00
H255   H     0.43969   0.12118   0.72049   0.00000  Uiso   1.00
H256   H     0.24838   0.11528   0.62470   0.00000  Uiso   1.00
H257   H     0.36143   0.88852   0.59470   0.00000  Uiso   1.00
H258   H     0.53366   0.20104   0.83501   0.00000  Uiso   1.00
H259   H     0.13026   0.18860   0.63301   0.00000  Uiso   1.00
H260   H     0.36865   0.71041   0.56974   0.00000  Uiso   1.00
H261   H     0.29164   0.95561   0.98405   0.00000  Uiso   1.00
H262   H     0.37994   0.03283   0.06693   0.00000  Uiso   1.00
H263   H     0.18863   0.02694   0.97113   0.00000  Uiso   1.00
H264   H     0.30168   0.80018   0.94113   0.00000  Uiso   1.00
H265   H     0.48516   0.12934   0.11619   0.00000  Uiso   1.00
H266   H     0.08176   0.11690   0.91419   0.00000  Uiso   1.00
H267   H     0.32015   0.63871   0.85092   0.00000  Uiso   1.00
O268   O     0.56850   0.21753   0.02420   0.00000  Uiso   1.00
O269   O     0.03926   0.20118   0.75917   0.00000  Uiso   1.00
O270   O     0.35202   0.57382   0.67616   0.00000  Uiso   1.00
N271   N     0.51013   0.17356   0.88981   0.00000  Uiso   1.00
N272   N     0.13299   0.16193   0.70096   0.00000  Uiso   1.00
N273   N     0.35584   0.71487   0.64180   0.00000  Uiso   1.00
N274   N     0.48404   0.13497   0.04111   0.00000  Uiso   1.00
N275   N     0.10689   0.12335   0.85226   0.00000  Uiso   1.00
N276   N     0.32975   0.67629   0.79310   0.00000  Uiso   1.00
C277   C     0.83532   0.97983   0.76911   0.00000  Uiso   1.00
C278   C     0.87712   0.94700   0.68834   0.00000  Uiso   1.00
C279   C     0.92681   0.89789   0.70470   0.00000  Uiso   1.00
C280   C     0.95927   0.87427   0.62090   0.00000  Uiso   1.00
C281   C     0.02670   0.81950   0.51018   0.00000  Uiso   1.00
C282   C     0.77318   0.95019   0.74038   0.00000  Uiso   1.00
C283   C     0.73547   0.90377   0.80051   0.00000  Uiso   1.00
C284   C     0.68043   0.88284   0.76052   0.00000  Uiso   1.00
C285   C     0.58647   0.83308   0.73062   0.00000  Uiso   1.00
C286   C     0.83461   0.07339   0.75669   0.00000  Uiso   1.00
C287   C     0.84853   0.13058   0.83053   0.00000  Uiso   1.00
C288   C     0.84520   0.21338   0.80427   0.00000  Uiso   1.00
C289   C     0.84662   0.35492   0.79968   0.00000  Uiso   1.00
C290   C     0.80462   0.02520   0.59119   0.00000  Uiso   1.00
C291   C     0.86045   0.97164   0.59170   0.00000  Uiso   1.00
C292   C     0.89285   0.94809   0.50785   0.00000  Uiso   1.00
C293   C     0.94257   0.89896   0.52409   0.00000  Uiso   1.00
C294   C     0.75651   0.97483   0.64374   0.00000  Uiso   1.00
C295   C     0.70151   0.95397   0.60366   0.00000  Uiso   1.00
C296   C     0.66373   0.90753   0.66370   0.00000  Uiso   1.00
C297   C     0.81794   0.09804   0.66004   0.00000  Uiso   1.00
C298   C     0.81458   0.18077   0.63367   0.00000  Uiso   1.00
C299   C     0.82850   0.23807   0.70745   0.00000  Uiso   1.00
H300   H     0.84829   0.96064   0.84435   0.00000  Uiso   1.00
H301   H     0.93969   0.87882   0.77951   0.00000  Uiso   1.00
H302   H     0.74838   0.88472   0.87530   0.00000  Uiso   1.00
H303   H     0.86143   0.11148   0.90530   0.00000  Uiso   1.00
H304   H     0.03366   0.79896   0.66499   0.00000  Uiso   1.00
H305   H     0.63026   0.81140   0.86699   0.00000  Uiso   1.00
H306   H     0.86865   0.28959   0.93026   0.00000  Uiso   1.00
H307   H     0.79164   0.04439   0.51595   0.00000  Uiso   1.00
H308   H     0.87994   0.96717   0.43307   0.00000  Uiso   1.00
H309   H     0.68863   0.97306   0.52887   0.00000  Uiso   1.00
H310   H     0.80168   0.19982   0.55887   0.00000  Uiso   1.00
H311   H     0.98516   0.87066   0.38381   0.00000  Uiso   1.00
H312   H     0.58176   0.88310   0.58581   0.00000  Uiso   1.00
H313   H     0.82015   0.36129   0.64908   0.00000  Uiso   1.00
O314   O     0.06850   0.78247   0.47580   0.00000  Uiso   1.00
O315   O     0.53926   0.79882   0.74083   0.00000  Uiso   1.00
O316   O     0.85202   0.42618   0.82384   0.00000  Uiso   1.00
N317   N     0.01013   0.82644   0.61019   0.00000  Uiso   1.00
N318   N     0.63299   0.83807   0.79904   0.00000  Uiso   1.00
N319   N     0.85584   0.28513   0.85820   0.00000  Uiso   1.00
N320   N     0.98404   0.86503   0.45889   0.00000  Uiso   1.00
N321   N     0.60689   0.87665   0.64774   0.00000  Uiso   1.00
N322   N     0.82975   0.32371   0.70690   0.00000  Uiso   1.00
C323   C     0.66468   0.52017   0.76911   0.00000  Uiso   1.00
C324   C     0.62288   0.55300   0.68834   0.00000  Uiso   1.00
C325   C     0.57319   0.60211   0.70470   0.00000  Uiso   1.00
C326   C     0.54073   0.62573   0.62090   0.00000  Uiso   1.00
C327   C     0.47330   0.68050   0.51018   0.00000  Uiso   1.00
C328   C     0.72682   0.54981   0.74038   0.00000  Uiso   1.00
C329   C     0.76453   0.59623   0.80051   0.00000  Uiso   1.00
C330   C     0.81957   0.61716   0.76052   0.00000  Uiso   1.00
C331   C     0.91353   0.66692   0.73062   0.00000  Uiso   1.00
C332   C     0.66539   0.42661   0.75669   0.00000  Uiso   1.00
C333   C     0.65147   0.36942   0.83053   0.00000  Uiso   1.00
C334   C     0.65480   0.28662   0.80427   0.00000  Uiso   1.00
C335   C     0.65338   0.14508   0.79968   0.00000  Uiso   1.00
C336   C     0.69538   0.47480   0.59119   0.00000  Uiso   1.00
C337   C     0.63955   0.52836   0.59170   0.00000  Uiso   1.00
C338   C     0.60715   0.55191   0.50785   0.00000  Uiso   1.00
C339   C     0.55743   0.60104   0.52409   0.00000  Uiso   1.00
C340   C     0.74349   0.52517   0.64374   0.00000  Uiso   1.00
C341   C     0.79849   0.54603   0.60366   0.00000  Uiso   1.00
C342   C     0.83627   0.59247   0.66370   0.00000  Uiso   1.00
C343   C     0.68206   0.40196   0.66004   0.00000  Uiso   1.00
C344   C     0.68542   0.31923   0.63367   0.00000  Uiso   1.00
C345   C     0.67150   0.26193   0.70745   0.00000  Uiso   1.00
H346   H     0.65171   0.53936   0.84435   0.00000  Uiso   1.00
H347   H     0.56031   0.62118   0.77951   0.00000  Uiso   1.00
H348   H     0.75162   0.61528   0.87530   0.00000  Uiso   1.00
H349   H     0.63857   0.38852   0.90530   0.00000  Uiso   1.00
H350   H     0.46634   0.70104   0.66499   0.00000  Uiso   1.00
H351   H     0.86974   0.68860   0.86699   0.00000  Uiso   1.00
H352   H     0.63135   0.21041   0.93026   0.00000  Uiso   1.00
H353   H     0.70836   0.45561   0.51595   0.00000  Uiso   1.00
H354   H     0.62006   0.53283   0.43307   0.00000  Uiso   1.00
H355   H     0.81137   0.52694   0.52887   0.00000  Uiso   1.00
H356   H     0.69832   0.30018   0.55887   0.00000  Uiso   1.00
H357   H     0.51484   0.62934   0.38381   0.00000  Uiso   1.00
H358   H     0.91824   0.61690   0.58581   0.00000  Uiso   1.00
H359   H     0.67985   0.13871   0.64908   0.00000  Uiso   1.00
O360   O     0.43150   0.71753   0.47580   0.00000  Uiso   1.00
O361   O     0.96074   0.70118   0.74083   0.00000  Uiso   1.00
O362   O     0.64798   0.07382   0.82384   0.00000  Uiso   1.00
N363   N     0.48987   0.67356   0.61019   0.00000  Uiso   1.00
N364   N     0.86701   0.66193   0.79904   0.00000  Uiso   1.00
N365   N     0.64416   0.21487   0.85820   0.00000  Uiso   1.00
N366   N     0.51596   0.63497   0.45889   0.00000  Uiso   1.00
N367   N     0.89311   0.62335   0.64774   0.00000  Uiso   1.00
N368   N     0.67025   0.17629   0.70690   0.00000  Uiso   1.00
