data_job_03629
_audit_creation_date              2018-12-19
_audit_creation_method            'Materials Studio'
_symmetry_space_group_name_H-M    'P1'
_symmetry_Int_Tables_number       1
_symmetry_cell_setting            triclinic
loop_
_symmetry_equiv_pos_as_xyz
  x,y,z
_cell_length_a                    10.9041
_cell_length_b                    12.6298
_cell_length_c                    20.5839
_cell_angle_alpha                 83.2732
_cell_angle_beta                  94.3185
_cell_angle_gamma                 87.8855
loop_
_atom_site_label
_atom_site_type_symbol
_atom_site_fract_x
_atom_site_fract_y
_atom_site_fract_z
_atom_site_U_iso_or_equiv
_atom_site_adp_type
_atom_site_occupancy
C1     C     0.07493   0.93231   0.83140   0.00000  Uiso   1.00
C2     C     0.10164   0.02871   0.86752   0.00000  Uiso   1.00
C3     C     0.01572   0.08826   0.89615   0.00000  Uiso   1.00
C4     C     0.05852   0.17346   0.92687   0.00000  Uiso   1.00
C5     C     0.08108   0.31942   0.98262   0.00000  Uiso   1.00
C6     C     0.11998   0.95834   0.76325   0.00000  Uiso   1.00
C7     C     0.04947   0.95872   0.70420   0.00000  Uiso   1.00
C8     C     0.10772   0.98467   0.64714   0.00000  Uiso   1.00
C9     C     0.15877   0.02131   0.54100   0.00000  Uiso   1.00
C10    C     0.15998   0.84100   0.86595   0.00000  Uiso   1.00
C11    C     0.12310   0.74270   0.89324   0.00000  Uiso   1.00
C12    C     0.21503   0.66984   0.92264   0.00000  Uiso   1.00
C13    C     0.32819   0.52429   0.97596   0.00000  Uiso   1.00
C14    C     0.30376   0.97770   0.83507   0.00000  Uiso   1.00
C15    C     0.22594   0.05336   0.86951   0.00000  Uiso   1.00
C16    C     0.26888   0.13849   0.90020   0.00000  Uiso   1.00
C17    C     0.18303   0.19816   0.92887   0.00000  Uiso   1.00
C18    C     0.24427   0.98300   0.76523   0.00000  Uiso   1.00
C19    C     0.30264   0.00894   0.70825   0.00000  Uiso   1.00
C20    C     0.23223   0.00937   0.64913   0.00000  Uiso   1.00
C21    C     0.28427   0.86565   0.86794   0.00000  Uiso   1.00
C22    C     0.37627   0.79293   0.89729   0.00000  Uiso   1.00
C23    C     0.33955   0.69454   0.92463   0.00000  Uiso   1.00
H24    H     0.97817   0.91311   0.82985   0.00000  Uiso   1.00
H25    H     0.91953   0.06916   0.89459   0.00000  Uiso   1.00
H26    H     0.95329   0.93962   0.70267   0.00000  Uiso   1.00
H27    H     0.02691   0.72365   0.89169   0.00000  Uiso   1.00
H28    H     0.90933   0.25306   0.96723   0.00000  Uiso   1.00
H29    H     0.98052   0.97990   0.56256   0.00000  Uiso   1.00
H30    H     0.13577   0.52446   0.96113   0.00000  Uiso   1.00
H31    H     0.40053   0.99690   0.83661   0.00000  Uiso   1.00
H32    H     0.36507   0.15755   0.90173   0.00000  Uiso   1.00
H33    H     0.39882   0.02801   0.70981   0.00000  Uiso   1.00
H34    H     0.47245   0.81204   0.89882   0.00000  Uiso   1.00
H35    H     0.27095   0.32481   0.97301   0.00000  Uiso   1.00
H36    H     0.34213   0.05163   0.56834   0.00000  Uiso   1.00
H37    H     0.49738   0.59620   0.96692   0.00000  Uiso   1.00
O38    O     0.05919   0.39312   0.01281   0.00000  Uiso   1.00
O39    O     0.15258   0.03472   0.48190   0.00000  Uiso   1.00
O40    O     0.35626   0.43720   0.00482   0.00000  Uiso   1.00
N41    N     0.99931   0.24789   0.95966   0.00000  Uiso   1.00
N42    N     0.06586   0.99251   0.58132   0.00000  Uiso   1.00
N43    N     0.21100   0.56670   0.95394   0.00000  Uiso   1.00
N44    N     0.19389   0.28649   0.96278   0.00000  Uiso   1.00
N45    N     0.26044   0.03111   0.58444   0.00000  Uiso   1.00
N46    N     0.40558   0.60531   0.95705   0.00000  Uiso   1.00
C47    C     0.92507   0.06769   0.16860   0.00000  Uiso   1.00
C48    C     0.89836   0.97129   0.13248   0.00000  Uiso   1.00
C49    C     0.98428   0.91174   0.10385   0.00000  Uiso   1.00
C50    C     0.94148   0.82654   0.07313   0.00000  Uiso   1.00
C51    C     0.91892   0.68058   0.01738   0.00000  Uiso   1.00
C52    C     0.88002   0.04166   0.23675   0.00000  Uiso   1.00
C53    C     0.95053   0.04128   0.29580   0.00000  Uiso   1.00
C54    C     0.89228   0.01533   0.35286   0.00000  Uiso   1.00
C55    C     0.84123   0.97869   0.45900   0.00000  Uiso   1.00
C56    C     0.84002   0.15900   0.13405   0.00000  Uiso   1.00
C57    C     0.87690   0.25730   0.10676   0.00000  Uiso   1.00
C58    C     0.78497   0.33016   0.07736   0.00000  Uiso   1.00
C59    C     0.67181   0.47571   0.02404   0.00000  Uiso   1.00
C60    C     0.69624   0.02230   0.16493   0.00000  Uiso   1.00
C61    C     0.77406   0.94664   0.13049   0.00000  Uiso   1.00
C62    C     0.73112   0.86151   0.09980   0.00000  Uiso   1.00
C63    C     0.81697   0.80184   0.07113   0.00000  Uiso   1.00
C64    C     0.75573   0.01700   0.23477   0.00000  Uiso   1.00
C65    C     0.69736   0.99106   0.29175   0.00000  Uiso   1.00
C66    C     0.76777   0.99063   0.35087   0.00000  Uiso   1.00
C67    C     0.71573   0.13435   0.13206   0.00000  Uiso   1.00
C68    C     0.62373   0.20707   0.10271   0.00000  Uiso   1.00
C69    C     0.66045   0.30546   0.07537   0.00000  Uiso   1.00
H70    H     0.02183   0.08689   0.17015   0.00000  Uiso   1.00
H71    H     0.08047   0.93084   0.10541   0.00000  Uiso   1.00
H72    H     0.04671   0.06038   0.29733   0.00000  Uiso   1.00
H73    H     0.97309   0.27635   0.10831   0.00000  Uiso   1.00
H74    H     0.09067   0.74694   0.03277   0.00000  Uiso   1.00
H75    H     0.01948   0.02010   0.43744   0.00000  Uiso   1.00
H76    H     0.86423   0.47554   0.03887   0.00000  Uiso   1.00
H77    H     0.59947   0.00310   0.16339   0.00000  Uiso   1.00
H78    H     0.63493   0.84245   0.09827   0.00000  Uiso   1.00
H79    H     0.60118   0.97199   0.29019   0.00000  Uiso   1.00
H80    H     0.52755   0.18796   0.10118   0.00000  Uiso   1.00
H81    H     0.72905   0.67519   0.02699   0.00000  Uiso   1.00
H82    H     0.65787   0.94837   0.43166   0.00000  Uiso   1.00
H83    H     0.50262   0.40380   0.03308   0.00000  Uiso   1.00
O84    O     0.94081   0.60688   0.98719   0.00000  Uiso   1.00
O85    O     0.84742   0.96528   0.51810   0.00000  Uiso   1.00
O86    O     0.64374   0.56280   0.99518   0.00000  Uiso   1.00
N87    N     0.00069   0.75211   0.04034   0.00000  Uiso   1.00
N88    N     0.93414   0.00749   0.41868   0.00000  Uiso   1.00
N89    N     0.78900   0.43330   0.04606   0.00000  Uiso   1.00
N90    N     0.80611   0.71351   0.03722   0.00000  Uiso   1.00
N91    N     0.73956   0.96889   0.41556   0.00000  Uiso   1.00
N92    N     0.59442   0.39469   0.04295   0.00000  Uiso   1.00
