data_job_06545
_audit_creation_date              2018-12-19
_audit_creation_method            'Materials Studio'
_symmetry_space_group_name_H-M    'P1'
_symmetry_Int_Tables_number       1
_symmetry_cell_setting            triclinic
loop_
_symmetry_equiv_pos_as_xyz
  x,y,z
_cell_length_a                    19.3410
_cell_length_b                    20.3380
_cell_length_c                    23.4384
_cell_angle_alpha                 68.3843
_cell_angle_beta                  72.8290
_cell_angle_gamma                 94.1983
loop_
_atom_site_label
_atom_site_type_symbol
_atom_site_fract_x
_atom_site_fract_y
_atom_site_fract_z
_atom_site_U_iso_or_equiv
_atom_site_adp_type
_atom_site_occupancy
C1     C     0.86182   0.74986   0.33170   0.00000  Uiso   1.00
C2     C     0.91832   0.80408   0.33428   0.00000  Uiso   1.00
C3     C     0.97828   0.78871   0.35420   0.00000  Uiso   1.00
C4     C     0.02350   0.84578   0.35305   0.00000  Uiso   1.00
C5     C     0.11338   0.91933   0.36018   0.00000  Uiso   1.00
C6     C     0.78646   0.75371   0.37369   0.00000  Uiso   1.00
C7     C     0.73556   0.69598   0.42674   0.00000  Uiso   1.00
C8     C     0.66979   0.71066   0.45876   0.00000  Uiso   1.00
C9     C     0.55494   0.70599   0.52705   0.00000  Uiso   1.00
C10    C     0.86263   0.77999   0.26147   0.00000  Uiso   1.00
C11    C     0.87576   0.74435   0.22017   0.00000  Uiso   1.00
C12    C     0.87410   0.78114   0.15772   0.00000  Uiso   1.00
C13    C     0.87752   0.81727   0.05177   0.00000  Uiso   1.00
C14    C     0.83550   0.87857   0.29425   0.00000  Uiso   1.00
C15    C     0.90402   0.87399   0.31394   0.00000  Uiso   1.00
C16    C     0.94916   0.93111   0.31276   0.00000  Uiso   1.00
C17    C     0.00918   0.91582   0.33267   0.00000  Uiso   1.00
C18    C     0.77217   0.82362   0.35335   0.00000  Uiso   1.00
C19    C     0.70645   0.83838   0.38530   0.00000  Uiso   1.00
C20    C     0.65546   0.78069   0.43838   0.00000  Uiso   1.00
C21    C     0.84834   0.84990   0.24113   0.00000  Uiso   1.00
C22    C     0.84665   0.88675   0.17873   0.00000  Uiso   1.00
C23    C     0.85977   0.85117   0.13734   0.00000  Uiso   1.00
H24    H     0.87294   0.69544   0.34754   0.00000  Uiso   1.00
H25    H     0.98932   0.73460   0.36994   0.00000  Uiso   1.00
H26    H     0.74664   0.64189   0.44246   0.00000  Uiso   1.00
H27    H     0.88682   0.69025   0.23593   0.00000  Uiso   1.00
H28    H     0.11202   0.80884   0.38583   0.00000  Uiso   1.00
H29    H     0.60031   0.61335   0.53873   0.00000  Uiso   1.00
H30    H     0.89591   0.71532   0.10321   0.00000  Uiso   1.00
H31    H     0.82437   0.93300   0.27841   0.00000  Uiso   1.00
H32    H     0.93808   0.98520   0.29701   0.00000  Uiso   1.00
H33    H     0.69540   0.89249   0.36954   0.00000  Uiso   1.00
H34    H     0.83559   0.94085   0.16300   0.00000  Uiso   1.00
H35    H     0.07044   0.01224   0.32664   0.00000  Uiso   1.00
H36    H     0.55872   0.81675   0.47954   0.00000  Uiso   1.00
H37    H     0.85432   0.91872   0.04403   0.00000  Uiso   1.00
O38    O     0.16689   0.94059   0.36974   0.00000  Uiso   1.00
O39    O     0.49555   0.68411   0.57034   0.00000  Uiso   1.00
O40    O     0.88337   0.81790   0.99895   0.00000  Uiso   1.00
N41    N     0.08664   0.84955   0.36933   0.00000  Uiso   1.00
N42    N     0.60822   0.66678   0.51230   0.00000  Uiso   1.00
N43    N     0.88456   0.76211   0.10513   0.00000  Uiso   1.00
N44    N     0.06426   0.95900   0.33748   0.00000  Uiso   1.00
N45    N     0.58585   0.77623   0.48045   0.00000  Uiso   1.00
N46    N     0.86219   0.87156   0.07328   0.00000  Uiso   1.00
C47    C     0.17935   0.91237   0.70368   0.00000  Uiso   1.00
C48    C     0.15131   0.97715   0.66657   0.00000  Uiso   1.00
C49    C     0.15508   0.99976   0.60198   0.00000  Uiso   1.00
C50    C     0.12636   0.06027   0.57699   0.00000  Uiso   1.00
C51    C     0.08761   0.15532   0.51353   0.00000  Uiso   1.00
C52    C     0.23383   0.94165   0.72845   0.00000  Uiso   1.00
C53    C     0.30697   0.93440   0.71589   0.00000  Uiso   1.00
C54    C     0.34770   0.96503   0.74299   0.00000  Uiso   1.00
C55    C     0.43705   0.00492   0.77564   0.00000  Uiso   1.00
C56    C     0.11339   0.86442   0.76433   0.00000  Uiso   1.00
C57    C     0.08527   0.79222   0.78195   0.00000  Uiso   1.00
C58    C     0.02461   0.75782   0.83928   0.00000  Uiso   1.00
C59    C     0.92696   0.67779   0.92764   0.00000  Uiso   1.00
C60    C     0.12164   0.97965   0.77417   0.00000  Uiso   1.00
C61    C     0.11997   0.01369   0.70486   0.00000  Uiso   1.00
C62    C     0.09123   0.07419   0.67996   0.00000  Uiso   1.00
C63    C     0.09495   0.09688   0.61534   0.00000  Uiso   1.00
C64    C     0.20248   0.97820   0.76673   0.00000  Uiso   1.00
C65    C     0.24312   0.00884   0.79387   0.00000  Uiso   1.00
C66    C     0.31630   0.00164   0.78135   0.00000  Uiso   1.00
C67    C     0.08204   0.90096   0.80262   0.00000  Uiso   1.00
C68    C     0.02142   0.86666   0.85993   0.00000  Uiso   1.00
C69    C     0.99321   0.79442   0.87764   0.00000  Uiso   1.00
H70    H     0.20376   0.88392   0.67388   0.00000  Uiso   1.00
H71    H     0.17935   0.97147   0.57236   0.00000  Uiso   1.00
H72    H     0.33121   0.90612   0.68626   0.00000  Uiso   1.00
H73    H     0.10954   0.76396   0.75231   0.00000  Uiso   1.00
H74    H     0.13848   0.08465   0.47669   0.00000  Uiso   1.00
H75    H     0.45867   0.94684   0.71687   0.00000  Uiso   1.00
H76    H     0.99125   0.64707   0.85616   0.00000  Uiso   1.00
H77    H     0.09724   0.00810   0.80398   0.00000  Uiso   1.00
H78    H     0.06697   0.10246   0.70960   0.00000  Uiso   1.00
H79    H     0.21884   0.03711   0.82350   0.00000  Uiso   1.00
H80    H     0.99717   0.89495   0.88955   0.00000  Uiso   1.00
H81    H     0.04728   0.19097   0.58808   0.00000  Uiso   1.00
H82    H     0.36747   0.05316   0.82826   0.00000  Uiso   1.00
H83    H     0.90005   0.75339   0.96754   0.00000  Uiso   1.00
O84    O     0.07491   0.19766   0.46795   0.00000  Uiso   1.00
O85    O     0.49499   0.01684   0.78306   0.00000  Uiso   1.00
O86    O     0.88175   0.62356   0.96580   0.00000  Uiso   1.00
N87    N     0.12115   0.09672   0.51586   0.00000  Uiso   1.00
N88    N     0.42052   0.96788   0.74041   0.00000  Uiso   1.00
N89    N     0.98353   0.68762   0.87064   0.00000  Uiso   1.00
N90    N     0.07208   0.15393   0.57580   0.00000  Uiso   1.00
N91    N     0.37145   0.02509   0.80034   0.00000  Uiso   1.00
N92    N     0.93446   0.74483   0.93057   0.00000  Uiso   1.00
C93    C     0.54974   0.79381   0.86503   0.00000  Uiso   1.00
C94    C     0.57602   0.86207   0.87200   0.00000  Uiso   1.00
C95    C     0.53405   0.89053   0.91278   0.00000  Uiso   1.00
C96    C     0.56819   0.95343   0.91209   0.00000  Uiso   1.00
C97    C     0.59782   0.05440   0.92898   0.00000  Uiso   1.00
C98    C     0.56205   0.81650   0.79252   0.00000  Uiso   1.00
C99    C     0.50833   0.80662   0.76648   0.00000  Uiso   1.00
C100   C     0.53071   0.83115   0.69888   0.00000  Uiso   1.00
C101   C     0.53866   0.86131   0.59238   0.00000  Uiso   1.00
C102   C     0.60383   0.74474   0.88002   0.00000  Uiso   1.00
C103   C     0.58524   0.67452   0.92756   0.00000  Uiso   1.00
C104   C     0.64279   0.63863   0.93362   0.00000  Uiso   1.00
C105   C     0.71559   0.55738   0.96299   0.00000  Uiso   1.00
C106   C     0.68499   0.85493   0.79127   0.00000  Uiso   1.00
C107   C     0.64949   0.89527   0.83193   0.00000  Uiso   1.00
C108   C     0.68370   0.95815   0.83118   0.00000  Uiso   1.00
C109   C     0.64179   0.98669   0.87196   0.00000  Uiso   1.00
C110   C     0.63551   0.84969   0.75245   0.00000  Uiso   1.00
C111   C     0.65798   0.87424   0.68488   0.00000  Uiso   1.00
C112   C     0.60431   0.86440   0.65875   0.00000  Uiso   1.00
C113   C     0.67729   0.77794   0.83996   0.00000  Uiso   1.00
C114   C     0.73488   0.74215   0.84595   0.00000  Uiso   1.00
C115   C     0.71638   0.67189   0.89348   0.00000  Uiso   1.00
H116   H     0.49254   0.76796   0.89622   0.00000  Uiso   1.00
H117   H     0.47720   0.86482   0.94378   0.00000  Uiso   1.00
H118   H     0.45149   0.78092   0.79750   0.00000  Uiso   1.00
H119   H     0.52838   0.64885   0.95855   0.00000  Uiso   1.00
H120   H     0.49258   0.98687   0.97882   0.00000  Uiso   1.00
H121   H     0.43837   0.80993   0.67039   0.00000  Uiso   1.00
H122   H     0.60051   0.53143   0.00999   0.00000  Uiso   1.00
H123   H     0.74219   0.88077   0.76007   0.00000  Uiso   1.00
H124   H     0.74055   0.98383   0.80016   0.00000  Uiso   1.00
H125   H     0.71483   0.89992   0.65389   0.00000  Uiso   1.00
H126   H     0.79173   0.76785   0.81494   0.00000  Uiso   1.00
H127   H     0.70633   0.08346   0.86226   0.00000  Uiso   1.00
H128   H     0.65211   0.90651   0.55382   0.00000  Uiso   1.00
H129   H     0.81425   0.62802   0.89343   0.00000  Uiso   1.00
O130   O     0.59386   0.10093   0.94935   0.00000  Uiso   1.00
O131   O     0.52274   0.86878   0.54471   0.00000  Uiso   1.00
O132   O     0.73546   0.50340   0.99026   0.00000  Uiso   1.00
N133   N     0.54312   0.99545   0.94590   0.00000  Uiso   1.00
N134   N     0.49243   0.83003   0.65753   0.00000  Uiso   1.00
N135   N     0.64401   0.56965   0.97502   0.00000  Uiso   1.00
N136   N     0.65813   0.04742   0.88317   0.00000  Uiso   1.00
N137   N     0.60744   0.88200   0.59481   0.00000  Uiso   1.00
N138   N     0.75903   0.62163   0.91230   0.00000  Uiso   1.00
C139   C     0.83165   0.17028   0.36997   0.00000  Uiso   1.00
C140   C     0.75251   0.18028   0.39431   0.00000  Uiso   1.00
C141   C     0.69673   0.13275   0.45125   0.00000  Uiso   1.00
C142   C     0.62808   0.15166   0.46491   0.00000  Uiso   1.00
C143   C     0.50708   0.15744   0.50908   0.00000  Uiso   1.00
C144   C     0.88129   0.23742   0.36165   0.00000  Uiso   1.00
C145   C     0.93380   0.23794   0.39111   0.00000  Uiso   1.00
C146   C     0.97356   0.30496   0.37726   0.00000  Uiso   1.00
C147   C     0.05253   0.39945   0.37067   0.00000  Uiso   1.00
C148   C     0.84559   0.17407   0.30121   0.00000  Uiso   1.00
C149   C     0.86811   0.12134   0.27985   0.00000  Uiso   1.00
C150   C     0.87784   0.13502   0.21511   0.00000  Uiso   1.00
C151   C     0.90138   0.13116   0.11468   0.00000  Uiso   1.00
C152   C     0.80893   0.28837   0.29298   0.00000  Uiso   1.00
C153   C     0.74017   0.24442   0.35250   0.00000  Uiso   1.00
C154   C     0.67159   0.26341   0.36607   0.00000  Uiso   1.00
C155   C     0.61572   0.21592   0.42302   0.00000  Uiso   1.00
C156   C     0.86895   0.30157   0.31983   0.00000  Uiso   1.00
C157   C     0.90865   0.36860   0.30593   0.00000  Uiso   1.00
C158   C     0.96120   0.36922   0.33537   0.00000  Uiso   1.00
C159   C     0.83325   0.23822   0.25939   0.00000  Uiso   1.00
C160   C     0.84296   0.25199   0.19467   0.00000  Uiso   1.00
C161   C     0.86547   0.19928   0.17321   0.00000  Uiso   1.00
H162   H     0.84127   0.12035   0.40253   0.00000  Uiso   1.00
H163   H     0.70631   0.08312   0.48360   0.00000  Uiso   1.00
H164   H     0.94334   0.18829   0.42346   0.00000  Uiso   1.00
H165   H     0.87765   0.07171   0.31222   0.00000  Uiso   1.00
H166   H     0.55124   0.07015   0.55506   0.00000  Uiso   1.00
H167   H     0.05106   0.29191   0.42823   0.00000  Uiso   1.00
H168   H     0.91255   0.04606   0.19365   0.00000  Uiso   1.00
H169   H     0.79932   0.33832   0.26043   0.00000  Uiso   1.00
H170   H     0.66205   0.31305   0.33370   0.00000  Uiso   1.00
H171   H     0.89909   0.41822   0.27356   0.00000  Uiso   1.00
H172   H     0.83340   0.30164   0.16232   0.00000  Uiso   1.00
H173   H     0.51532   0.25677   0.43339   0.00000  Uiso   1.00
H174   H     0.01514   0.47853   0.30657   0.00000  Uiso   1.00
H175   H     0.87663   0.23268   0.07199   0.00000  Uiso   1.00
O176   O     0.44375   0.14292   0.54500   0.00000  Uiso   1.00
O177   O     0.09950   0.43386   0.37860   0.00000  Uiso   1.00
O178   O     0.91777   0.11131   0.07085   0.00000  Uiso   1.00
N179   N     0.56162   0.11753   0.51636   0.00000  Uiso   1.00
N180   N     0.02891   0.32486   0.39779   0.00000  Uiso   1.00
N181   N     0.89944   0.09503   0.17848   0.00000  Uiso   1.00
N182   N     0.54229   0.21795   0.45089   0.00000  Uiso   1.00
N183   N     0.00958   0.42528   0.33233   0.00000  Uiso   1.00
N184   N     0.88011   0.19544   0.11301   0.00000  Uiso   1.00
C185   C     0.55804   0.25879   0.89309   0.00000  Uiso   1.00
C186   C     0.56303   0.32543   0.83296   0.00000  Uiso   1.00
C187   C     0.58156   0.32994   0.76956   0.00000  Uiso   1.00
C188   C     0.58305   0.39569   0.72135   0.00000  Uiso   1.00
C189   C     0.59326   0.49016   0.62576   0.00000  Uiso   1.00
C190   C     0.48017   0.24319   0.94198   0.00000  Uiso   1.00
C191   C     0.42904   0.17855   0.97023   0.00000  Uiso   1.00
C192   C     0.36079   0.17508   0.01380   0.00000  Uiso   1.00
C193   C     0.24238   0.14186   0.08749   0.00000  Uiso   1.00
C194   C     0.61016   0.28228   0.92293   0.00000  Uiso   1.00
C195   C     0.66832   0.25050   0.93518   0.00000  Uiso   1.00
C196   C     0.70949   0.27993   0.96273   0.00000  Uiso   1.00
C197   C     0.79291   0.30741   0.00683   0.00000  Uiso   1.00
C198   C     0.52774   0.36755   0.92024   0.00000  Uiso   1.00
C199   C     0.54656   0.38450   0.84771   0.00000  Uiso   1.00
C200   C     0.54803   0.45027   0.79959   0.00000  Uiso   1.00
C201   C     0.56657   0.45487   0.73612   0.00000  Uiso   1.00
C202   C     0.46371   0.30226   0.95672   0.00000  Uiso   1.00
C203   C     0.39551   0.29888   0.00027   0.00000  Uiso   1.00
C204   C     0.34430   0.23426   0.02858   0.00000  Uiso   1.00
C205   C     0.59370   0.34136   0.93767   0.00000  Uiso   1.00
C206   C     0.63479   0.37083   0.96521   0.00000  Uiso   1.00
C207   C     0.69300   0.33911   0.97750   0.00000  Uiso   1.00
H208   H     0.57085   0.21280   0.88161   0.00000  Uiso   1.00
H209   H     0.59429   0.28421   0.75816   0.00000  Uiso   1.00
H210   H     0.44180   0.13284   0.95882   0.00000  Uiso   1.00
H211   H     0.68104   0.20479   0.92376   0.00000  Uiso   1.00
H212   H     0.61299   0.38942   0.62781   0.00000  Uiso   1.00
H213   H     0.29147   0.07026   0.05091   0.00000  Uiso   1.00
H214   H     0.79594   0.22196   0.97700   0.00000  Uiso   1.00
H215   H     0.51492   0.41354   0.93172   0.00000  Uiso   1.00
H216   H     0.53529   0.49597   0.81102   0.00000  Uiso   1.00
H217   H     0.38280   0.34460   0.01167   0.00000  Uiso   1.00
H218   H     0.62203   0.41655   0.97662   0.00000  Uiso   1.00
H219   H     0.56510   0.56129   0.67071   0.00000  Uiso   1.00
H220   H     0.24357   0.24213   0.09381   0.00000  Uiso   1.00
H221   H     0.74805   0.39383   0.01990   0.00000  Uiso   1.00
O222   O     0.60343   0.52595   0.56896   0.00000  Uiso   1.00
O223   O     0.18161   0.10721   0.12406   0.00000  Uiso   1.00
O224   O     0.84347   0.30625   0.02708   0.00000  Uiso   1.00
N225   N     0.59894   0.41856   0.65447   0.00000  Uiso   1.00
N226   N     0.29833   0.12017   0.05003   0.00000  Uiso   1.00
N227   N     0.76996   0.26199   0.98095   0.00000  Uiso   1.00
N228   N     0.57317   0.51105   0.67755   0.00000  Uiso   1.00
N229   N     0.27256   0.21265   0.07312   0.00000  Uiso   1.00
N230   N     0.74419   0.35447   0.00403   0.00000  Uiso   1.00
C231   C     0.21970   0.48668   0.60846   0.00000  Uiso   1.00
C232   C     0.23171   0.53783   0.64017   0.00000  Uiso   1.00
C233   C     0.29880   0.58028   0.62692   0.00000  Uiso   1.00
C234   C     0.29822   0.62346   0.66110   0.00000  Uiso   1.00
C235   C     0.32680   0.70282   0.70337   0.00000  Uiso   1.00
C236   C     0.16088   0.51042   0.57842   0.00000  Uiso   1.00
C237   C     0.16843   0.52980   0.51325   0.00000  Uiso   1.00
C238   C     0.10823   0.54990   0.49545   0.00000  Uiso   1.00
C239   C     0.02684   0.58664   0.44185   0.00000  Uiso   1.00
C240   C     0.18404   0.41262   0.66451   0.00000  Uiso   1.00
C241   C     0.21104   0.34977   0.67172   0.00000  Uiso   1.00
C242   C     0.17033   0.28752   0.72639   0.00000  Uiso   1.00
C243   C     0.12489   0.17242   0.80645   0.00000  Uiso   1.00
C244   C     0.09937   0.48789   0.69272   0.00000  Uiso   1.00
C245   C     0.16635   0.53849   0.68594   0.00000  Uiso   1.00
C246   C     0.16567   0.58162   0.72015   0.00000  Uiso   1.00
C247   C     0.23275   0.62412   0.70695   0.00000  Uiso   1.00
C248   C     0.09553   0.51108   0.62418   0.00000  Uiso   1.00
C249   C     0.03530   0.53115   0.60648   0.00000  Uiso   1.00
C250   C     0.04275   0.55056   0.54130   0.00000  Uiso   1.00
C251   C     0.11868   0.41328   0.71028   0.00000  Uiso   1.00
C252   C     0.07791   0.35111   0.76494   0.00000  Uiso   1.00
C253   C     0.10485   0.28818   0.77223   0.00000  Uiso   1.00
H254   H     0.27058   0.48617   0.57282   0.00000  Uiso   1.00
H255   H     0.34936   0.57976   0.59150   0.00000  Uiso   1.00
H256   H     0.21901   0.52928   0.47785   0.00000  Uiso   1.00
H257   H     0.26162   0.34928   0.63629   0.00000  Uiso   1.00
H258   H     0.40788   0.68383   0.63237   0.00000  Uiso   1.00
H259   H     0.13302   0.57738   0.39274   0.00000  Uiso   1.00
H260   H     0.22287   0.19780   0.72684   0.00000  Uiso   1.00
H261   H     0.04848   0.48841   0.72835   0.00000  Uiso   1.00
H262   H     0.11508   0.58212   0.75556   0.00000  Uiso   1.00
H263   H     0.98473   0.53164   0.64191   0.00000  Uiso   1.00
H264   H     0.02734   0.35164   0.80035   0.00000  Uiso   1.00
H265   H     0.21773   0.68575   0.76553   0.00000  Uiso   1.00
H266   H     0.94286   0.57929   0.52589   0.00000  Uiso   1.00
H267   H     0.03272   0.19972   0.86000   0.00000  Uiso   1.00
O268   O     0.36062   0.74641   0.71403   0.00000  Uiso   1.00
O269   O     0.00000   0.60674   0.39964   0.00000  Uiso   1.00
O270   O     0.11789   0.10875   0.83797   0.00000  Uiso   1.00
N271   N     0.35399   0.67141   0.65998   0.00000  Uiso   1.00
N272   N     0.09701   0.57189   0.43594   0.00000  Uiso   1.00
N273   N     0.18101   0.21702   0.74829   0.00000  Uiso   1.00
N274   N     0.25167   0.67244   0.73164   0.00000  Uiso   1.00
N275   N     0.99470   0.57292   0.50759   0.00000  Uiso   1.00
N276   N     0.07869   0.21805   0.81994   0.00000  Uiso   1.00
C277   C     0.92679   0.90819   0.59229   0.00000  Uiso   1.00
C278   C     0.86285   0.84468   0.61695   0.00000  Uiso   1.00
C279   C     0.81168   0.84022   0.58698   0.00000  Uiso   1.00
C280   C     0.75738   0.77757   0.61723   0.00000  Uiso   1.00
C281   C     0.65857   0.68749   0.64666   0.00000  Uiso   1.00
C282   C     0.99666   0.87704   0.58506   0.00000  Uiso   1.00
C283   C     0.05799   0.89979   0.52828   0.00000  Uiso   1.00
C284   C     0.11633   0.86439   0.53170   0.00000  Uiso   1.00
C285   C     0.22529   0.82458   0.51163   0.00000  Uiso   1.00
C286   C     0.91713   0.93204   0.64821   0.00000  Uiso   1.00
C287   C     0.91162   0.00104   0.64452   0.00000  Uiso   1.00
C288   C     0.90302   0.01195   0.70110   0.00000  Uiso   1.00
C289   C     0.88850   0.05754   0.77908   0.00000  Uiso   1.00
C290   C     0.92136   0.80489   0.69933   0.00000  Uiso   1.00
C291   C     0.85991   0.78857   0.67509   0.00000  Uiso   1.00
C292   C     0.80567   0.72592   0.70540   0.00000  Uiso   1.00
C293   C     0.75442   0.72137   0.67548   0.00000  Uiso   1.00
C294   C     0.99371   0.82093   0.64319   0.00000  Uiso   1.00
C295   C     0.05198   0.78550   0.64670   0.00000  Uiso   1.00
C296   C     0.11338   0.80818   0.58994   0.00000  Uiso   1.00
C297   C     0.91418   0.87593   0.70635   0.00000  Uiso   1.00
C298   C     0.90560   0.88674   0.76294   0.00000  Uiso   1.00
C299   C     0.90007   0.95574   0.75934   0.00000  Uiso   1.00
H300   H     0.92909   0.95187   0.54703   0.00000  Uiso   1.00
H301   H     0.81398   0.88365   0.54198   0.00000  Uiso   1.00
H302   H     0.06026   0.94322   0.48330   0.00000  Uiso   1.00
H303   H     0.91390   0.04445   0.59952   0.00000  Uiso   1.00
H304   H     0.68508   0.78325   0.56201   0.00000  Uiso   1.00
H305   H     0.20437   0.90887   0.43828   0.00000  Uiso   1.00
H306   H     0.89576   0.12234   0.68336   0.00000  Uiso   1.00
H307   H     0.91906   0.76120   0.74459   0.00000  Uiso   1.00
H308   H     0.80340   0.68251   0.75039   0.00000  Uiso   1.00
H309   H     0.04968   0.74208   0.69170   0.00000  Uiso   1.00
H310   H     0.90332   0.84331   0.80792   0.00000  Uiso   1.00
H311   H     0.67649   0.62000   0.73116   0.00000  Uiso   1.00
H312   H     0.19579   0.74563   0.60743   0.00000  Uiso   1.00
H313   H     0.88717   0.95909   0.85251   0.00000  Uiso   1.00
O314   O     0.60489   0.65330   0.64683   0.00000  Uiso   1.00
O315   O     0.28620   0.81812   0.48450   0.00000  Uiso   1.00
O316   O     0.88130   0.09818   0.80603   0.00000  Uiso   1.00
N317   N     0.69892   0.75564   0.60103   0.00000  Uiso   1.00
N318   N     0.18443   0.87308   0.48535   0.00000  Uiso   1.00
N319   N     0.89592   0.07266   0.71447   0.00000  Uiso   1.00
N320   N     0.69430   0.66779   0.69205   0.00000  Uiso   1.00
N321   N     0.17981   0.78524   0.57637   0.00000  Uiso   1.00
N322   N     0.89130   0.98481   0.80549   0.00000  Uiso   1.00
C323   C     0.62791   0.78022   0.14918   0.00000  Uiso   1.00
C324   C     0.67581   0.72592   0.14037   0.00000  Uiso   1.00
C325   C     0.69731   0.67766   0.18841   0.00000  Uiso   1.00
C326   C     0.74114   0.63242   0.17060   0.00000  Uiso   1.00
C327   C     0.81221   0.54763   0.16660   0.00000  Uiso   1.00
C328   C     0.56228   0.76439   0.12946   0.00000  Uiso   1.00
C329   C     0.48832   0.74850   0.16832   0.00000  Uiso   1.00
C330   C     0.43658   0.73566   0.14131   0.00000  Uiso   1.00
C331   C     0.33138   0.71065   0.12035   0.00000  Uiso   1.00
C332   C     0.67279   0.85409   0.09751   0.00000  Uiso   1.00
C333   C     0.69174   0.91363   0.10950   0.00000  Uiso   1.00
C334   C     0.73303   0.97632   0.05560   0.00000  Uiso   1.00
C335   C     0.79942   0.09058   0.98503   0.00000  Uiso   1.00
C336   C     0.66752   0.78569   0.03213   0.00000  Uiso   1.00
C337   C     0.69732   0.72889   0.07680   0.00000  Uiso   1.00
C338   C     0.74113   0.68371   0.05891   0.00000  Uiso   1.00
C339   C     0.76270   0.63540   0.10691   0.00000  Uiso   1.00
C340   C     0.58379   0.76736   0.06588   0.00000  Uiso   1.00
C341   C     0.53214   0.75455   0.03882   0.00000  Uiso   1.00
C342   C     0.45813   0.73863   0.07762   0.00000  Uiso   1.00
C343   C     0.69430   0.85707   0.03393   0.00000  Uiso   1.00
C344   C     0.73556   0.91968   0.98000   0.00000  Uiso   1.00
C345   C     0.75458   0.97929   0.99191   0.00000  Uiso   1.00
H346   H     0.61116   0.77791   0.19868   0.00000  Uiso   1.00
H347   H     0.68065   0.67538   0.23761   0.00000  Uiso   1.00
H348   H     0.47169   0.74621   0.21751   0.00000  Uiso   1.00
H349   H     0.67508   0.91131   0.15871   0.00000  Uiso   1.00
H350   H     0.76715   0.56299   0.25274   0.00000  Uiso   1.00
H351   H     0.32655   0.71237   0.21035   0.00000  Uiso   1.00
H352   H     0.75544   0.06053   0.08635   0.00000  Uiso   1.00
H353   H     0.68427   0.78800   0.98264   0.00000  Uiso   1.00
H354   H     0.75777   0.68602   0.00971   0.00000  Uiso   1.00
H355   H     0.54881   0.75685   0.98961   0.00000  Uiso   1.00
H356   H     0.75220   0.92195   0.93081   0.00000  Uiso   1.00
H357   H     0.82974   0.57163   0.06776   0.00000  Uiso   1.00
H358   H     0.38914   0.72101   0.02538   0.00000  Uiso   1.00
H359   H     0.81803   0.06916   0.90138   0.00000  Uiso   1.00
O360   O     0.84546   0.50003   0.18196   0.00000  Uiso   1.00
O361   O     0.26741   0.69602   0.12636   0.00000  Uiso   1.00
O362   O     0.83011   0.15279   0.96367   0.00000  Uiso   1.00
N363   N     0.77181   0.57903   0.20548   0.00000  Uiso   1.00
N364   N     0.35987   0.71868   0.16586   0.00000  Uiso   1.00
N365   N     0.76083   0.04418   0.04993   0.00000  Uiso   1.00
N366   N     0.80549   0.58368   0.10595   0.00000  Uiso   1.00
N367   N     0.39355   0.72333   0.06633   0.00000  Uiso   1.00
N368   N     0.79451   0.04883   0.95040   0.00000  Uiso   1.00
C369   C     0.24227   0.92178   0.01350   0.00000  Uiso   1.00
C370   C     0.21499   0.87212   0.98583   0.00000  Uiso   1.00
C371   C     0.25836   0.85551   0.93620   0.00000  Uiso   1.00
C372   C     0.22297   0.80897   0.91787   0.00000  Uiso   1.00
C373   C     0.19218   0.73622   0.87034   0.00000  Uiso   1.00
C374   C     0.21998   0.87697   0.08690   0.00000  Uiso   1.00
C375   C     0.26755   0.86445   0.12223   0.00000  Uiso   1.00
C376   C     0.23635   0.82200   0.18897   0.00000  Uiso   1.00
C377   C     0.21330   0.75682   0.29835   0.00000  Uiso   1.00
C378   C     0.19591   0.97986   0.00593   0.00000  Uiso   1.00
C379   C     0.22324   0.05385   0.97321   0.00000  Uiso   1.00
C380   C     0.17177   0.09804   0.97180   0.00000  Uiso   1.00
C381   C     0.11136   0.19261   0.95547   0.00000  Uiso   1.00
C382   C     0.10228   0.86868   0.06919   0.00000  Uiso   1.00
C383   C     0.13895   0.84327   0.01609   0.00000  Uiso   1.00
C384   C     0.10348   0.79675   0.99782   0.00000  Uiso   1.00
C385   C     0.14679   0.78008   0.94817   0.00000  Uiso   1.00
C386   C     0.14394   0.84812   0.11715   0.00000  Uiso   1.00
C387   C     0.11266   0.80569   0.18385   0.00000  Uiso   1.00
C388   C     0.16017   0.79310   0.21928   0.00000  Uiso   1.00
C389   C     0.11987   0.95102   0.03618   0.00000  Uiso   1.00
C390   C     0.06835   0.99509   0.03483   0.00000  Uiso   1.00
C391   C     0.09560   0.06914   0.00211   0.00000  Uiso   1.00
H392   H     0.30147   0.94424   0.98995   0.00000  Uiso   1.00
H393   H     0.31721   0.87784   0.91281   0.00000  Uiso   1.00
H394   H     0.32638   0.88678   0.09881   0.00000  Uiso   1.00
H395   H     0.28208   0.07615   0.94981   0.00000  Uiso   1.00
H396   H     0.30113   0.79148   0.84064   0.00000  Uiso   1.00
H397   H     0.32048   0.81036   0.23284   0.00000  Uiso   1.00
H398   H     0.22706   0.20969   0.91864   0.00000  Uiso   1.00
H399   H     0.04308   0.84622   0.09275   0.00000  Uiso   1.00
H400   H     0.04464   0.77444   0.02124   0.00000  Uiso   1.00
H401   H     0.05382   0.78338   0.20724   0.00000  Uiso   1.00
H402   H     0.00952   0.97275   0.05824   0.00000  Uiso   1.00
H403   H     0.07990   0.70756   0.92865   0.00000  Uiso   1.00
H404   H     0.09925   0.72643   0.32085   0.00000  Uiso   1.00
H405   H     0.00584   0.12577   0.00665   0.00000  Uiso   1.00
O406   O     0.19620   0.70405   0.83577   0.00000  Uiso   1.00
O407   O     0.22160   0.72883   0.35031   0.00000  Uiso   1.00
O408   O     0.09904   0.25274   0.93810   0.00000  Uiso   1.00
N409   N     0.24884   0.78159   0.87116   0.00000  Uiso   1.00
N410   N     0.26694   0.79923   0.23784   0.00000  Uiso   1.00
N411   N     0.17960   0.17257   0.94411   0.00000  Uiso   1.00
N412   N     0.12980   0.73643   0.91851   0.00000  Uiso   1.00
N413   N     0.14790   0.75407   0.28519   0.00000  Uiso   1.00
N414   N     0.06056   0.12742   0.99146   0.00000  Uiso   1.00
C415   C     0.83986   0.35498   0.58996   0.00000  Uiso   1.00
C416   C     0.91647   0.34076   0.58888   0.00000  Uiso   1.00
C417   C     0.98123   0.37105   0.53491   0.00000  Uiso   1.00
C418   C     0.04565   0.35115   0.54394   0.00000  Uiso   1.00
C419   C     0.16466   0.33642   0.53299   0.00000  Uiso   1.00
C420   C     0.79059   0.28124   0.61403   0.00000  Uiso   1.00
C421   C     0.74951   0.26149   0.58121   0.00000  Uiso   1.00
C422   C     0.70796   0.19149   0.61142   0.00000  Uiso   1.00
C423   C     0.63150   0.08436   0.63954   0.00000  Uiso   1.00
C424   C     0.81201   0.38181   0.64374   0.00000  Uiso   1.00
C425   C     0.78891   0.44660   0.63590   0.00000  Uiso   1.00
C426   C     0.76538   0.46126   0.69113   0.00000  Uiso   1.00
C427   C     0.72218   0.51028   0.76538   0.00000  Uiso   1.00
C428   C     0.83911   0.26579   0.70197   0.00000  Uiso   1.00
C429   C     0.91606   0.29232   0.64972   0.00000  Uiso   1.00
C430   C     0.98040   0.27237   0.65883   0.00000  Uiso   1.00
C431   C     0.04525   0.30262   0.60489   0.00000  Uiso   1.00
C432   C     0.79018   0.23280   0.67487   0.00000  Uiso   1.00
C433   C     0.74868   0.16281   0.70513   0.00000  Uiso   1.00
C434   C     0.70756   0.14296   0.67237   0.00000  Uiso   1.00
C435   C     0.81160   0.33337   0.70458   0.00000  Uiso   1.00
C436   C     0.78809   0.34793   0.75983   0.00000  Uiso   1.00
C437   C     0.76497   0.41273   0.75208   0.00000  Uiso   1.00
H438   H     0.84017   0.39269   0.54260   0.00000  Uiso   1.00
H439   H     0.98152   0.40853   0.48784   0.00000  Uiso   1.00
H440   H     0.74983   0.29899   0.53414   0.00000  Uiso   1.00
H441   H     0.78924   0.48408   0.58882   0.00000  Uiso   1.00
H442   H     0.13805   0.40471   0.45394   0.00000  Uiso   1.00
H443   H     0.64950   0.17374   0.55158   0.00000  Uiso   1.00
H444   H     0.73259   0.56403   0.66689   0.00000  Uiso   1.00
H445   H     0.83879   0.22807   0.74934   0.00000  Uiso   1.00
H446   H     0.98007   0.23488   0.70592   0.00000  Uiso   1.00
H447   H     0.74838   0.12534   0.75221   0.00000  Uiso   1.00
H448   H     0.78778   0.31043   0.80690   0.00000  Uiso   1.00
H449   H     0.13687   0.26377   0.63094   0.00000  Uiso   1.00
H450   H     0.64831   0.03280   0.72858   0.00000  Uiso   1.00
H451   H     0.73141   0.42309   0.84389   0.00000  Uiso   1.00
O452   O     0.23041   0.34167   0.51014   0.00000  Uiso   1.00
O453   O     0.58945   0.03866   0.63824   0.00000  Uiso   1.00
O454   O     0.69847   0.55071   0.78952   0.00000  Uiso   1.00
N455   N     0.11838   0.37062   0.50156   0.00000  Uiso   1.00
N456   N     0.66163   0.15467   0.59284   0.00000  Uiso   1.00
N457   N     0.73929   0.51955   0.70065   0.00000  Uiso   1.00
N458   N     0.11775   0.29478   0.59681   0.00000  Uiso   1.00
N459   N     0.66099   0.07883   0.68808   0.00000  Uiso   1.00
N460   N     0.73866   0.44371   0.79589   0.00000  Uiso   1.00
C461   C     0.04476   0.45541   0.07375   0.00000  Uiso   1.00
C462   C     0.05622   0.37883   0.10575   0.00000  Uiso   1.00
C463   C     0.02482   0.33333   0.17174   0.00000  Uiso   1.00
C464   C     0.04217   0.26532   0.19135   0.00000  Uiso   1.00
C465   C     0.05283   0.14972   0.24786   0.00000  Uiso   1.00
C466   C     0.12172   0.50376   0.03926   0.00000  Uiso   1.00
C467   C     0.14538   0.56332   0.04934   0.00000  Uiso   1.00
C468   C     0.21786   0.60049   0.01298   0.00000  Uiso   1.00
C469   C     0.33019   0.67889   0.96623   0.00000  Uiso   1.00
C470   C     0.01573   0.45631   0.01970   0.00000  Uiso   1.00
C471   C     0.95029   0.47598   0.01332   0.00000  Uiso   1.00
C472   C     0.93355   0.47321   0.96047   0.00000  Uiso   1.00
C473   C     0.88132   0.47792   0.88334   0.00000  Uiso   1.00
C474   C     0.13140   0.41553   0.99123   0.00000  Uiso   1.00
C475   C     0.10328   0.35717   0.06093   0.00000  Uiso   1.00
C476   C     0.12068   0.28921   0.08044   0.00000  Uiso   1.00
C477   C     0.08931   0.24362   0.14645   0.00000  Uiso   1.00
C478   C     0.16877   0.48210   0.99444   0.00000  Uiso   1.00
C479   C     0.24124   0.51920   0.95805   0.00000  Uiso   1.00
C480   C     0.26501   0.57879   0.96808   0.00000  Uiso   1.00
C481   C     0.06279   0.43464   0.97488   0.00000  Uiso   1.00
C482   C     0.04615   0.43185   0.92202   0.00000  Uiso   1.00
C483   C     0.98070   0.45151   0.91557   0.00000  Uiso   1.00
H484   H     0.00813   0.47228   0.10864   0.00000  Uiso   1.00
H485   H     0.98841   0.35012   0.20641   0.00000  Uiso   1.00
H486   H     0.10895   0.58008   0.08403   0.00000  Uiso   1.00
H487   H     0.91389   0.49274   0.04801   0.00000  Uiso   1.00
H488   H     0.98733   0.20514   0.29504   0.00000  Uiso   1.00
H489   H     0.24148   0.69003   0.03697   0.00000  Uiso   1.00
H490   H     0.83016   0.50587   0.96102   0.00000  Uiso   1.00
H491   H     0.16804   0.39866   0.95634   0.00000  Uiso   1.00
H492   H     0.15710   0.27246   0.04575   0.00000  Uiso   1.00
H493   H     0.27764   0.50242   0.92337   0.00000  Uiso   1.00
H494   H     0.08258   0.41508   0.88735   0.00000  Uiso   1.00
H495   H     0.12424   0.14211   0.16464   0.00000  Uiso   1.00
H496   H     0.37839   0.62701   0.90657   0.00000  Uiso   1.00
H497   H     0.96707   0.44284   0.83063   0.00000  Uiso   1.00
O498   O     0.04572   0.09194   0.29141   0.00000  Uiso   1.00
O499   O     0.37915   0.72811   0.95283   0.00000  Uiso   1.00
O500   O     0.83951   0.48649   0.85319   0.00000  Uiso   1.00
N501   N     0.02104   0.20762   0.25208   0.00000  Uiso   1.00
N502   N     0.25866   0.66096   0.01081   0.00000  Uiso   1.00
N503   N     0.87412   0.48880   0.93979   0.00000  Uiso   1.00
N504   N     0.09471   0.17370   0.18191   0.00000  Uiso   1.00
N505   N     0.33233   0.62704   0.94064   0.00000  Uiso   1.00
N506   N     0.94779   0.45489   0.86963   0.00000  Uiso   1.00
C507   C     0.45823   0.11750   0.29339   0.00000  Uiso   1.00
C508   C     0.46603   0.10242   0.23293   0.00000  Uiso   1.00
C509   C     0.41257   0.06026   0.22539   0.00000  Uiso   1.00
C510   C     0.43040   0.05308   0.16638   0.00000  Uiso   1.00
C511   C     0.43206   0.02450   0.08007   0.00000  Uiso   1.00
C512   C     0.52255   0.09322   0.31500   0.00000  Uiso   1.00
C513   C     0.51659   0.04332   0.37646   0.00000  Uiso   1.00
C514   C     0.58199   0.02841   0.38653   0.00000  Uiso   1.00
C515   C     0.67139   0.98557   0.42764   0.00000  Uiso   1.00
C516   C     0.47297   0.19950   0.26962   0.00000  Uiso   1.00
C517   C     0.42533   0.23897   0.29294   0.00000  Uiso   1.00
C518   C     0.44900   0.31354   0.26482   0.00000  Uiso   1.00
C519   C     0.46142   0.43573   0.23547   0.00000  Uiso   1.00
C520   C     0.58498   0.17974   0.20201   0.00000  Uiso   1.00
C521   C     0.53488   0.13623   0.18330   0.00000  Uiso   1.00
C522   C     0.55280   0.12912   0.12428   0.00000  Uiso   1.00
C523   C     0.49936   0.08695   0.11665   0.00000  Uiso   1.00
C524   C     0.59139   0.12702   0.26536   0.00000  Uiso   1.00
C525   C     0.65682   0.11219   0.27535   0.00000  Uiso   1.00
C526   C     0.65096   0.06227   0.33681   0.00000  Uiso   1.00
C527   C     0.54181   0.23331   0.21998   0.00000  Uiso   1.00
C528   C     0.56556   0.30784   0.19182   0.00000  Uiso   1.00
C529   C     0.51797   0.34741   0.21509   0.00000  Uiso   1.00
H530   H     0.40463   0.09117   0.33204   0.00000  Uiso   1.00
H531   H     0.35930   0.03409   0.26382   0.00000  Uiso   1.00
H532   H     0.46331   0.01717   0.41487   0.00000  Uiso   1.00
H533   H     0.37206   0.21279   0.33135   0.00000  Uiso   1.00
H534   H     0.33941   0.98570   0.16630   0.00000  Uiso   1.00
H535   H     0.55871   0.95003   0.48480   0.00000  Uiso   1.00
H536   H     0.36630   0.36253   0.30870   0.00000  Uiso   1.00
H537   H     0.63858   0.20607   0.16336   0.00000  Uiso   1.00
H538   H     0.60608   0.15529   0.08588   0.00000  Uiso   1.00
H539   H     0.71008   0.13836   0.23693   0.00000  Uiso   1.00
H540   H     0.61884   0.33398   0.15341   0.00000  Uiso   1.00
H541   H     0.53970   0.08406   0.02188   0.00000  Uiso   1.00
H542   H     0.75901   0.04840   0.34038   0.00000  Uiso   1.00
H543   H     0.56660   0.46090   0.16427   0.00000  Uiso   1.00
O544   O     0.41397   0.99939   0.04618   0.00000  Uiso   1.00
O545   O     0.70168   0.95260   0.46403   0.00000  Uiso   1.00
O546   O     0.44925   0.49379   0.23299   0.00000  Uiso   1.00
N547   N     0.39100   0.01583   0.14294   0.00000  Uiso   1.00
N548   N     0.59604   0.98247   0.44071   0.00000  Uiso   1.00
N549   N     0.41616   0.36812   0.27609   0.00000  Uiso   1.00
N550   N     0.49878   0.06876   0.06523   0.00000  Uiso   1.00
N551   N     0.70382   0.03540   0.36300   0.00000  Uiso   1.00
N552   N     0.52394   0.42106   0.19837   0.00000  Uiso   1.00
