data_job_05578
_audit_creation_date              2018-12-19
_audit_creation_method            'Materials Studio'
_symmetry_space_group_name_H-M    'P1'
_symmetry_Int_Tables_number       1
_symmetry_cell_setting            triclinic
loop_
_symmetry_equiv_pos_as_xyz
  x,y,z
_cell_length_a                    12.0939
_cell_length_b                    42.3045
_cell_length_c                    14.3782
_cell_angle_alpha                 90.0000
_cell_angle_beta                  90.0000
_cell_angle_gamma                 90.0000
loop_
_atom_site_label
_atom_site_type_symbol
_atom_site_fract_x
_atom_site_fract_y
_atom_site_fract_z
_atom_site_U_iso_or_equiv
_atom_site_adp_type
_atom_site_occupancy
C1     C     0.33056   0.41727   0.18689   0.00000  Uiso   1.00
C2     C     0.33380   0.38144   0.19812   0.00000  Uiso   1.00
C3     C     0.36669   0.35996   0.13061   0.00000  Uiso   1.00
C4     C     0.36373   0.32817   0.15448   0.00000  Uiso   1.00
C5     C     0.37396   0.27404   0.15848   0.00000  Uiso   1.00
C6     C     0.21223   0.42721   0.20894   0.00000  Uiso   1.00
C7     C     0.14292   0.44423   0.15053   0.00000  Uiso   1.00
C8     C     0.03764   0.45097   0.18352   0.00000  Uiso   1.00
C9     C     0.85917   0.46793   0.20434   0.00000  Uiso   1.00
C10    C     0.40197   0.43064   0.26494   0.00000  Uiso   1.00
C11    C     0.49219   0.45055   0.25362   0.00000  Uiso   1.00
C12    C     0.54664   0.46019   0.33376   0.00000  Uiso   1.00
C13    C     0.66278   0.48247   0.44153   0.00000  Uiso   1.00
C14    C     0.26683   0.39900   0.34935   0.00000  Uiso   1.00
C15    C     0.29917   0.37151   0.28636   0.00000  Uiso   1.00
C16    C     0.29617   0.33975   0.31035   0.00000  Uiso   1.00
C17    C     0.32905   0.31823   0.24288   0.00000  Uiso   1.00
C18    C     0.17761   0.41729   0.29718   0.00000  Uiso   1.00
C19    C     0.07241   0.42401   0.33027   0.00000  Uiso   1.00
C20    C     0.00296   0.44103   0.27192   0.00000  Uiso   1.00
C21    C     0.36736   0.42072   0.35318   0.00000  Uiso   1.00
C22    C     0.42167   0.43033   0.43336   0.00000  Uiso   1.00
C23    C     0.51196   0.45025   0.42216   0.00000  Uiso   1.00
H24    H     0.35751   0.42499   0.11819   0.00000  Uiso   1.00
H25    H     0.39346   0.36765   0.06232   0.00000  Uiso   1.00
H26    H     0.16974   0.45190   0.08225   0.00000  Uiso   1.00
H27    H     0.51895   0.45822   0.18532   0.00000  Uiso   1.00
H28    H     0.41802   0.29970   0.03928   0.00000  Uiso   1.00
H29    H     0.94630   0.47736   0.08131   0.00000  Uiso   1.00
H30    H     0.68268   0.49068   0.29866   0.00000  Uiso   1.00
H31    H     0.23987   0.39128   0.41805   0.00000  Uiso   1.00
H32    H     0.26938   0.33208   0.37864   0.00000  Uiso   1.00
H33    H     0.04565   0.41633   0.39856   0.00000  Uiso   1.00
H34    H     0.39486   0.42265   0.50163   0.00000  Uiso   1.00
H35    H     0.31730   0.27083   0.29601   0.00000  Uiso   1.00
H36    H     0.84558   0.44849   0.33804   0.00000  Uiso   1.00
H37    H     0.58196   0.46181   0.55539   0.00000  Uiso   1.00
O38    O     0.38915   0.24693   0.13630   0.00000  Uiso   1.00
O39    O     0.77029   0.48002   0.19144   0.00000  Uiso   1.00
O40    O     0.73641   0.49750   0.47660   0.00000  Uiso   1.00
N41    N     0.39028   0.30102   0.10512   0.00000  Uiso   1.00
N42    N     0.94925   0.46713   0.14441   0.00000  Uiso   1.00
N43    N     0.63769   0.47959   0.34761   0.00000  Uiso   1.00
N44    N     0.33609   0.28549   0.24327   0.00000  Uiso   1.00
N45    N     0.89506   0.45159   0.28255   0.00000  Uiso   1.00
N46    N     0.58350   0.46405   0.48576   0.00000  Uiso   1.00
C47    C     0.42887   0.07255   0.30970   0.00000  Uiso   1.00
C48    C     0.40641   0.10788   0.30019   0.00000  Uiso   1.00
C49    C     0.35707   0.12694   0.36689   0.00000  Uiso   1.00
C50    C     0.34390   0.15867   0.34489   0.00000  Uiso   1.00
C51    C     0.30376   0.21166   0.34318   0.00000  Uiso   1.00
C52    C     0.55262   0.06832   0.29362   0.00000  Uiso   1.00
C53    C     0.62620   0.05412   0.35479   0.00000  Uiso   1.00
C54    C     0.73610   0.05256   0.32725   0.00000  Uiso   1.00
C55    C     0.92294   0.04412   0.31531   0.00000  Uiso   1.00
C56    C     0.37168   0.05685   0.22724   0.00000  Uiso   1.00
C57    C     0.29314   0.03300   0.23258   0.00000  Uiso   1.00
C58    C     0.25072   0.02178   0.14915   0.00000  Uiso   1.00
C59    C     0.15662   0.99554   0.03413   0.00000  Uiso   1.00
C60    C     0.49322   0.09501   0.15203   0.00000  Uiso   1.00
C61    C     0.44137   0.12008   0.21456   0.00000  Uiso   1.00
C62    C     0.42826   0.15179   0.19245   0.00000  Uiso   1.00
C63    C     0.37890   0.17089   0.25910   0.00000  Uiso   1.00
C64    C     0.58758   0.08052   0.20799   0.00000  Uiso   1.00
C65    C     0.69739   0.07897   0.18035   0.00000  Uiso   1.00
C66    C     0.77112   0.06478   0.24146   0.00000  Uiso   1.00
C67    C     0.40663   0.06905   0.14160   0.00000  Uiso   1.00
C68    C     0.36433   0.05786   0.05814   0.00000  Uiso   1.00
C69    C     0.28574   0.03400   0.06336   0.00000  Uiso   1.00
H70    H     0.40167   0.06305   0.37637   0.00000  Uiso   1.00
H71    H     0.33004   0.11749   0.43316   0.00000  Uiso   1.00
H72    H     0.59913   0.04468   0.42105   0.00000  Uiso   1.00
H73    H     0.26612   0.02357   0.29886   0.00000  Uiso   1.00
H74    H     0.26609   0.18322   0.45836   0.00000  Uiso   1.00
H75    H     0.83346   0.02970   0.43283   0.00000  Uiso   1.00
H76    H     0.13124   0.98517   0.17517   0.00000  Uiso   1.00
H77    H     0.52043   0.10451   0.08536   0.00000  Uiso   1.00
H78    H     0.45532   0.16122   0.12617   0.00000  Uiso   1.00
H79    H     0.72441   0.08842   0.11407   0.00000  Uiso   1.00
H80    H     0.39140   0.06730   0.99188   0.00000  Uiso   1.00
H81    H     0.36777   0.21872   0.20920   0.00000  Uiso   1.00
H82    H     0.93514   0.06519   0.18367   0.00000  Uiso   1.00
H83    H     0.23292   0.02067   0.92601   0.00000  Uiso   1.00
O84    O     0.27199   0.23753   0.36589   0.00000  Uiso   1.00
O85    O     0.01635   0.03610   0.33239   0.00000  Uiso   1.00
O86    O     0.09505   0.97770   0.99435   0.00000  Uiso   1.00
N87    N     0.29893   0.18379   0.39411   0.00000  Uiso   1.00
N88    N     0.82940   0.04026   0.37025   0.00000  Uiso   1.00
N89    N     0.17290   0.99863   0.12936   0.00000  Uiso   1.00
N90    N     0.35364   0.20289   0.26004   0.00000  Uiso   1.00
N91    N     0.88411   0.05936   0.23618   0.00000  Uiso   1.00
N92    N     0.22761   0.01773   0.99529   0.00000  Uiso   1.00
C93    C     0.66944   0.58273   0.18689   0.00000  Uiso   1.00
C94    C     0.66620   0.61856   0.19812   0.00000  Uiso   1.00
C95    C     0.63331   0.64004   0.13061   0.00000  Uiso   1.00
C96    C     0.63627   0.67183   0.15448   0.00000  Uiso   1.00
C97    C     0.62604   0.72596   0.15848   0.00000  Uiso   1.00
C98    C     0.78777   0.57279   0.20894   0.00000  Uiso   1.00
C99    C     0.85708   0.55577   0.15053   0.00000  Uiso   1.00
C100   C     0.96236   0.54903   0.18352   0.00000  Uiso   1.00
C101   C     0.14083   0.53207   0.20434   0.00000  Uiso   1.00
C102   C     0.59803   0.56936   0.26494   0.00000  Uiso   1.00
C103   C     0.50781   0.54945   0.25362   0.00000  Uiso   1.00
C104   C     0.45336   0.53981   0.33376   0.00000  Uiso   1.00
C105   C     0.33722   0.51753   0.44153   0.00000  Uiso   1.00
C106   C     0.73317   0.60100   0.34935   0.00000  Uiso   1.00
C107   C     0.70083   0.62849   0.28636   0.00000  Uiso   1.00
C108   C     0.70383   0.66025   0.31035   0.00000  Uiso   1.00
C109   C     0.67095   0.68177   0.24288   0.00000  Uiso   1.00
C110   C     0.82239   0.58271   0.29718   0.00000  Uiso   1.00
C111   C     0.92759   0.57599   0.33027   0.00000  Uiso   1.00
C112   C     0.99704   0.55897   0.27192   0.00000  Uiso   1.00
C113   C     0.63264   0.57928   0.35318   0.00000  Uiso   1.00
C114   C     0.57833   0.56967   0.43336   0.00000  Uiso   1.00
C115   C     0.48804   0.54975   0.42216   0.00000  Uiso   1.00
H116   H     0.64249   0.57501   0.11819   0.00000  Uiso   1.00
H117   H     0.60654   0.63235   0.06232   0.00000  Uiso   1.00
H118   H     0.83026   0.54810   0.08225   0.00000  Uiso   1.00
H119   H     0.48105   0.54178   0.18532   0.00000  Uiso   1.00
H120   H     0.58198   0.70030   0.03928   0.00000  Uiso   1.00
H121   H     0.05370   0.52264   0.08131   0.00000  Uiso   1.00
H122   H     0.31732   0.50932   0.29866   0.00000  Uiso   1.00
H123   H     0.76013   0.60872   0.41805   0.00000  Uiso   1.00
H124   H     0.73062   0.66792   0.37864   0.00000  Uiso   1.00
H125   H     0.95435   0.58367   0.39856   0.00000  Uiso   1.00
H126   H     0.60514   0.57735   0.50163   0.00000  Uiso   1.00
H127   H     0.68270   0.72917   0.29601   0.00000  Uiso   1.00
H128   H     0.15442   0.55151   0.33804   0.00000  Uiso   1.00
H129   H     0.41804   0.53819   0.55539   0.00000  Uiso   1.00
O130   O     0.61085   0.75307   0.13630   0.00000  Uiso   1.00
O131   O     0.22971   0.51998   0.19144   0.00000  Uiso   1.00
O132   O     0.26359   0.50250   0.47660   0.00000  Uiso   1.00
N133   N     0.60972   0.69898   0.10512   0.00000  Uiso   1.00
N134   N     0.05075   0.53287   0.14441   0.00000  Uiso   1.00
N135   N     0.36231   0.52041   0.34761   0.00000  Uiso   1.00
N136   N     0.66391   0.71451   0.24327   0.00000  Uiso   1.00
N137   N     0.10494   0.54841   0.28255   0.00000  Uiso   1.00
N138   N     0.41650   0.53595   0.48576   0.00000  Uiso   1.00
C139   C     0.57113   0.92745   0.30970   0.00000  Uiso   1.00
C140   C     0.59359   0.89212   0.30019   0.00000  Uiso   1.00
C141   C     0.64293   0.87306   0.36689   0.00000  Uiso   1.00
C142   C     0.65610   0.84133   0.34489   0.00000  Uiso   1.00
C143   C     0.69624   0.78834   0.34318   0.00000  Uiso   1.00
C144   C     0.44738   0.93168   0.29362   0.00000  Uiso   1.00
C145   C     0.37380   0.94588   0.35479   0.00000  Uiso   1.00
C146   C     0.26390   0.94744   0.32725   0.00000  Uiso   1.00
C147   C     0.07706   0.95588   0.31531   0.00000  Uiso   1.00
C148   C     0.62832   0.94315   0.22724   0.00000  Uiso   1.00
C149   C     0.70686   0.96700   0.23258   0.00000  Uiso   1.00
C150   C     0.74928   0.97822   0.14915   0.00000  Uiso   1.00
C151   C     0.84338   0.00446   0.03413   0.00000  Uiso   1.00
C152   C     0.50678   0.90499   0.15203   0.00000  Uiso   1.00
C153   C     0.55863   0.87992   0.21456   0.00000  Uiso   1.00
C154   C     0.57174   0.84821   0.19245   0.00000  Uiso   1.00
C155   C     0.62110   0.82911   0.25910   0.00000  Uiso   1.00
C156   C     0.41242   0.91948   0.20799   0.00000  Uiso   1.00
C157   C     0.30261   0.92103   0.18035   0.00000  Uiso   1.00
C158   C     0.22888   0.93522   0.24146   0.00000  Uiso   1.00
C159   C     0.59337   0.93095   0.14160   0.00000  Uiso   1.00
C160   C     0.63567   0.94214   0.05814   0.00000  Uiso   1.00
C161   C     0.71426   0.96600   0.06336   0.00000  Uiso   1.00
H162   H     0.59833   0.93695   0.37637   0.00000  Uiso   1.00
H163   H     0.66996   0.88251   0.43316   0.00000  Uiso   1.00
H164   H     0.40087   0.95532   0.42105   0.00000  Uiso   1.00
H165   H     0.73388   0.97643   0.29886   0.00000  Uiso   1.00
H166   H     0.73391   0.81678   0.45836   0.00000  Uiso   1.00
H167   H     0.16654   0.97030   0.43283   0.00000  Uiso   1.00
H168   H     0.86876   0.01483   0.17517   0.00000  Uiso   1.00
H169   H     0.47957   0.89549   0.08536   0.00000  Uiso   1.00
H170   H     0.54468   0.83878   0.12617   0.00000  Uiso   1.00
H171   H     0.27559   0.91158   0.11407   0.00000  Uiso   1.00
H172   H     0.60860   0.93270   0.99188   0.00000  Uiso   1.00
H173   H     0.63223   0.78128   0.20920   0.00000  Uiso   1.00
H174   H     0.06486   0.93481   0.18367   0.00000  Uiso   1.00
H175   H     0.76708   0.97933   0.92601   0.00000  Uiso   1.00
O176   O     0.72801   0.76247   0.36589   0.00000  Uiso   1.00
O177   O     0.98365   0.96390   0.33239   0.00000  Uiso   1.00
O178   O     0.90495   0.02230   0.99435   0.00000  Uiso   1.00
N179   N     0.70107   0.81621   0.39411   0.00000  Uiso   1.00
N180   N     0.17060   0.95974   0.37025   0.00000  Uiso   1.00
N181   N     0.82710   0.00137   0.12936   0.00000  Uiso   1.00
N182   N     0.64636   0.79711   0.26004   0.00000  Uiso   1.00
N183   N     0.11589   0.94064   0.23618   0.00000  Uiso   1.00
N184   N     0.77239   0.98227   0.99529   0.00000  Uiso   1.00
C185   C     0.16944   0.91727   0.81311   0.00000  Uiso   1.00
C186   C     0.16620   0.88144   0.80188   0.00000  Uiso   1.00
C187   C     0.13331   0.85996   0.86939   0.00000  Uiso   1.00
C188   C     0.13627   0.82817   0.84552   0.00000  Uiso   1.00
C189   C     0.12604   0.77404   0.84152   0.00000  Uiso   1.00
C190   C     0.28777   0.92721   0.79106   0.00000  Uiso   1.00
C191   C     0.35708   0.94423   0.84947   0.00000  Uiso   1.00
C192   C     0.46236   0.95097   0.81648   0.00000  Uiso   1.00
C193   C     0.64083   0.96793   0.79566   0.00000  Uiso   1.00
C194   C     0.09803   0.93064   0.73506   0.00000  Uiso   1.00
C195   C     0.00781   0.95055   0.74638   0.00000  Uiso   1.00
C196   C     0.95336   0.96019   0.66624   0.00000  Uiso   1.00
C197   C     0.83722   0.98247   0.55847   0.00000  Uiso   1.00
C198   C     0.23317   0.89900   0.65065   0.00000  Uiso   1.00
C199   C     0.20083   0.87151   0.71364   0.00000  Uiso   1.00
C200   C     0.20383   0.83975   0.68965   0.00000  Uiso   1.00
C201   C     0.17095   0.81823   0.75712   0.00000  Uiso   1.00
C202   C     0.32239   0.91729   0.70282   0.00000  Uiso   1.00
C203   C     0.42759   0.92401   0.66973   0.00000  Uiso   1.00
C204   C     0.49704   0.94103   0.72808   0.00000  Uiso   1.00
C205   C     0.13264   0.92072   0.64682   0.00000  Uiso   1.00
C206   C     0.07833   0.93033   0.56664   0.00000  Uiso   1.00
C207   C     0.98804   0.95025   0.57784   0.00000  Uiso   1.00
H208   H     0.14249   0.92499   0.88181   0.00000  Uiso   1.00
H209   H     0.10654   0.86765   0.93768   0.00000  Uiso   1.00
H210   H     0.33026   0.95190   0.91775   0.00000  Uiso   1.00
H211   H     0.98105   0.95822   0.81468   0.00000  Uiso   1.00
H212   H     0.08198   0.79970   0.96072   0.00000  Uiso   1.00
H213   H     0.55370   0.97736   0.91869   0.00000  Uiso   1.00
H214   H     0.81732   0.99068   0.70134   0.00000  Uiso   1.00
H215   H     0.26013   0.89128   0.58195   0.00000  Uiso   1.00
H216   H     0.23062   0.83208   0.62136   0.00000  Uiso   1.00
H217   H     0.45435   0.91633   0.60144   0.00000  Uiso   1.00
H218   H     0.10514   0.92265   0.49837   0.00000  Uiso   1.00
H219   H     0.18270   0.77083   0.70399   0.00000  Uiso   1.00
H220   H     0.65442   0.94849   0.66196   0.00000  Uiso   1.00
H221   H     0.91804   0.96181   0.44461   0.00000  Uiso   1.00
O222   O     0.11085   0.74693   0.86370   0.00000  Uiso   1.00
O223   O     0.72971   0.98002   0.80856   0.00000  Uiso   1.00
O224   O     0.76359   0.99750   0.52340   0.00000  Uiso   1.00
N225   N     0.10972   0.80102   0.89488   0.00000  Uiso   1.00
N226   N     0.55075   0.96713   0.85559   0.00000  Uiso   1.00
N227   N     0.86231   0.97959   0.65239   0.00000  Uiso   1.00
N228   N     0.16391   0.78549   0.75673   0.00000  Uiso   1.00
N229   N     0.60494   0.95159   0.71745   0.00000  Uiso   1.00
N230   N     0.91650   0.96405   0.51424   0.00000  Uiso   1.00
C231   C     0.07113   0.57255   0.69030   0.00000  Uiso   1.00
C232   C     0.09359   0.60788   0.69981   0.00000  Uiso   1.00
C233   C     0.14293   0.62694   0.63311   0.00000  Uiso   1.00
C234   C     0.15610   0.65867   0.65511   0.00000  Uiso   1.00
C235   C     0.19624   0.71166   0.65682   0.00000  Uiso   1.00
C236   C     0.94738   0.56832   0.70638   0.00000  Uiso   1.00
C237   C     0.87380   0.55412   0.64521   0.00000  Uiso   1.00
C238   C     0.76390   0.55256   0.67275   0.00000  Uiso   1.00
C239   C     0.57706   0.54412   0.68469   0.00000  Uiso   1.00
C240   C     0.12832   0.55685   0.77276   0.00000  Uiso   1.00
C241   C     0.20686   0.53300   0.76742   0.00000  Uiso   1.00
C242   C     0.24928   0.52178   0.85085   0.00000  Uiso   1.00
C243   C     0.34338   0.49554   0.96587   0.00000  Uiso   1.00
C244   C     0.00678   0.59501   0.84797   0.00000  Uiso   1.00
C245   C     0.05863   0.62008   0.78544   0.00000  Uiso   1.00
C246   C     0.07174   0.65179   0.80755   0.00000  Uiso   1.00
C247   C     0.12110   0.67089   0.74090   0.00000  Uiso   1.00
C248   C     0.91242   0.58052   0.79201   0.00000  Uiso   1.00
C249   C     0.80261   0.57897   0.81965   0.00000  Uiso   1.00
C250   C     0.72888   0.56478   0.75854   0.00000  Uiso   1.00
C251   C     0.09337   0.56905   0.85840   0.00000  Uiso   1.00
C252   C     0.13567   0.55786   0.94186   0.00000  Uiso   1.00
C253   C     0.21426   0.53400   0.93664   0.00000  Uiso   1.00
H254   H     0.09833   0.56305   0.62363   0.00000  Uiso   1.00
H255   H     0.16996   0.61749   0.56684   0.00000  Uiso   1.00
H256   H     0.90087   0.54468   0.57895   0.00000  Uiso   1.00
H257   H     0.23388   0.52357   0.70114   0.00000  Uiso   1.00
H258   H     0.23392   0.68322   0.54164   0.00000  Uiso   1.00
H259   H     0.66654   0.52970   0.56717   0.00000  Uiso   1.00
H260   H     0.36876   0.48517   0.82483   0.00000  Uiso   1.00
H261   H     0.97957   0.60451   0.91464   0.00000  Uiso   1.00
H262   H     0.04468   0.66122   0.87383   0.00000  Uiso   1.00
H263   H     0.77559   0.58842   0.88593   0.00000  Uiso   1.00
H264   H     0.10860   0.56730   0.00812   0.00000  Uiso   1.00
H265   H     0.13223   0.71872   0.79080   0.00000  Uiso   1.00
H266   H     0.56486   0.56519   0.81633   0.00000  Uiso   1.00
H267   H     0.26708   0.52067   0.07399   0.00000  Uiso   1.00
O268   O     0.22801   0.73753   0.63411   0.00000  Uiso   1.00
O269   O     0.48365   0.53610   0.66761   0.00000  Uiso   1.00
O270   O     0.40495   0.47770   0.00565   0.00000  Uiso   1.00
N271   N     0.20107   0.68379   0.60589   0.00000  Uiso   1.00
N272   N     0.67060   0.54026   0.62975   0.00000  Uiso   1.00
N273   N     0.32710   0.49863   0.87064   0.00000  Uiso   1.00
N274   N     0.14636   0.70289   0.73996   0.00000  Uiso   1.00
N275   N     0.61589   0.55936   0.76382   0.00000  Uiso   1.00
N276   N     0.27239   0.51773   0.00471   0.00000  Uiso   1.00
C277   C     0.83056   0.08273   0.81311   0.00000  Uiso   1.00
C278   C     0.83380   0.11856   0.80188   0.00000  Uiso   1.00
C279   C     0.86669   0.14004   0.86939   0.00000  Uiso   1.00
C280   C     0.86373   0.17183   0.84552   0.00000  Uiso   1.00
C281   C     0.87396   0.22596   0.84152   0.00000  Uiso   1.00
C282   C     0.71223   0.07279   0.79106   0.00000  Uiso   1.00
C283   C     0.64292   0.05577   0.84947   0.00000  Uiso   1.00
C284   C     0.53764   0.04903   0.81648   0.00000  Uiso   1.00
C285   C     0.35917   0.03207   0.79566   0.00000  Uiso   1.00
C286   C     0.90197   0.06936   0.73506   0.00000  Uiso   1.00
C287   C     0.99219   0.04945   0.74638   0.00000  Uiso   1.00
C288   C     0.04664   0.03981   0.66624   0.00000  Uiso   1.00
C289   C     0.16278   0.01753   0.55847   0.00000  Uiso   1.00
C290   C     0.76683   0.10100   0.65065   0.00000  Uiso   1.00
C291   C     0.79917   0.12849   0.71364   0.00000  Uiso   1.00
C292   C     0.79617   0.16025   0.68965   0.00000  Uiso   1.00
C293   C     0.82905   0.18177   0.75712   0.00000  Uiso   1.00
C294   C     0.67761   0.08271   0.70282   0.00000  Uiso   1.00
C295   C     0.57241   0.07599   0.66973   0.00000  Uiso   1.00
C296   C     0.50296   0.05897   0.72808   0.00000  Uiso   1.00
C297   C     0.86736   0.07928   0.64682   0.00000  Uiso   1.00
C298   C     0.92167   0.06967   0.56664   0.00000  Uiso   1.00
C299   C     0.01196   0.04975   0.57784   0.00000  Uiso   1.00
H300   H     0.85751   0.07501   0.88181   0.00000  Uiso   1.00
H301   H     0.89346   0.13235   0.93768   0.00000  Uiso   1.00
H302   H     0.66974   0.04810   0.91775   0.00000  Uiso   1.00
H303   H     0.01895   0.04178   0.81468   0.00000  Uiso   1.00
H304   H     0.91802   0.20030   0.96072   0.00000  Uiso   1.00
H305   H     0.44630   0.02264   0.91869   0.00000  Uiso   1.00
H306   H     0.18268   0.00932   0.70134   0.00000  Uiso   1.00
H307   H     0.73987   0.10872   0.58195   0.00000  Uiso   1.00
H308   H     0.76938   0.16792   0.62136   0.00000  Uiso   1.00
H309   H     0.54565   0.08367   0.60144   0.00000  Uiso   1.00
H310   H     0.89486   0.07735   0.49837   0.00000  Uiso   1.00
H311   H     0.81730   0.22917   0.70399   0.00000  Uiso   1.00
H312   H     0.34558   0.05151   0.66196   0.00000  Uiso   1.00
H313   H     0.08196   0.03819   0.44461   0.00000  Uiso   1.00
O314   O     0.88915   0.25307   0.86370   0.00000  Uiso   1.00
O315   O     0.27029   0.01998   0.80856   0.00000  Uiso   1.00
O316   O     0.23641   0.00250   0.52340   0.00000  Uiso   1.00
N317   N     0.89028   0.19898   0.89488   0.00000  Uiso   1.00
N318   N     0.44925   0.03287   0.85559   0.00000  Uiso   1.00
N319   N     0.13769   0.02041   0.65239   0.00000  Uiso   1.00
N320   N     0.83609   0.21451   0.75673   0.00000  Uiso   1.00
N321   N     0.39506   0.04841   0.71745   0.00000  Uiso   1.00
N322   N     0.08350   0.03595   0.51424   0.00000  Uiso   1.00
C323   C     0.92887   0.42745   0.69030   0.00000  Uiso   1.00
C324   C     0.90641   0.39212   0.69981   0.00000  Uiso   1.00
C325   C     0.85707   0.37306   0.63311   0.00000  Uiso   1.00
C326   C     0.84390   0.34133   0.65511   0.00000  Uiso   1.00
C327   C     0.80376   0.28834   0.65682   0.00000  Uiso   1.00
C328   C     0.05262   0.43168   0.70638   0.00000  Uiso   1.00
C329   C     0.12620   0.44588   0.64521   0.00000  Uiso   1.00
C330   C     0.23610   0.44744   0.67275   0.00000  Uiso   1.00
C331   C     0.42294   0.45588   0.68469   0.00000  Uiso   1.00
C332   C     0.87168   0.44315   0.77276   0.00000  Uiso   1.00
C333   C     0.79314   0.46700   0.76742   0.00000  Uiso   1.00
C334   C     0.75072   0.47822   0.85085   0.00000  Uiso   1.00
C335   C     0.65662   0.50446   0.96587   0.00000  Uiso   1.00
C336   C     0.99322   0.40499   0.84797   0.00000  Uiso   1.00
C337   C     0.94137   0.37992   0.78544   0.00000  Uiso   1.00
C338   C     0.92826   0.34821   0.80755   0.00000  Uiso   1.00
C339   C     0.87890   0.32911   0.74090   0.00000  Uiso   1.00
C340   C     0.08758   0.41948   0.79201   0.00000  Uiso   1.00
C341   C     0.19739   0.42103   0.81965   0.00000  Uiso   1.00
C342   C     0.27112   0.43522   0.75854   0.00000  Uiso   1.00
C343   C     0.90663   0.43095   0.85840   0.00000  Uiso   1.00
C344   C     0.86433   0.44214   0.94186   0.00000  Uiso   1.00
C345   C     0.78574   0.46600   0.93664   0.00000  Uiso   1.00
H346   H     0.90167   0.43695   0.62363   0.00000  Uiso   1.00
H347   H     0.83004   0.38251   0.56684   0.00000  Uiso   1.00
H348   H     0.09913   0.45532   0.57895   0.00000  Uiso   1.00
H349   H     0.76612   0.47643   0.70114   0.00000  Uiso   1.00
H350   H     0.76609   0.31678   0.54164   0.00000  Uiso   1.00
H351   H     0.33346   0.47030   0.56717   0.00000  Uiso   1.00
H352   H     0.63124   0.51483   0.82483   0.00000  Uiso   1.00
H353   H     0.02043   0.39549   0.91464   0.00000  Uiso   1.00
H354   H     0.95532   0.33878   0.87383   0.00000  Uiso   1.00
H355   H     0.22441   0.41158   0.88593   0.00000  Uiso   1.00
H356   H     0.89140   0.43270   0.00812   0.00000  Uiso   1.00
H357   H     0.86777   0.28128   0.79080   0.00000  Uiso   1.00
H358   H     0.43514   0.43481   0.81633   0.00000  Uiso   1.00
H359   H     0.73292   0.47933   0.07399   0.00000  Uiso   1.00
O360   O     0.77199   0.26247   0.63411   0.00000  Uiso   1.00
O361   O     0.51635   0.46390   0.66761   0.00000  Uiso   1.00
O362   O     0.59505   0.52230   0.00565   0.00000  Uiso   1.00
N363   N     0.79893   0.31621   0.60589   0.00000  Uiso   1.00
N364   N     0.32940   0.45974   0.62975   0.00000  Uiso   1.00
N365   N     0.67290   0.50137   0.87064   0.00000  Uiso   1.00
N366   N     0.85364   0.29711   0.73996   0.00000  Uiso   1.00
N367   N     0.38411   0.44064   0.76382   0.00000  Uiso   1.00
N368   N     0.72761   0.48227   0.00471   0.00000  Uiso   1.00
