data_job_04134
_audit_creation_date              2018-12-19
_audit_creation_method            'Materials Studio'
_symmetry_space_group_name_H-M    'P1'
_symmetry_Int_Tables_number       1
_symmetry_cell_setting            triclinic
loop_
_symmetry_equiv_pos_as_xyz
  x,y,z
_cell_length_a                    9.3539
_cell_length_b                    22.5929
_cell_length_c                    13.2873
_cell_angle_alpha                 90.0000
_cell_angle_beta                  90.0000
_cell_angle_gamma                 90.0000
loop_
_atom_site_label
_atom_site_type_symbol
_atom_site_fract_x
_atom_site_fract_y
_atom_site_fract_z
_atom_site_U_iso_or_equiv
_atom_site_adp_type
_atom_site_occupancy
C1     C     0.20592   0.99178   0.58223   0.00000  Uiso   1.00
C2     C     0.30051   0.94402   0.53597   0.00000  Uiso   1.00
C3     C     0.31613   0.88666   0.57168   0.00000  Uiso   1.00
C4     C     0.40777   0.84967   0.51876   0.00000  Uiso   1.00
C5     C     0.54355   0.77251   0.45996   0.00000  Uiso   1.00
C6     C     0.30410   0.04410   0.60418   0.00000  Uiso   1.00
C7     C     0.32270   0.07089   0.69726   0.00000  Uiso   1.00
C8     C     0.41735   0.11816   0.70175   0.00000  Uiso   1.00
C9     C     0.55861   0.19641   0.74885   0.00000  Uiso   1.00
C10    C     0.10566   0.01212   0.49861   0.00000  Uiso   1.00
C11    C     0.95741   0.01204   0.50293   0.00000  Uiso   1.00
C12    C     0.88498   0.03240   0.41854   0.00000  Uiso   1.00
C13    C     0.71814   0.06099   0.30172   0.00000  Uiso   1.00
C14    C     0.34089   0.02809   0.42471   0.00000  Uiso   1.00
C15    C     0.37382   0.96374   0.45041   0.00000  Uiso   1.00
C16    C     0.46546   0.92683   0.39741   0.00000  Uiso   1.00
C17    C     0.48121   0.86943   0.43304   0.00000  Uiso   1.00
C18    C     0.37740   0.06382   0.51863   0.00000  Uiso   1.00
C19    C     0.47203   0.11107   0.52298   0.00000  Uiso   1.00
C20    C     0.49079   0.13792   0.61604   0.00000  Uiso   1.00
C21    C     0.17896   0.03184   0.41305   0.00000  Uiso   1.00
C22    C     0.10675   0.05221   0.32865   0.00000  Uiso   1.00
C23    C     0.95842   0.05216   0.33283   0.00000  Uiso   1.00
H24    H     0.14885   0.97643   0.64885   0.00000  Uiso   1.00
H25    H     0.25939   0.87141   0.63791   0.00000  Uiso   1.00
H26    H     0.26595   0.05562   0.76345   0.00000  Uiso   1.00
H27    H     0.90072   0.99677   0.56915   0.00000  Uiso   1.00
H28    H     0.41431   0.76369   0.58806   0.00000  Uiso   1.00
H29    H     0.42811   0.15211   0.85278   0.00000  Uiso   1.00
H30    H     0.65795   0.02802   0.44306   0.00000  Uiso   1.00
H31    H     0.39797   0.04345   0.35810   0.00000  Uiso   1.00
H32    H     0.52218   0.94211   0.33120   0.00000  Uiso   1.00
H33    H     0.52874   0.12632   0.45675   0.00000  Uiso   1.00
H34    H     0.16351   0.06747   0.26245   0.00000  Uiso   1.00
H35    H     0.62761   0.82107   0.33913   0.00000  Uiso   1.00
H36    H     0.64140   0.20949   0.60385   0.00000  Uiso   1.00
H37    H     0.87124   0.08540   0.19413   0.00000  Uiso   1.00
O38    O     0.59821   0.72451   0.45117   0.00000  Uiso   1.00
O39    O     0.61629   0.23411   0.79847   0.00000  Uiso   1.00
O40    O     0.60586   0.07131   0.26091   0.00000  Uiso   1.00
N41    N     0.44744   0.79110   0.53316   0.00000  Uiso   1.00
N42    N     0.46036   0.15424   0.78066   0.00000  Uiso   1.00
N43    N     0.74032   0.03825   0.39761   0.00000  Uiso   1.00
N44    N     0.56221   0.82197   0.39921   0.00000  Uiso   1.00
N45    N     0.57513   0.18512   0.64671   0.00000  Uiso   1.00
N46    N     0.85509   0.06912   0.26366   0.00000  Uiso   1.00
C47    C     0.29408   0.00822   0.08223   0.00000  Uiso   1.00
C48    C     0.19949   0.05598   0.03597   0.00000  Uiso   1.00
C49    C     0.18387   0.11334   0.07168   0.00000  Uiso   1.00
C50    C     0.09223   0.15033   0.01876   0.00000  Uiso   1.00
C51    C     0.95645   0.22749   0.95996   0.00000  Uiso   1.00
C52    C     0.19590   0.95590   0.10418   0.00000  Uiso   1.00
C53    C     0.17730   0.92911   0.19726   0.00000  Uiso   1.00
C54    C     0.08265   0.88184   0.20175   0.00000  Uiso   1.00
C55    C     0.94139   0.80359   0.24885   0.00000  Uiso   1.00
C56    C     0.39434   0.98788   0.99861   0.00000  Uiso   1.00
C57    C     0.54259   0.98796   0.00293   0.00000  Uiso   1.00
C58    C     0.61502   0.96760   0.91854   0.00000  Uiso   1.00
C59    C     0.78186   0.93901   0.80172   0.00000  Uiso   1.00
C60    C     0.15911   0.97191   0.92471   0.00000  Uiso   1.00
C61    C     0.12618   0.03626   0.95041   0.00000  Uiso   1.00
C62    C     0.03454   0.07317   0.89741   0.00000  Uiso   1.00
C63    C     0.01879   0.13057   0.93304   0.00000  Uiso   1.00
C64    C     0.12260   0.93618   0.01863   0.00000  Uiso   1.00
C65    C     0.02797   0.88893   0.02298   0.00000  Uiso   1.00
C66    C     0.00921   0.86208   0.11604   0.00000  Uiso   1.00
C67    C     0.32104   0.96816   0.91305   0.00000  Uiso   1.00
C68    C     0.39325   0.94779   0.82865   0.00000  Uiso   1.00
C69    C     0.54158   0.94784   0.83283   0.00000  Uiso   1.00
H70    H     0.35115   0.02357   0.14885   0.00000  Uiso   1.00
H71    H     0.24061   0.12859   0.13791   0.00000  Uiso   1.00
H72    H     0.23405   0.94438   0.26345   0.00000  Uiso   1.00
H73    H     0.59928   0.00323   0.06915   0.00000  Uiso   1.00
H74    H     0.08569   0.23631   0.08806   0.00000  Uiso   1.00
H75    H     0.07189   0.84789   0.35278   0.00000  Uiso   1.00
H76    H     0.84205   0.97198   0.94306   0.00000  Uiso   1.00
H77    H     0.10203   0.95655   0.85810   0.00000  Uiso   1.00
H78    H     0.97782   0.05789   0.83120   0.00000  Uiso   1.00
H79    H     0.97126   0.87368   0.95675   0.00000  Uiso   1.00
H80    H     0.33649   0.93253   0.76245   0.00000  Uiso   1.00
H81    H     0.87239   0.17893   0.83913   0.00000  Uiso   1.00
H82    H     0.85860   0.79051   0.10385   0.00000  Uiso   1.00
H83    H     0.62876   0.91460   0.69413   0.00000  Uiso   1.00
O84    O     0.90179   0.27549   0.95117   0.00000  Uiso   1.00
O85    O     0.88371   0.76589   0.29847   0.00000  Uiso   1.00
O86    O     0.89414   0.92869   0.76091   0.00000  Uiso   1.00
N87    N     0.05256   0.20890   0.03316   0.00000  Uiso   1.00
N88    N     0.03964   0.84576   0.28066   0.00000  Uiso   1.00
N89    N     0.75968   0.96175   0.89761   0.00000  Uiso   1.00
N90    N     0.93779   0.17803   0.89921   0.00000  Uiso   1.00
N91    N     0.92487   0.81488   0.14671   0.00000  Uiso   1.00
N92    N     0.64491   0.93088   0.76366   0.00000  Uiso   1.00
C93    C     0.79408   0.49178   0.91777   0.00000  Uiso   1.00
C94    C     0.69949   0.44402   0.96403   0.00000  Uiso   1.00
C95    C     0.68387   0.38666   0.92832   0.00000  Uiso   1.00
C96    C     0.59223   0.34967   0.98124   0.00000  Uiso   1.00
C97    C     0.45645   0.27251   0.04004   0.00000  Uiso   1.00
C98    C     0.69590   0.54410   0.89582   0.00000  Uiso   1.00
C99    C     0.67730   0.57089   0.80274   0.00000  Uiso   1.00
C100   C     0.58265   0.61816   0.79825   0.00000  Uiso   1.00
C101   C     0.44139   0.69641   0.75115   0.00000  Uiso   1.00
C102   C     0.89434   0.51212   0.00139   0.00000  Uiso   1.00
C103   C     0.04259   0.51204   0.99707   0.00000  Uiso   1.00
C104   C     0.11502   0.53240   0.08146   0.00000  Uiso   1.00
C105   C     0.28186   0.56099   0.19828   0.00000  Uiso   1.00
C106   C     0.65911   0.52809   0.07529   0.00000  Uiso   1.00
C107   C     0.62618   0.46374   0.04959   0.00000  Uiso   1.00
C108   C     0.53454   0.42683   0.10259   0.00000  Uiso   1.00
C109   C     0.51879   0.36943   0.06696   0.00000  Uiso   1.00
C110   C     0.62260   0.56382   0.98137   0.00000  Uiso   1.00
C111   C     0.52797   0.61107   0.97702   0.00000  Uiso   1.00
C112   C     0.50921   0.63792   0.88396   0.00000  Uiso   1.00
C113   C     0.82104   0.53184   0.08695   0.00000  Uiso   1.00
C114   C     0.89325   0.55221   0.17135   0.00000  Uiso   1.00
C115   C     0.04158   0.55216   0.16717   0.00000  Uiso   1.00
H116   H     0.85115   0.47643   0.85115   0.00000  Uiso   1.00
H117   H     0.74061   0.37141   0.86209   0.00000  Uiso   1.00
H118   H     0.73405   0.55562   0.73655   0.00000  Uiso   1.00
H119   H     0.09928   0.49677   0.93085   0.00000  Uiso   1.00
H120   H     0.58569   0.26369   0.91194   0.00000  Uiso   1.00
H121   H     0.57189   0.65211   0.64722   0.00000  Uiso   1.00
H122   H     0.34205   0.52802   0.05694   0.00000  Uiso   1.00
H123   H     0.60203   0.54345   0.14190   0.00000  Uiso   1.00
H124   H     0.47782   0.44211   0.16880   0.00000  Uiso   1.00
H125   H     0.47126   0.62632   0.04325   0.00000  Uiso   1.00
H126   H     0.83649   0.56747   0.23755   0.00000  Uiso   1.00
H127   H     0.37239   0.32107   0.16087   0.00000  Uiso   1.00
H128   H     0.35860   0.70949   0.89615   0.00000  Uiso   1.00
H129   H     0.12876   0.58540   0.30587   0.00000  Uiso   1.00
O130   O     0.40179   0.22451   0.04883   0.00000  Uiso   1.00
O131   O     0.38371   0.73411   0.70153   0.00000  Uiso   1.00
O132   O     0.39414   0.57131   0.23909   0.00000  Uiso   1.00
N133   N     0.55256   0.29110   0.96684   0.00000  Uiso   1.00
N134   N     0.53964   0.65424   0.71934   0.00000  Uiso   1.00
N135   N     0.25968   0.53825   0.10239   0.00000  Uiso   1.00
N136   N     0.43779   0.32197   0.10079   0.00000  Uiso   1.00
N137   N     0.42487   0.68512   0.85329   0.00000  Uiso   1.00
N138   N     0.14491   0.56912   0.23634   0.00000  Uiso   1.00
C139   C     0.70592   0.50822   0.41777   0.00000  Uiso   1.00
C140   C     0.80051   0.55598   0.46403   0.00000  Uiso   1.00
C141   C     0.81613   0.61334   0.42832   0.00000  Uiso   1.00
C142   C     0.90777   0.65033   0.48124   0.00000  Uiso   1.00
C143   C     0.04355   0.72749   0.54004   0.00000  Uiso   1.00
C144   C     0.80410   0.45590   0.39582   0.00000  Uiso   1.00
C145   C     0.82270   0.42911   0.30274   0.00000  Uiso   1.00
C146   C     0.91735   0.38184   0.29825   0.00000  Uiso   1.00
C147   C     0.05861   0.30359   0.25115   0.00000  Uiso   1.00
C148   C     0.60566   0.48788   0.50139   0.00000  Uiso   1.00
C149   C     0.45741   0.48796   0.49707   0.00000  Uiso   1.00
C150   C     0.38498   0.46760   0.58146   0.00000  Uiso   1.00
C151   C     0.21814   0.43901   0.69828   0.00000  Uiso   1.00
C152   C     0.84089   0.47191   0.57529   0.00000  Uiso   1.00
C153   C     0.87382   0.53626   0.54959   0.00000  Uiso   1.00
C154   C     0.96546   0.57317   0.60259   0.00000  Uiso   1.00
C155   C     0.98121   0.63057   0.56696   0.00000  Uiso   1.00
C156   C     0.87740   0.43618   0.48137   0.00000  Uiso   1.00
C157   C     0.97203   0.38893   0.47702   0.00000  Uiso   1.00
C158   C     0.99079   0.36208   0.38396   0.00000  Uiso   1.00
C159   C     0.67896   0.46816   0.58695   0.00000  Uiso   1.00
C160   C     0.60675   0.44779   0.67135   0.00000  Uiso   1.00
C161   C     0.45842   0.44784   0.66717   0.00000  Uiso   1.00
H162   H     0.64885   0.52357   0.35115   0.00000  Uiso   1.00
H163   H     0.75939   0.62859   0.36209   0.00000  Uiso   1.00
H164   H     0.76595   0.44438   0.23655   0.00000  Uiso   1.00
H165   H     0.40072   0.50323   0.43085   0.00000  Uiso   1.00
H166   H     0.91431   0.73631   0.41194   0.00000  Uiso   1.00
H167   H     0.92811   0.34789   0.14722   0.00000  Uiso   1.00
H168   H     0.15795   0.47198   0.55694   0.00000  Uiso   1.00
H169   H     0.89797   0.45655   0.64190   0.00000  Uiso   1.00
H170   H     0.02218   0.55789   0.66880   0.00000  Uiso   1.00
H171   H     0.02874   0.37368   0.54325   0.00000  Uiso   1.00
H172   H     0.66351   0.43253   0.73755   0.00000  Uiso   1.00
H173   H     0.12761   0.67893   0.66087   0.00000  Uiso   1.00
H174   H     0.14140   0.29051   0.39615   0.00000  Uiso   1.00
H175   H     0.37124   0.41460   0.80587   0.00000  Uiso   1.00
O176   O     0.09821   0.77549   0.54883   0.00000  Uiso   1.00
O177   O     0.11629   0.26589   0.20153   0.00000  Uiso   1.00
O178   O     0.10586   0.42869   0.73909   0.00000  Uiso   1.00
N179   N     0.94744   0.70890   0.46684   0.00000  Uiso   1.00
N180   N     0.96036   0.34576   0.21934   0.00000  Uiso   1.00
N181   N     0.24032   0.46175   0.60239   0.00000  Uiso   1.00
N182   N     0.06221   0.67803   0.60079   0.00000  Uiso   1.00
N183   N     0.07513   0.31488   0.35329   0.00000  Uiso   1.00
N184   N     0.35509   0.43088   0.73634   0.00000  Uiso   1.00
