data_job_03563
_audit_creation_date              2018-12-19
_audit_creation_method            'Materials Studio'
_symmetry_space_group_name_H-M    'P1'
_symmetry_Int_Tables_number       1
_symmetry_cell_setting            triclinic
loop_
_symmetry_equiv_pos_as_xyz
  x,y,z
_cell_length_a                    12.4610
_cell_length_b                    11.6330
_cell_length_c                    20.4758
_cell_angle_alpha                 90.0000
_cell_angle_beta                  90.0000
_cell_angle_gamma                 90.0000
loop_
_atom_site_label
_atom_site_type_symbol
_atom_site_fract_x
_atom_site_fract_y
_atom_site_fract_z
_atom_site_U_iso_or_equiv
_atom_site_adp_type
_atom_site_occupancy
C1     C     0.44795   0.67328   0.91088   0.00000  Uiso   1.00
C2     C     0.53124   0.58174   0.89437   0.00000  Uiso   1.00
C3     C     0.62834   0.56553   0.92626   0.00000  Uiso   1.00
C4     C     0.69339   0.47709   0.90377   0.00000  Uiso   1.00
C5     C     0.82746   0.34559   0.88610   0.00000  Uiso   1.00
C6     C     0.42993   0.74136   0.84819   0.00000  Uiso   1.00
C7     C     0.44185   0.85935   0.84125   0.00000  Uiso   1.00
C8     C     0.42161   0.90528   0.77989   0.00000  Uiso   1.00
C9     C     0.39833   0.02159   0.69053   0.00000  Uiso   1.00
C10    C     0.34352   0.60888   0.92386   0.00000  Uiso   1.00
C11    C     0.28275   0.61550   0.98053   0.00000  Uiso   1.00
C12    C     0.18974   0.54990   0.98287   0.00000  Uiso   1.00
C13    C     0.03229   0.46052   0.01099   0.00000  Uiso   1.00
C14    C     0.39081   0.54506   0.81424   0.00000  Uiso   1.00
C15    C     0.50020   0.51210   0.84188   0.00000  Uiso   1.00
C16    C     0.56512   0.42366   0.81934   0.00000  Uiso   1.00
C17    C     0.66230   0.40731   0.85119   0.00000  Uiso   1.00
C18    C     0.39890   0.67172   0.79570   0.00000  Uiso   1.00
C19    C     0.37863   0.71748   0.73433   0.00000  Uiso   1.00
C20    C     0.39052   0.83550   0.72730   0.00000  Uiso   1.00
C21    C     0.31248   0.53923   0.87136   0.00000  Uiso   1.00
C22    C     0.21954   0.47362   0.87361   0.00000  Uiso   1.00
C23    C     0.15865   0.48013   0.93028   0.00000  Uiso   1.00
H24    H     0.47211   0.72751   0.95175   0.00000  Uiso   1.00
H25    H     0.65233   0.61945   0.96688   0.00000  Uiso   1.00
H26    H     0.46585   0.91323   0.88188   0.00000  Uiso   1.00
H27    H     0.30679   0.66940   0.02114   0.00000  Uiso   1.00
H28    H     0.83847   0.46896   0.96048   0.00000  Uiso   1.00
H29    H     0.44525   0.08840   0.78128   0.00000  Uiso   1.00
H30    H     0.10982   0.57426   0.07493   0.00000  Uiso   1.00
H31    H     0.36664   0.49083   0.77337   0.00000  Uiso   1.00
H32    H     0.54108   0.36978   0.77871   0.00000  Uiso   1.00
H33    H     0.35461   0.66356   0.69372   0.00000  Uiso   1.00
H34    H     0.19555   0.41973   0.83298   0.00000  Uiso   1.00
H35    H     0.74818   0.26632   0.80776   0.00000  Uiso   1.00
H36    H     0.35495   0.88577   0.62856   0.00000  Uiso   1.00
H37    H     0.01953   0.37162   0.92221   0.00000  Uiso   1.00
O38    O     0.91000   0.29230   0.89084   0.00000  Uiso   1.00
O39    O     0.39408   0.10499   0.65574   0.00000  Uiso   1.00
O40    O     0.95402   0.43044   0.04101   0.00000  Uiso   1.00
N41    N     0.79327   0.43787   0.92382   0.00000  Uiso   1.00
N42    N     0.42565   0.01701   0.75627   0.00000  Uiso   1.00
N43    N     0.11204   0.53635   0.03080   0.00000  Uiso   1.00
N44    N     0.74469   0.32883   0.84164   0.00000  Uiso   1.00
N45    N     0.37706   0.90797   0.67409   0.00000  Uiso   1.00
N46    N     0.06345   0.42731   0.94863   0.00000  Uiso   1.00
C47    C     0.55205   0.32672   0.41088   0.00000  Uiso   1.00
C48    C     0.46876   0.41826   0.39437   0.00000  Uiso   1.00
C49    C     0.37166   0.43447   0.42626   0.00000  Uiso   1.00
C50    C     0.30661   0.52291   0.40377   0.00000  Uiso   1.00
C51    C     0.17254   0.65441   0.38610   0.00000  Uiso   1.00
C52    C     0.57007   0.25864   0.34819   0.00000  Uiso   1.00
C53    C     0.55815   0.14065   0.34125   0.00000  Uiso   1.00
C54    C     0.57839   0.09472   0.27989   0.00000  Uiso   1.00
C55    C     0.60167   0.97841   0.19053   0.00000  Uiso   1.00
C56    C     0.65648   0.39112   0.42386   0.00000  Uiso   1.00
C57    C     0.71725   0.38450   0.48053   0.00000  Uiso   1.00
C58    C     0.81026   0.45010   0.48287   0.00000  Uiso   1.00
C59    C     0.96771   0.53948   0.51099   0.00000  Uiso   1.00
C60    C     0.60919   0.45494   0.31424   0.00000  Uiso   1.00
C61    C     0.49980   0.48790   0.34188   0.00000  Uiso   1.00
C62    C     0.43488   0.57634   0.31934   0.00000  Uiso   1.00
C63    C     0.33770   0.59269   0.35119   0.00000  Uiso   1.00
C64    C     0.60110   0.32828   0.29570   0.00000  Uiso   1.00
C65    C     0.62137   0.28252   0.23433   0.00000  Uiso   1.00
C66    C     0.60948   0.16450   0.22730   0.00000  Uiso   1.00
C67    C     0.68752   0.46077   0.37136   0.00000  Uiso   1.00
C68    C     0.78046   0.52638   0.37361   0.00000  Uiso   1.00
C69    C     0.84135   0.51987   0.43028   0.00000  Uiso   1.00
H70    H     0.52789   0.27249   0.45175   0.00000  Uiso   1.00
H71    H     0.34767   0.38055   0.46688   0.00000  Uiso   1.00
H72    H     0.53415   0.08677   0.38188   0.00000  Uiso   1.00
H73    H     0.69321   0.33060   0.52114   0.00000  Uiso   1.00
H74    H     0.16153   0.53104   0.46048   0.00000  Uiso   1.00
H75    H     0.55475   0.91160   0.28128   0.00000  Uiso   1.00
H76    H     0.89018   0.42574   0.57493   0.00000  Uiso   1.00
H77    H     0.63336   0.50917   0.27337   0.00000  Uiso   1.00
H78    H     0.45892   0.63022   0.27871   0.00000  Uiso   1.00
H79    H     0.64539   0.33644   0.19372   0.00000  Uiso   1.00
H80    H     0.80445   0.58027   0.33298   0.00000  Uiso   1.00
H81    H     0.25182   0.73368   0.30776   0.00000  Uiso   1.00
H82    H     0.64505   0.11423   0.12856   0.00000  Uiso   1.00
H83    H     0.98047   0.62838   0.42221   0.00000  Uiso   1.00
O84    O     0.09000   0.70770   0.39084   0.00000  Uiso   1.00
O85    O     0.60592   0.89501   0.15574   0.00000  Uiso   1.00
O86    O     0.04598   0.56956   0.54101   0.00000  Uiso   1.00
N87    N     0.20673   0.56213   0.42382   0.00000  Uiso   1.00
N88    N     0.57435   0.98299   0.25627   0.00000  Uiso   1.00
N89    N     0.88796   0.46365   0.53080   0.00000  Uiso   1.00
N90    N     0.25531   0.67117   0.34164   0.00000  Uiso   1.00
N91    N     0.62294   0.09203   0.17409   0.00000  Uiso   1.00
N92    N     0.93655   0.57269   0.44863   0.00000  Uiso   1.00
C93    C     0.94795   0.82672   0.91088   0.00000  Uiso   1.00
C94    C     0.03124   0.91826   0.89437   0.00000  Uiso   1.00
C95    C     0.12834   0.93447   0.92626   0.00000  Uiso   1.00
C96    C     0.19339   0.02291   0.90377   0.00000  Uiso   1.00
C97    C     0.32746   0.15441   0.88610   0.00000  Uiso   1.00
C98    C     0.92993   0.75864   0.84819   0.00000  Uiso   1.00
C99    C     0.94185   0.64065   0.84125   0.00000  Uiso   1.00
C100   C     0.92161   0.59472   0.77989   0.00000  Uiso   1.00
C101   C     0.89833   0.47841   0.69053   0.00000  Uiso   1.00
C102   C     0.84352   0.89112   0.92386   0.00000  Uiso   1.00
C103   C     0.78275   0.88450   0.98053   0.00000  Uiso   1.00
C104   C     0.68974   0.95010   0.98287   0.00000  Uiso   1.00
C105   C     0.53229   0.03948   0.01099   0.00000  Uiso   1.00
C106   C     0.89081   0.95494   0.81424   0.00000  Uiso   1.00
C107   C     0.00020   0.98790   0.84188   0.00000  Uiso   1.00
C108   C     0.06512   0.07634   0.81934   0.00000  Uiso   1.00
C109   C     0.16230   0.09269   0.85119   0.00000  Uiso   1.00
C110   C     0.89890   0.82828   0.79570   0.00000  Uiso   1.00
C111   C     0.87863   0.78252   0.73433   0.00000  Uiso   1.00
C112   C     0.89052   0.66450   0.72730   0.00000  Uiso   1.00
C113   C     0.81248   0.96077   0.87136   0.00000  Uiso   1.00
C114   C     0.71954   0.02638   0.87361   0.00000  Uiso   1.00
C115   C     0.65865   0.01987   0.93028   0.00000  Uiso   1.00
H116   H     0.97211   0.77249   0.95175   0.00000  Uiso   1.00
H117   H     0.15233   0.88055   0.96688   0.00000  Uiso   1.00
H118   H     0.96585   0.58677   0.88188   0.00000  Uiso   1.00
H119   H     0.80679   0.83060   0.02114   0.00000  Uiso   1.00
H120   H     0.33847   0.03104   0.96048   0.00000  Uiso   1.00
H121   H     0.94525   0.41160   0.78128   0.00000  Uiso   1.00
H122   H     0.60982   0.92574   0.07493   0.00000  Uiso   1.00
H123   H     0.86664   0.00917   0.77337   0.00000  Uiso   1.00
H124   H     0.04108   0.13022   0.77871   0.00000  Uiso   1.00
H125   H     0.85461   0.83644   0.69372   0.00000  Uiso   1.00
H126   H     0.69555   0.08027   0.83298   0.00000  Uiso   1.00
H127   H     0.24818   0.23368   0.80776   0.00000  Uiso   1.00
H128   H     0.85495   0.61423   0.62856   0.00000  Uiso   1.00
H129   H     0.51953   0.12838   0.92221   0.00000  Uiso   1.00
O130   O     0.41000   0.20770   0.89084   0.00000  Uiso   1.00
O131   O     0.89408   0.39501   0.65574   0.00000  Uiso   1.00
O132   O     0.45402   0.06956   0.04101   0.00000  Uiso   1.00
N133   N     0.29327   0.06213   0.92382   0.00000  Uiso   1.00
N134   N     0.92565   0.48299   0.75627   0.00000  Uiso   1.00
N135   N     0.61204   0.96365   0.03080   0.00000  Uiso   1.00
N136   N     0.24469   0.17117   0.84164   0.00000  Uiso   1.00
N137   N     0.87706   0.59203   0.67409   0.00000  Uiso   1.00
N138   N     0.56345   0.07269   0.94863   0.00000  Uiso   1.00
C139   C     0.05205   0.17328   0.41088   0.00000  Uiso   1.00
C140   C     0.96876   0.08174   0.39437   0.00000  Uiso   1.00
C141   C     0.87166   0.06553   0.42626   0.00000  Uiso   1.00
C142   C     0.80661   0.97709   0.40377   0.00000  Uiso   1.00
C143   C     0.67254   0.84559   0.38610   0.00000  Uiso   1.00
C144   C     0.07007   0.24136   0.34819   0.00000  Uiso   1.00
C145   C     0.05815   0.35935   0.34125   0.00000  Uiso   1.00
C146   C     0.07839   0.40528   0.27989   0.00000  Uiso   1.00
C147   C     0.10167   0.52159   0.19053   0.00000  Uiso   1.00
C148   C     0.15648   0.10888   0.42386   0.00000  Uiso   1.00
C149   C     0.21725   0.11550   0.48053   0.00000  Uiso   1.00
C150   C     0.31026   0.04990   0.48287   0.00000  Uiso   1.00
C151   C     0.46771   0.96052   0.51099   0.00000  Uiso   1.00
C152   C     0.10919   0.04506   0.31424   0.00000  Uiso   1.00
C153   C     0.99980   0.01210   0.34188   0.00000  Uiso   1.00
C154   C     0.93488   0.92366   0.31934   0.00000  Uiso   1.00
C155   C     0.83770   0.90731   0.35119   0.00000  Uiso   1.00
C156   C     0.10110   0.17172   0.29570   0.00000  Uiso   1.00
C157   C     0.12137   0.21748   0.23433   0.00000  Uiso   1.00
C158   C     0.10948   0.33550   0.22730   0.00000  Uiso   1.00
C159   C     0.18752   0.03923   0.37136   0.00000  Uiso   1.00
C160   C     0.28046   0.97362   0.37361   0.00000  Uiso   1.00
C161   C     0.34135   0.98013   0.43028   0.00000  Uiso   1.00
H162   H     0.02789   0.22751   0.45175   0.00000  Uiso   1.00
H163   H     0.84767   0.11945   0.46688   0.00000  Uiso   1.00
H164   H     0.03415   0.41323   0.38188   0.00000  Uiso   1.00
H165   H     0.19321   0.16940   0.52114   0.00000  Uiso   1.00
H166   H     0.66153   0.96896   0.46048   0.00000  Uiso   1.00
H167   H     0.05475   0.58840   0.28128   0.00000  Uiso   1.00
H168   H     0.39018   0.07426   0.57493   0.00000  Uiso   1.00
H169   H     0.13336   0.99083   0.27337   0.00000  Uiso   1.00
H170   H     0.95892   0.86978   0.27871   0.00000  Uiso   1.00
H171   H     0.14539   0.16356   0.19372   0.00000  Uiso   1.00
H172   H     0.30445   0.91973   0.33298   0.00000  Uiso   1.00
H173   H     0.75182   0.76632   0.30776   0.00000  Uiso   1.00
H174   H     0.14505   0.38577   0.12856   0.00000  Uiso   1.00
H175   H     0.48047   0.87162   0.42221   0.00000  Uiso   1.00
O176   O     0.59000   0.79230   0.39084   0.00000  Uiso   1.00
O177   O     0.10592   0.60499   0.15574   0.00000  Uiso   1.00
O178   O     0.54598   0.93044   0.54101   0.00000  Uiso   1.00
N179   N     0.70673   0.93787   0.42382   0.00000  Uiso   1.00
N180   N     0.07435   0.51701   0.25627   0.00000  Uiso   1.00
N181   N     0.38796   0.03635   0.53080   0.00000  Uiso   1.00
N182   N     0.75531   0.82883   0.34164   0.00000  Uiso   1.00
N183   N     0.12294   0.40797   0.17409   0.00000  Uiso   1.00
N184   N     0.43655   0.92731   0.44863   0.00000  Uiso   1.00
