data_job_05656
_audit_creation_date              2018-12-19
_audit_creation_method            'Materials Studio'
_symmetry_space_group_name_H-M    'P1'
_symmetry_Int_Tables_number       1
_symmetry_cell_setting            triclinic
loop_
_symmetry_equiv_pos_as_xyz
  x,y,z
_cell_length_a                    17.7389
_cell_length_b                    9.5705
_cell_length_c                    17.0471
_cell_angle_alpha                 90.0000
_cell_angle_beta                  114.1587
_cell_angle_gamma                 90.0000
loop_
_atom_site_label
_atom_site_type_symbol
_atom_site_fract_x
_atom_site_fract_y
_atom_site_fract_z
_atom_site_U_iso_or_equiv
_atom_site_adp_type
_atom_site_occupancy
C1     C     0.35711   0.78015   0.88247   0.00000  Uiso   1.00
C2     C     0.28388   0.87992   0.85678   0.00000  Uiso   1.00
C3     C     0.28791   0.02449   0.85351   0.00000  Uiso   1.00
C4     C     0.21396   0.09711   0.82846   0.00000  Uiso   1.00
C5     C     0.11170   0.26262   0.79180   0.00000  Uiso   1.00
C6     C     0.35552   0.69341   0.95682   0.00000  Uiso   1.00
C7     C     0.41979   0.68115   0.03764   0.00000  Uiso   1.00
C8     C     0.40615   0.59675   0.09680   0.00000  Uiso   1.00
C9     C     0.41513   0.47262   0.21543   0.00000  Uiso   1.00
C10    C     0.33703   0.67932   0.80734   0.00000  Uiso   1.00
C11    C     0.38576   0.65518   0.76249   0.00000  Uiso   1.00
C12    C     0.35656   0.55888   0.69580   0.00000  Uiso   1.00
C13    C     0.33684   0.41287   0.58234   0.00000  Uiso   1.00
C14    C     0.21862   0.65203   0.84382   0.00000  Uiso   1.00
C15    C     0.20866   0.81033   0.83579   0.00000  Uiso   1.00
C16    C     0.13469   0.88275   0.81074   0.00000  Uiso   1.00
C17    C     0.13860   0.02740   0.80742   0.00000  Uiso   1.00
C18    C     0.28030   0.62382   0.93583   0.00000  Uiso   1.00
C19    C     0.26657   0.53941   0.99487   0.00000  Uiso   1.00
C20    C     0.33079   0.52704   0.07577   0.00000  Uiso   1.00
C21    C     0.26181   0.60973   0.78634   0.00000  Uiso   1.00
C22    C     0.23253   0.51345   0.71972   0.00000  Uiso   1.00
C23    C     0.28121   0.48917   0.67477   0.00000  Uiso   1.00
H24    H     0.41568   0.83431   0.89883   0.00000  Uiso   1.00
H25    H     0.34614   0.07830   0.86977   0.00000  Uiso   1.00
H26    H     0.47800   0.73500   0.05387   0.00000  Uiso   1.00
H27    H     0.44397   0.70904   0.77876   0.00000  Uiso   1.00
H28    H     0.23587   0.31812   0.82832   0.00000  Uiso   1.00
H29    H     0.51391   0.59422   0.21651   0.00000  Uiso   1.00
H30    H     0.44216   0.53947   0.63637   0.00000  Uiso   1.00
H31    H     0.16006   0.59785   0.82747   0.00000  Uiso   1.00
H32    H     0.07648   0.82887   0.79449   0.00000  Uiso   1.00
H33    H     0.20835   0.48558   0.97860   0.00000  Uiso   1.00
H34    H     0.17432   0.45962   0.70349   0.00000  Uiso   1.00
H35    H     0.01701   0.11568   0.76723   0.00000  Uiso   1.00
H36    H     0.29506   0.39177   0.15542   0.00000  Uiso   1.00
H37    H     0.22330   0.33703   0.57528   0.00000  Uiso   1.00
O38    O     0.07608   0.37314   0.77740   0.00000  Uiso   1.00
O39    O     0.44087   0.42339   0.28667   0.00000  Uiso   1.00
O40    O     0.34673   0.35157   0.52555   0.00000  Uiso   1.00
N41    N     0.19583   0.23877   0.81845   0.00000  Uiso   1.00
N42    N     0.45578   0.56199   0.18139   0.00000  Uiso   1.00
N43    N     0.38871   0.51078   0.63903   0.00000  Uiso   1.00
N44    N     0.07806   0.12984   0.78558   0.00000  Uiso   1.00
N45    N     0.33801   0.45305   0.14851   0.00000  Uiso   1.00
N46    N     0.27094   0.40184   0.60615   0.00000  Uiso   1.00
C47    C     0.64289   0.28015   0.61753   0.00000  Uiso   1.00
C48    C     0.71612   0.37992   0.64322   0.00000  Uiso   1.00
C49    C     0.71209   0.52449   0.64649   0.00000  Uiso   1.00
C50    C     0.78604   0.59711   0.67154   0.00000  Uiso   1.00
C51    C     0.88830   0.76262   0.70820   0.00000  Uiso   1.00
C52    C     0.64448   0.19341   0.54318   0.00000  Uiso   1.00
C53    C     0.58021   0.18115   0.46236   0.00000  Uiso   1.00
C54    C     0.59385   0.09675   0.40320   0.00000  Uiso   1.00
C55    C     0.58487   0.97262   0.28457   0.00000  Uiso   1.00
C56    C     0.66297   0.17932   0.69266   0.00000  Uiso   1.00
C57    C     0.61424   0.15518   0.73751   0.00000  Uiso   1.00
C58    C     0.64344   0.05888   0.80420   0.00000  Uiso   1.00
C59    C     0.66316   0.91287   0.91766   0.00000  Uiso   1.00
C60    C     0.78138   0.15203   0.65618   0.00000  Uiso   1.00
C61    C     0.79134   0.31033   0.66421   0.00000  Uiso   1.00
C62    C     0.86531   0.38275   0.68926   0.00000  Uiso   1.00
C63    C     0.86140   0.52740   0.69258   0.00000  Uiso   1.00
C64    C     0.71970   0.12382   0.56417   0.00000  Uiso   1.00
C65    C     0.73343   0.03941   0.50513   0.00000  Uiso   1.00
C66    C     0.66921   0.02704   0.42423   0.00000  Uiso   1.00
C67    C     0.73819   0.10973   0.71366   0.00000  Uiso   1.00
C68    C     0.76747   0.01345   0.78028   0.00000  Uiso   1.00
C69    C     0.71879   0.98917   0.82523   0.00000  Uiso   1.00
H70    H     0.58432   0.33431   0.60117   0.00000  Uiso   1.00
H71    H     0.65386   0.57830   0.63023   0.00000  Uiso   1.00
H72    H     0.52200   0.23500   0.44613   0.00000  Uiso   1.00
H73    H     0.55603   0.20904   0.72124   0.00000  Uiso   1.00
H74    H     0.76413   0.81812   0.67168   0.00000  Uiso   1.00
H75    H     0.48609   0.09422   0.28349   0.00000  Uiso   1.00
H76    H     0.55784   0.03947   0.86363   0.00000  Uiso   1.00
H77    H     0.83994   0.09785   0.67253   0.00000  Uiso   1.00
H78    H     0.92352   0.32887   0.70551   0.00000  Uiso   1.00
H79    H     0.79165   0.98558   0.52140   0.00000  Uiso   1.00
H80    H     0.82568   0.95962   0.79651   0.00000  Uiso   1.00
H81    H     0.98299   0.61568   0.73277   0.00000  Uiso   1.00
H82    H     0.70494   0.89177   0.34458   0.00000  Uiso   1.00
H83    H     0.77670   0.83703   0.92472   0.00000  Uiso   1.00
O84    O     0.92392   0.87314   0.72260   0.00000  Uiso   1.00
O85    O     0.55913   0.92339   0.21333   0.00000  Uiso   1.00
O86    O     0.65327   0.85157   0.97445   0.00000  Uiso   1.00
N87    N     0.80417   0.73877   0.68155   0.00000  Uiso   1.00
N88    N     0.54422   0.06199   0.31861   0.00000  Uiso   1.00
N89    N     0.61129   0.01078   0.86097   0.00000  Uiso   1.00
N90    N     0.92194   0.62984   0.71442   0.00000  Uiso   1.00
N91    N     0.66199   0.95305   0.35149   0.00000  Uiso   1.00
N92    N     0.72906   0.90184   0.89385   0.00000  Uiso   1.00
C93    C     0.64289   0.21985   0.11753   0.00000  Uiso   1.00
C94    C     0.71612   0.12008   0.14322   0.00000  Uiso   1.00
C95    C     0.71209   0.97551   0.14649   0.00000  Uiso   1.00
C96    C     0.78604   0.90289   0.17154   0.00000  Uiso   1.00
C97    C     0.88830   0.73738   0.20820   0.00000  Uiso   1.00
C98    C     0.64448   0.30659   0.04318   0.00000  Uiso   1.00
C99    C     0.58021   0.31885   0.96236   0.00000  Uiso   1.00
C100   C     0.59385   0.40325   0.90320   0.00000  Uiso   1.00
C101   C     0.58487   0.52738   0.78457   0.00000  Uiso   1.00
C102   C     0.66297   0.32068   0.19266   0.00000  Uiso   1.00
C103   C     0.61424   0.34482   0.23751   0.00000  Uiso   1.00
C104   C     0.64344   0.44112   0.30420   0.00000  Uiso   1.00
C105   C     0.66316   0.58713   0.41766   0.00000  Uiso   1.00
C106   C     0.78138   0.34797   0.15618   0.00000  Uiso   1.00
C107   C     0.79134   0.18967   0.16421   0.00000  Uiso   1.00
C108   C     0.86531   0.11725   0.18926   0.00000  Uiso   1.00
C109   C     0.86140   0.97260   0.19258   0.00000  Uiso   1.00
C110   C     0.71970   0.37618   0.06417   0.00000  Uiso   1.00
C111   C     0.73343   0.46059   0.00513   0.00000  Uiso   1.00
C112   C     0.66921   0.47296   0.92423   0.00000  Uiso   1.00
C113   C     0.73819   0.39027   0.21366   0.00000  Uiso   1.00
C114   C     0.76747   0.48655   0.28028   0.00000  Uiso   1.00
C115   C     0.71879   0.51083   0.32523   0.00000  Uiso   1.00
H116   H     0.58432   0.16569   0.10117   0.00000  Uiso   1.00
H117   H     0.65386   0.92170   0.13023   0.00000  Uiso   1.00
H118   H     0.52200   0.26500   0.94613   0.00000  Uiso   1.00
H119   H     0.55603   0.29096   0.22124   0.00000  Uiso   1.00
H120   H     0.76413   0.68188   0.17168   0.00000  Uiso   1.00
H121   H     0.48609   0.40578   0.78349   0.00000  Uiso   1.00
H122   H     0.55784   0.46053   0.36363   0.00000  Uiso   1.00
H123   H     0.83994   0.40215   0.17253   0.00000  Uiso   1.00
H124   H     0.92352   0.17113   0.20551   0.00000  Uiso   1.00
H125   H     0.79165   0.51442   0.02140   0.00000  Uiso   1.00
H126   H     0.82568   0.54038   0.29651   0.00000  Uiso   1.00
H127   H     0.98299   0.88432   0.23277   0.00000  Uiso   1.00
H128   H     0.70494   0.60823   0.84458   0.00000  Uiso   1.00
H129   H     0.77670   0.66297   0.42472   0.00000  Uiso   1.00
O130   O     0.92392   0.62686   0.22260   0.00000  Uiso   1.00
O131   O     0.55913   0.57661   0.71333   0.00000  Uiso   1.00
O132   O     0.65327   0.64843   0.47445   0.00000  Uiso   1.00
N133   N     0.80417   0.76123   0.18155   0.00000  Uiso   1.00
N134   N     0.54422   0.43801   0.81861   0.00000  Uiso   1.00
N135   N     0.61129   0.48922   0.36097   0.00000  Uiso   1.00
N136   N     0.92194   0.87016   0.21442   0.00000  Uiso   1.00
N137   N     0.66199   0.54695   0.85149   0.00000  Uiso   1.00
N138   N     0.72906   0.59816   0.39385   0.00000  Uiso   1.00
C139   C     0.35711   0.71985   0.38247   0.00000  Uiso   1.00
C140   C     0.28388   0.62008   0.35678   0.00000  Uiso   1.00
C141   C     0.28791   0.47551   0.35351   0.00000  Uiso   1.00
C142   C     0.21396   0.40289   0.32846   0.00000  Uiso   1.00
C143   C     0.11170   0.23738   0.29180   0.00000  Uiso   1.00
C144   C     0.35552   0.80659   0.45682   0.00000  Uiso   1.00
C145   C     0.41979   0.81885   0.53764   0.00000  Uiso   1.00
C146   C     0.40615   0.90325   0.59680   0.00000  Uiso   1.00
C147   C     0.41513   0.02738   0.71543   0.00000  Uiso   1.00
C148   C     0.33703   0.82068   0.30734   0.00000  Uiso   1.00
C149   C     0.38576   0.84482   0.26249   0.00000  Uiso   1.00
C150   C     0.35656   0.94112   0.19580   0.00000  Uiso   1.00
C151   C     0.33684   0.08713   0.08234   0.00000  Uiso   1.00
C152   C     0.21862   0.84797   0.34382   0.00000  Uiso   1.00
C153   C     0.20866   0.68967   0.33579   0.00000  Uiso   1.00
C154   C     0.13469   0.61725   0.31074   0.00000  Uiso   1.00
C155   C     0.13860   0.47260   0.30742   0.00000  Uiso   1.00
C156   C     0.28030   0.87618   0.43583   0.00000  Uiso   1.00
C157   C     0.26657   0.96059   0.49487   0.00000  Uiso   1.00
C158   C     0.33079   0.97296   0.57577   0.00000  Uiso   1.00
C159   C     0.26181   0.89027   0.28634   0.00000  Uiso   1.00
C160   C     0.23253   0.98655   0.21972   0.00000  Uiso   1.00
C161   C     0.28121   0.01083   0.17477   0.00000  Uiso   1.00
H162   H     0.41568   0.66569   0.39883   0.00000  Uiso   1.00
H163   H     0.34614   0.42170   0.36977   0.00000  Uiso   1.00
H164   H     0.47800   0.76500   0.55387   0.00000  Uiso   1.00
H165   H     0.44397   0.79096   0.27876   0.00000  Uiso   1.00
H166   H     0.23587   0.18188   0.32832   0.00000  Uiso   1.00
H167   H     0.51391   0.90578   0.71651   0.00000  Uiso   1.00
H168   H     0.44216   0.96053   0.13637   0.00000  Uiso   1.00
H169   H     0.16006   0.90215   0.32747   0.00000  Uiso   1.00
H170   H     0.07648   0.67113   0.29449   0.00000  Uiso   1.00
H171   H     0.20835   0.01442   0.47860   0.00000  Uiso   1.00
H172   H     0.17432   0.04038   0.20349   0.00000  Uiso   1.00
H173   H     0.01701   0.38432   0.26723   0.00000  Uiso   1.00
H174   H     0.29506   0.10823   0.65542   0.00000  Uiso   1.00
H175   H     0.22330   0.16297   0.07528   0.00000  Uiso   1.00
O176   O     0.07608   0.12686   0.27740   0.00000  Uiso   1.00
O177   O     0.44087   0.07661   0.78667   0.00000  Uiso   1.00
O178   O     0.34673   0.14843   0.02555   0.00000  Uiso   1.00
N179   N     0.19583   0.26123   0.31845   0.00000  Uiso   1.00
N180   N     0.45578   0.93801   0.68139   0.00000  Uiso   1.00
N181   N     0.38871   0.98922   0.13903   0.00000  Uiso   1.00
N182   N     0.07806   0.37016   0.28558   0.00000  Uiso   1.00
N183   N     0.33801   0.04695   0.64851   0.00000  Uiso   1.00
N184   N     0.27094   0.09816   0.10615   0.00000  Uiso   1.00
