data_job_06585
_audit_creation_date              2018-12-19
_audit_creation_method            'Materials Studio'
_symmetry_space_group_name_H-M    'P1'
_symmetry_Int_Tables_number       1
_symmetry_cell_setting            triclinic
loop_
_symmetry_equiv_pos_as_xyz
  x,y,z
_cell_length_a                    21.2694
_cell_length_b                    21.8057
_cell_length_c                    19.2605
_cell_angle_alpha                 99.0585
_cell_angle_beta                  101.0720
_cell_angle_gamma                 67.7718
loop_
_atom_site_label
_atom_site_type_symbol
_atom_site_fract_x
_atom_site_fract_y
_atom_site_fract_z
_atom_site_U_iso_or_equiv
_atom_site_adp_type
_atom_site_occupancy
C1     C     0.37835   0.64520   0.21912   0.00000  Uiso   1.00
C2     C     0.42708   0.58775   0.26153   0.00000  Uiso   1.00
C3     C     0.42035   0.57618   0.32806   0.00000  Uiso   1.00
C4     C     0.47032   0.52093   0.35798   0.00000  Uiso   1.00
C5     C     0.53768   0.43815   0.42923   0.00000  Uiso   1.00
C6     C     0.42240   0.68123   0.20350   0.00000  Uiso   1.00
C7     C     0.41174   0.74825   0.22124   0.00000  Uiso   1.00
C8     C     0.45778   0.77170   0.20230   0.00000  Uiso   1.00
C9     C     0.51785   0.83406   0.18342   0.00000  Uiso   1.00
C10    C     0.35459   0.61349   0.14766   0.00000  Uiso   1.00
C11    C     0.28690   0.62357   0.11844   0.00000  Uiso   1.00
C12    C     0.27584   0.58999   0.05249   0.00000  Uiso   1.00
C13    C     0.23061   0.54717   0.94691   0.00000  Uiso   1.00
C14    C     0.47906   0.56766   0.15394   0.00000  Uiso   1.00
C15    C     0.48178   0.54563   0.22612   0.00000  Uiso   1.00
C16    C     0.53177   0.49039   0.25595   0.00000  Uiso   1.00
C17    C     0.52512   0.47874   0.32252   0.00000  Uiso   1.00
C18    C     0.47711   0.63911   0.16810   0.00000  Uiso   1.00
C19    C     0.52317   0.66246   0.14913   0.00000  Uiso   1.00
C20    C     0.51258   0.72951   0.16683   0.00000  Uiso   1.00
C21    C     0.40929   0.57137   0.11226   0.00000  Uiso   1.00
C22    C     0.39833   0.53777   0.04633   0.00000  Uiso   1.00
C23    C     0.33064   0.54780   0.01702   0.00000  Uiso   1.00
H24    H     0.33576   0.67799   0.24668   0.00000  Uiso   1.00
H25    H     0.37801   0.60879   0.35544   0.00000  Uiso   1.00
H26    H     0.36940   0.78084   0.24863   0.00000  Uiso   1.00
H27    H     0.24458   0.65617   0.14585   0.00000  Uiso   1.00
H28    H     0.44898   0.51350   0.46043   0.00000  Uiso   1.00
H29    H     0.43082   0.87628   0.23518   0.00000  Uiso   1.00
H30    H     0.16761   0.61339   0.01846   0.00000  Uiso   1.00
H31    H     0.52165   0.53487   0.12637   0.00000  Uiso   1.00
H32    H     0.57410   0.45780   0.22854   0.00000  Uiso   1.00
H33    H     0.56549   0.62986   0.12173   0.00000  Uiso   1.00
H34    H     0.44067   0.50519   0.01895   0.00000  Uiso   1.00
H35    H     0.60814   0.39096   0.35743   0.00000  Uiso   1.00
H36    H     0.58997   0.75374   0.13218   0.00000  Uiso   1.00
H37    H     0.32677   0.49085   0.91546   0.00000  Uiso   1.00
O38    O     0.55972   0.40413   0.47832   0.00000  Uiso   1.00
O39    O     0.53588   0.88009   0.18279   0.00000  Uiso   1.00
O40    O     0.19056   0.53518   0.89846   0.00000  Uiso   1.00
N41    N     0.47924   0.49523   0.42216   0.00000  Uiso   1.00
N42    N     0.46226   0.83441   0.21158   0.00000  Uiso   1.00
N43    N     0.21618   0.58864   0.00895   0.00000  Uiso   1.00
N44    N     0.56488   0.42929   0.36674   0.00000  Uiso   1.00
N45    N     0.54790   0.76847   0.15616   0.00000  Uiso   1.00
N46    N     0.30182   0.52270   0.95353   0.00000  Uiso   1.00
C47    C     0.28387   0.38790   0.59588   0.00000  Uiso   1.00
C48    C     0.27871   0.40561   0.52097   0.00000  Uiso   1.00
C49    C     0.33213   0.38457   0.48097   0.00000  Uiso   1.00
C50    C     0.31695   0.40623   0.41360   0.00000  Uiso   1.00
C51    C     0.31902   0.42749   0.30130   0.00000  Uiso   1.00
C52    C     0.25894   0.45392   0.64139   0.00000  Uiso   1.00
C53    C     0.29575   0.47349   0.70263   0.00000  Uiso   1.00
C54    C     0.26393   0.53581   0.73663   0.00000  Uiso   1.00
C55    C     0.23529   0.63205   0.81131   0.00000  Uiso   1.00
C56    C     0.23039   0.35617   0.59205   0.00000  Uiso   1.00
C57    C     0.24319   0.29355   0.61183   0.00000  Uiso   1.00
C58    C     0.18733   0.27358   0.60431   0.00000  Uiso   1.00
C59    C     0.11437   0.21804   0.60238   0.00000  Uiso   1.00
C60    C     0.16191   0.46377   0.54737   0.00000  Uiso   1.00
C61    C     0.21246   0.44682   0.49462   0.00000  Uiso   1.00
C62    C     0.19720   0.46851   0.42730   0.00000  Uiso   1.00
C63    C     0.25059   0.44751   0.38720   0.00000  Uiso   1.00
C64    C     0.19270   0.49513   0.61504   0.00000  Uiso   1.00
C65    C     0.16082   0.55743   0.64896   0.00000  Uiso   1.00
C66    C     0.19757   0.57710   0.71024   0.00000  Uiso   1.00
C67    C     0.16415   0.39737   0.56570   0.00000  Uiso   1.00
C68    C     0.10826   0.37749   0.55815   0.00000  Uiso   1.00
C69    C     0.12097   0.31486   0.57791   0.00000  Uiso   1.00
H70    H     0.33544   0.35582   0.61640   0.00000  Uiso   1.00
H71    H     0.38339   0.35269   0.50138   0.00000  Uiso   1.00
H72    H     0.34701   0.44159   0.72301   0.00000  Uiso   1.00
H73    H     0.29446   0.26168   0.63222   0.00000  Uiso   1.00
H74    H     0.40734   0.36741   0.36225   0.00000  Uiso   1.00
H75    H     0.33062   0.55485   0.82959   0.00000  Uiso   1.00
H76    H     0.21981   0.17548   0.63813   0.00000  Uiso   1.00
H77    H     0.11034   0.49585   0.52686   0.00000  Uiso   1.00
H78    H     0.14593   0.50040   0.40692   0.00000  Uiso   1.00
H79    H     0.10955   0.58930   0.62856   0.00000  Uiso   1.00
H80    H     0.05700   0.40939   0.53776   0.00000  Uiso   1.00
H81    H     0.21461   0.48730   0.28559   0.00000  Uiso   1.00
H82    H     0.13789   0.67474   0.75293   0.00000  Uiso   1.00
H83    H     0.02708   0.29537   0.56147   0.00000  Uiso   1.00
O84    O     0.33846   0.42784   0.24665   0.00000  Uiso   1.00
O85    O     0.23780   0.67375   0.85978   0.00000  Uiso   1.00
O86    O     0.09242   0.17602   0.60859   0.00000  Uiso   1.00
N87    N     0.35709   0.39499   0.36066   0.00000  Uiso   1.00
N88    N     0.28537   0.57024   0.79759   0.00000  Uiso   1.00
N89    N     0.18177   0.21556   0.61861   0.00000  Uiso   1.00
N90    N     0.25339   0.45950   0.31941   0.00000  Uiso   1.00
N91    N     0.18166   0.63476   0.75633   0.00000  Uiso   1.00
N92    N     0.07806   0.28008   0.57736   0.00000  Uiso   1.00
C93    C     0.57217   0.15931   0.47951   0.00000  Uiso   1.00
C94    C     0.53678   0.14687   0.53476   0.00000  Uiso   1.00
C95    C     0.49230   0.19556   0.57631   0.00000  Uiso   1.00
C96    C     0.46528   0.17400   0.62375   0.00000  Uiso   1.00
C97    C     0.40779   0.16500   0.70871   0.00000  Uiso   1.00
C98    C     0.64889   0.12312   0.50091   0.00000  Uiso   1.00
C99    C     0.69867   0.15183   0.51400   0.00000  Uiso   1.00
C100   C     0.76603   0.11027   0.53295   0.00000  Uiso   1.00
C101   C     0.88260   0.06439   0.56531   0.00000  Uiso   1.00
C102   C     0.55215   0.12237   0.40995   0.00000  Uiso   1.00
C103   C     0.52061   0.15045   0.34655   0.00000  Uiso   1.00
C104   C     0.50653   0.10826   0.28891   0.00000  Uiso   1.00
C105   C     0.47290   0.06123   0.18004   0.00000  Uiso   1.00
C106   C     0.60326   0.03445   0.48986   0.00000  Uiso   1.00
C107   C     0.55367   0.07905   0.54038   0.00000  Uiso   1.00
C108   C     0.52671   0.05742   0.58777   0.00000  Uiso   1.00
C109   C     0.48220   0.10606   0.62938   0.00000  Uiso   1.00
C110   C     0.66578   0.05530   0.50654   0.00000  Uiso   1.00
C111   C     0.73308   0.01369   0.52546   0.00000  Uiso   1.00
C112   C     0.78295   0.04233   0.53858   0.00000  Uiso   1.00
C113   C     0.56904   0.05456   0.41558   0.00000  Uiso   1.00
C114   C     0.55501   0.01231   0.35801   0.00000  Uiso   1.00
C115   C     0.52345   0.04032   0.29454   0.00000  Uiso   1.00
H116   H     0.55902   0.21211   0.47513   0.00000  Uiso   1.00
H117   H     0.47925   0.24803   0.57195   0.00000  Uiso   1.00
H118   H     0.68559   0.20431   0.50964   0.00000  Uiso   1.00
H119   H     0.50755   0.20294   0.34222   0.00000  Uiso   1.00
H120   H     0.39827   0.25796   0.68179   0.00000  Uiso   1.00
H121   H     0.83335   0.16577   0.55039   0.00000  Uiso   1.00
H122   H     0.45793   0.16286   0.19735   0.00000  Uiso   1.00
H123   H     0.61642   0.98165   0.49424   0.00000  Uiso   1.00
H124   H     0.53979   0.00493   0.59211   0.00000  Uiso   1.00
H125   H     0.74613   0.96121   0.52981   0.00000  Uiso   1.00
H126   H     0.56809   0.95984   0.36238   0.00000  Uiso   1.00
H127   H     0.44741   0.06065   0.69815   0.00000  Uiso   1.00
H128   H     0.88250   0.96846   0.56675   0.00000  Uiso   1.00
H129   H     0.50707   0.96555   0.21371   0.00000  Uiso   1.00
O130   O     0.37142   0.17878   0.75402   0.00000  Uiso   1.00
O131   O     0.94223   0.05782   0.58162   0.00000  Uiso   1.00
O132   O     0.44967   0.05402   0.11844   0.00000  Uiso   1.00
N133   N     0.42034   0.20833   0.67220   0.00000  Uiso   1.00
N134   N     0.82712   0.12213   0.54936   0.00000  Uiso   1.00
N135   N     0.47614   0.11942   0.21929   0.00000  Uiso   1.00
N136   N     0.44678   0.10216   0.68100   0.00000  Uiso   1.00
N137   N     0.85356   0.01596   0.55817   0.00000  Uiso   1.00
N138   N     0.50258   0.01325   0.22810   0.00000  Uiso   1.00
C139   C     0.96332   0.69485   0.09351   0.00000  Uiso   1.00
C140   C     0.98278   0.68024   0.01885   0.00000  Uiso   1.00
C141   C     0.96032   0.72515   0.96773   0.00000  Uiso   1.00
C142   C     0.98399   0.70214   0.90269   0.00000  Uiso   1.00
C143   C     0.00746   0.68945   0.78880   0.00000  Uiso   1.00
C144   C     0.03077   0.67792   0.14431   0.00000  Uiso   1.00
C145   C     0.04864   0.72088   0.19867   0.00000  Uiso   1.00
C146   C     0.11271   0.69591   0.23925   0.00000  Uiso   1.00
C147   C     0.21066   0.67960   0.32017   0.00000  Uiso   1.00
C148   C     0.93261   0.64364   0.10053   0.00000  Uiso   1.00
C149   C     0.86795   0.65777   0.11811   0.00000  Uiso   1.00
C150   C     0.84938   0.60393   0.12185   0.00000  Uiso   1.00
C151   C     0.79492   0.53440   0.13481   0.00000  Uiso   1.00
C152   C     0.04532   0.57411   0.06892   0.00000  Uiso   1.00
C153   C     0.02732   0.61466   0.00550   0.00000  Uiso   1.00
C154   C     0.05103   0.59157   0.94052   0.00000  Uiso   1.00
C155   C     0.02860   0.63644   0.88931   0.00000  Uiso   1.00
C156   C     0.07531   0.61235   0.13095   0.00000  Uiso   1.00
C157   C     0.13936   0.58730   0.17147   0.00000  Uiso   1.00
C158   C     0.15733   0.63021   0.22587   0.00000  Uiso   1.00
C159   C     0.97714   0.57806   0.08718   0.00000  Uiso   1.00
C160   C     0.95867   0.52419   0.09090   0.00000  Uiso   1.00
C161   C     0.89400   0.53824   0.10847   0.00000  Uiso   1.00
H162   H     0.92866   0.74590   0.10392   0.00000  Uiso   1.00
H163   H     0.92586   0.77590   0.97808   0.00000  Uiso   1.00
H164   H     0.01417   0.77163   0.20900   0.00000  Uiso   1.00
H165   H     0.83351   0.70852   0.12844   0.00000  Uiso   1.00
H166   H     0.94242   0.78025   0.83270   0.00000  Uiso   1.00
H167   H     0.12861   0.77123   0.31961   0.00000  Uiso   1.00
H168   H     0.74765   0.63816   0.14975   0.00000  Uiso   1.00
H169   H     0.07999   0.52305   0.05853   0.00000  Uiso   1.00
H170   H     0.08550   0.54082   0.93020   0.00000  Uiso   1.00
H171   H     0.17381   0.53655   0.16112   0.00000  Uiso   1.00
H172   H     0.99315   0.47345   0.08056   0.00000  Uiso   1.00
H173   H     0.07199   0.58945   0.79383   0.00000  Uiso   1.00
H174   H     0.25818   0.58043   0.28075   0.00000  Uiso   1.00
H175   H     0.87722   0.44737   0.11088   0.00000  Uiso   1.00
O176   O     0.00811   0.70056   0.72967   0.00000  Uiso   1.00
O177   O     0.25239   0.68873   0.36849   0.00000  Uiso   1.00
O178   O     0.75258   0.51416   0.14563   0.00000  Uiso   1.00
N179   N     0.97214   0.73290   0.84115   0.00000  Uiso   1.00
N180   N     0.14623   0.72447   0.29638   0.00000  Uiso   1.00
N181   N     0.79007   0.60007   0.13759   0.00000  Uiso   1.00
N182   N     0.04186   0.63023   0.82024   0.00000  Uiso   1.00
N183   N     0.21595   0.62181   0.27547   0.00000  Uiso   1.00
N184   N     0.85979   0.49740   0.11668   0.00000  Uiso   1.00
C185   C     0.74748   0.99123   0.00177   0.00000  Uiso   1.00
C186   C     0.73192   0.95402   0.05307   0.00000  Uiso   1.00
C187   C     0.78031   0.90714   0.09582   0.00000  Uiso   1.00
C188   C     0.75570   0.87874   0.13909   0.00000  Uiso   1.00
C189   C     0.74227   0.81825   0.21870   0.00000  Uiso   1.00
C190   C     0.71227   0.06507   0.02363   0.00000  Uiso   1.00
C191   C     0.74414   0.11155   0.04162   0.00000  Uiso   1.00
C192   C     0.70298   0.17664   0.06009   0.00000  Uiso   1.00
C193   C     0.65904   0.28856   0.09395   0.00000  Uiso   1.00
C194   C     0.70931   0.97719   0.92917   0.00000  Uiso   1.00
C195   C     0.73867   0.94981   0.86774   0.00000  Uiso   1.00
C196   C     0.69501   0.94092   0.80669   0.00000  Uiso   1.00
C197   C     0.64646   0.91640   0.69389   0.00000  Uiso   1.00
C198   C     0.61771   0.02416   0.00258   0.00000  Uiso   1.00
C199   C     0.66144   0.97191   0.05351   0.00000  Uiso   1.00
C200   C     0.63674   0.94357   0.09672   0.00000  Uiso   1.00
C201   C     0.68509   0.89665   0.13953   0.00000  Uiso   1.00
C202   C     0.64179   0.08295   0.02407   0.00000  Uiso   1.00
C203   C     0.60057   0.14798   0.04252   0.00000  Uiso   1.00
C204   C     0.63237   0.19455   0.06054   0.00000  Uiso   1.00
C205   C     0.63882   0.99507   0.92961   0.00000  Uiso   1.00
C206   C     0.59510   0.98623   0.86864   0.00000  Uiso   1.00
C207   C     0.62440   0.95883   0.80713   0.00000  Uiso   1.00
H208   H     0.80235   0.97732   0.00142   0.00000  Uiso   1.00
H209   H     0.83486   0.89332   0.09547   0.00000  Uiso   1.00
H210   H     0.79869   0.09770   0.04126   0.00000  Uiso   1.00
H211   H     0.79322   0.93597   0.86742   0.00000  Uiso   1.00
H212   H     0.83981   0.80809   0.19995   0.00000  Uiso   1.00
H213   H     0.76354   0.23905   0.08563   0.00000  Uiso   1.00
H214   H     0.75201   0.89802   0.71904   0.00000  Uiso   1.00
H215   H     0.56283   0.03809   0.00293   0.00000  Uiso   1.00
H216   H     0.58219   0.95742   0.09705   0.00000  Uiso   1.00
H217   H     0.54603   0.16180   0.04285   0.00000  Uiso   1.00
H218   H     0.54056   0.00008   0.86900   0.00000  Uiso   1.00
H219   H     0.63474   0.86012   0.20124   0.00000  Uiso   1.00
H220   H     0.55847   0.29108   0.08692   0.00000  Uiso   1.00
H221   H     0.54694   0.95005   0.72033   0.00000  Uiso   1.00
O222   O     0.75433   0.77996   0.26250   0.00000  Uiso   1.00
O223   O     0.65428   0.34536   0.11251   0.00000  Uiso   1.00
O224   O     0.63915   0.89793   0.63155   0.00000  Uiso   1.00
N225   N     0.78889   0.83140   0.18732   0.00000  Uiso   1.00
N226   N     0.71759   0.23432   0.08046   0.00000  Uiso   1.00
N227   N     0.70681   0.91550   0.73772   0.00000  Uiso   1.00
N228   N     0.67854   0.85939   0.18802   0.00000  Uiso   1.00
N229   N     0.60724   0.26231   0.08115   0.00000  Uiso   1.00
N230   N     0.59646   0.94349   0.73841   0.00000  Uiso   1.00
C231   C     0.21622   0.80962   0.71507   0.00000  Uiso   1.00
C232   C     0.15448   0.85642   0.74993   0.00000  Uiso   1.00
C233   C     0.14017   0.85100   0.81554   0.00000  Uiso   1.00
C234   C     0.08116   0.89880   0.83809   0.00000  Uiso   1.00
C235   C     0.99187   0.96369   0.89856   0.00000  Uiso   1.00
C236   C     0.25272   0.85329   0.70006   0.00000  Uiso   1.00
C237   C     0.32102   0.84521   0.72373   0.00000  Uiso   1.00
C238   C     0.34470   0.89037   0.70429   0.00000  Uiso   1.00
C239   C     0.40795   0.95035   0.68729   0.00000  Uiso   1.00
C240   C     0.18707   0.78395   0.64271   0.00000  Uiso   1.00
C241   C     0.20017   0.71757   0.61816   0.00000  Uiso   1.00
C242   C     0.16859   0.70436   0.55042   0.00000  Uiso   1.00
C243   C     0.12990   0.65668   0.44438   0.00000  Uiso   1.00
C244   C     0.13686   0.90417   0.63842   0.00000  Uiso   1.00
C245   C     0.11138   0.90778   0.70829   0.00000  Uiso   1.00
C246   C     0.05237   0.95561   0.73074   0.00000  Uiso   1.00
C247   C     0.03797   0.95025   0.79638   0.00000  Uiso   1.00
C248   C     0.20962   0.90464   0.65843   0.00000  Uiso   1.00
C249   C     0.23321   0.94982   0.63893   0.00000  Uiso   1.00
C250   C     0.30152   0.94182   0.66258   0.00000  Uiso   1.00
C251   C     0.14396   0.83531   0.60108   0.00000  Uiso   1.00
C252   C     0.11236   0.82219   0.53336   0.00000  Uiso   1.00
C253   C     0.12541   0.75581   0.50871   0.00000  Uiso   1.00
H254   H     0.24978   0.76964   0.74748   0.00000  Uiso   1.00
H255   H     0.17355   0.81125   0.84775   0.00000  Uiso   1.00
H256   H     0.35436   0.80546   0.75594   0.00000  Uiso   1.00
H257   H     0.23353   0.67785   0.65039   0.00000  Uiso   1.00
H258   H     0.07003   0.88004   0.94056   0.00000  Uiso   1.00
H259   H     0.45129   0.86783   0.74697   0.00000  Uiso   1.00
H260   H     0.19650   0.59872   0.52438   0.00000  Uiso   1.00
H261   H     0.10330   0.94416   0.60601   0.00000  Uiso   1.00
H262   H     0.01902   0.99535   0.69852   0.00000  Uiso   1.00
H263   H     0.19984   0.98956   0.60671   0.00000  Uiso   1.00
H264   H     0.07901   0.86194   0.50116   0.00000  Uiso   1.00
H265   H     0.94461   0.02947   0.81944   0.00000  Uiso   1.00
H266   H     0.32588   0.01724   0.62585   0.00000  Uiso   1.00
H267   H     0.07109   0.74814   0.40326   0.00000  Uiso   1.00
O268   O     0.95454   0.98529   0.94342   0.00000  Uiso   1.00
O269   O     0.45474   0.96925   0.68942   0.00000  Uiso   1.00
O270   O     0.12046   0.61620   0.39740   0.00000  Uiso   1.00
N271   N     0.05207   0.90818   0.89935   0.00000  Uiso   1.00
N272   N     0.40853   0.89676   0.71837   0.00000  Uiso   1.00
N273   N     0.17034   0.64517   0.51026   0.00000  Uiso   1.00
N274   N     0.98459   0.98858   0.83418   0.00000  Uiso   1.00
N275   N     0.34104   0.97716   0.65319   0.00000  Uiso   1.00
N276   N     0.10285   0.72557   0.44509   0.00000  Uiso   1.00
C277   C     0.62419   0.29772   0.80188   0.00000  Uiso   1.00
C278   C     0.57677   0.35806   0.76301   0.00000  Uiso   1.00
C279   C     0.57419   0.36577   0.69223   0.00000  Uiso   1.00
C280   C     0.52726   0.42463   0.66664   0.00000  Uiso   1.00
C281   C     0.46010   0.51081   0.59963   0.00000  Uiso   1.00
C282   C     0.57761   0.27305   0.83186   0.00000  Uiso   1.00
C283   C     0.57575   0.20927   0.81898   0.00000  Uiso   1.00
C284   C     0.52953   0.19657   0.85136   0.00000  Uiso   1.00
C285   C     0.46372   0.15075   0.89129   0.00000  Uiso   1.00
C286   C     0.66423   0.32429   0.86588   0.00000  Uiso   1.00
C287   C     0.73520   0.30358   0.88161   0.00000  Uiso   1.00
C288   C     0.76191   0.33401   0.94264   0.00000  Uiso   1.00
C289   C     0.83059   0.36774   0.03538   0.00000  Uiso   1.00
C290   C     0.54544   0.38855   0.88229   0.00000  Uiso   1.00
C291   C     0.53399   0.40739   0.80668   0.00000  Uiso   1.00
C292   C     0.48705   0.46626   0.78120   0.00000  Uiso   1.00
C293   C     0.48441   0.47406   0.71040   0.00000  Uiso   1.00
C294   C     0.53483   0.32238   0.87553   0.00000  Uiso   1.00
C295   C     0.48861   0.30976   0.90795   0.00000  Uiso   1.00
C296   C     0.48668   0.24599   0.89512   0.00000  Uiso   1.00
C297   C     0.62145   0.37362   0.90955   0.00000  Uiso   1.00
C298   C     0.64806   0.40408   0.97057   0.00000  Uiso   1.00
C299   C     0.71906   0.38343   0.98640   0.00000  Uiso   1.00
H300   H     0.65749   0.25931   0.76788   0.00000  Uiso   1.00
H301   H     0.60730   0.32758   0.65845   0.00000  Uiso   1.00
H302   H     0.60886   0.17111   0.78519   0.00000  Uiso   1.00
H303   H     0.76828   0.26541   0.84780   0.00000  Uiso   1.00
H304   H     0.53276   0.42501   0.55638   0.00000  Uiso   1.00
H305   H     0.53608   0.09508   0.82363   0.00000  Uiso   1.00
H306   H     0.87225   0.29392   0.95567   0.00000  Uiso   1.00
H307   H     0.51213   0.42695   0.91630   0.00000  Uiso   1.00
H308   H     0.45396   0.50443   0.81501   0.00000  Uiso   1.00
H309   H     0.45552   0.34795   0.94174   0.00000  Uiso   1.00
H310   H     0.61494   0.44225   0.00436   0.00000  Uiso   1.00
H311   H     0.40830   0.56855   0.68345   0.00000  Uiso   1.00
H312   H     0.41162   0.23861   0.95070   0.00000  Uiso   1.00
H313   H     0.74779   0.43746   0.08274   0.00000  Uiso   1.00
O314   O     0.43487   0.54471   0.55060   0.00000  Uiso   1.00
O315   O     0.43923   0.11184   0.90123   0.00000  Uiso   1.00
O316   O     0.88028   0.37273   0.07446   0.00000  Uiso   1.00
N317   N     0.51146   0.44817   0.60019   0.00000  Uiso   1.00
N318   N     0.51455   0.13970   0.85004   0.00000  Uiso   1.00
N319   N     0.82885   0.32559   0.97350   0.00000  Uiso   1.00
N320   N     0.44449   0.52541   0.66856   0.00000  Uiso   1.00
N321   N     0.44758   0.21694   0.91842   0.00000  Uiso   1.00
N322   N     0.76188   0.40283   0.04188   0.00000  Uiso   1.00
C323   C     0.79995   0.52408   0.37599   0.00000  Uiso   1.00
C324   C     0.81316   0.50898   0.45325   0.00000  Uiso   1.00
C325   C     0.76422   0.52891   0.49868   0.00000  Uiso   1.00
C326   C     0.78660   0.51007   0.56738   0.00000  Uiso   1.00
C327   C     0.79663   0.49229   0.68393   0.00000  Uiso   1.00
C328   C     0.82513   0.45689   0.33257   0.00000  Uiso   1.00
C329   C     0.78624   0.43303   0.27651   0.00000  Uiso   1.00
C330   C     0.81870   0.37035   0.24361   0.00000  Uiso   1.00
C331   C     0.84733   0.27172   0.17276   0.00000  Uiso   1.00
C332   C     0.84843   0.55916   0.37042   0.00000  Uiso   1.00
C333   C     0.82915   0.62127   0.34617   0.00000  Uiso   1.00
C334   C     0.88124   0.64467   0.34512   0.00000  Uiso   1.00
C335   C     0.94605   0.70482   0.33303   0.00000  Uiso   1.00
C336   C     0.92673   0.45520   0.41723   0.00000  Uiso   1.00
C337   C     0.88203   0.47157   0.47565   0.00000  Uiso   1.00
C338   C     0.90449   0.45270   0.54430   0.00000  Uiso   1.00
C339   C     0.85559   0.47259   0.58982   0.00000  Uiso   1.00
C340   C     0.89399   0.41948   0.35496   0.00000  Uiso   1.00
C341   C     0.92652   0.35682   0.32214   0.00000  Uiso   1.00
C342   C     0.88769   0.33286   0.26605   0.00000  Uiso   1.00
C343   C     0.91730   0.52174   0.39282   0.00000  Uiso   1.00
C344   C     0.96943   0.54505   0.39180   0.00000  Uiso   1.00
C345   C     0.95023   0.60719   0.36756   0.00000  Uiso   1.00
H346   H     0.74633   0.55321   0.35855   0.00000  Uiso   1.00
H347   H     0.71092   0.55786   0.48132   0.00000  Uiso   1.00
H348   H     0.73295   0.46200   0.25919   0.00000  Uiso   1.00
H349   H     0.77585   0.65021   0.32884   0.00000  Uiso   1.00
H350   H     0.70203   0.54650   0.62731   0.00000  Uiso   1.00
H351   H     0.74849   0.34438   0.15891   0.00000  Uiso   1.00
H352   H     0.83895   0.74125   0.30577   0.00000  Uiso   1.00
H353   H     0.98035   0.42607   0.43467   0.00000  Uiso   1.00
H354   H     0.95779   0.42374   0.56162   0.00000  Uiso   1.00
H355   H     0.97981   0.32788   0.33948   0.00000  Uiso   1.00
H356   H     0.02271   0.51609   0.40913   0.00000  Uiso   1.00
H357   H     0.90240   0.43764   0.69248   0.00000  Uiso   1.00
H358   H     0.94885   0.23552   0.22407   0.00000  Uiso   1.00
H359   H     0.03931   0.63239   0.37095   0.00000  Uiso   1.00
O360   O     0.78315   0.49281   0.74203   0.00000  Uiso   1.00
O361   O     0.84410   0.22765   0.12749   0.00000  Uiso   1.00
O362   O     0.96278   0.74834   0.32019   0.00000  Uiso   1.00
N363   N     0.75229   0.52121   0.62523   0.00000  Uiso   1.00
N364   N     0.79572   0.33223   0.18731   0.00000  Uiso   1.00
N365   N     0.88030   0.70327   0.32460   0.00000  Uiso   1.00
N366   N     0.86010   0.46263   0.66030   0.00000  Uiso   1.00
N367   N     0.90353   0.27366   0.22238   0.00000  Uiso   1.00
N368   N     0.98811   0.64469   0.35967   0.00000  Uiso   1.00
C369   C     0.49373   0.69275   0.48577   0.00000  Uiso   1.00
C370   C     0.53554   0.70431   0.43647   0.00000  Uiso   1.00
C371   C     0.56333   0.66036   0.38037   0.00000  Uiso   1.00
C372   C     0.59990   0.68015   0.34160   0.00000  Uiso   1.00
C373   C     0.66351   0.68875   0.26247   0.00000  Uiso   1.00
C374   C     0.42563   0.75138   0.48108   0.00000  Uiso   1.00
C375   C     0.36100   0.74700   0.46250   0.00000  Uiso   1.00
C376   C     0.30506   0.80642   0.46130   0.00000  Uiso   1.00
C377   C     0.19803   0.88809   0.45149   0.00000  Uiso   1.00
C378   C     0.53065   0.70022   0.56093   0.00000  Uiso   1.00
C379   C     0.55432   0.65284   0.60951   0.00000  Uiso   1.00
C380   C     0.58678   0.66920   0.67555   0.00000  Uiso   1.00
C381   C     0.64282   0.67144   0.78972   0.00000  Uiso   1.00
C382   C     0.50927   0.80606   0.51668   0.00000  Uiso   1.00
C383   C     0.54398   0.76585   0.45326   0.00000  Uiso   1.00
C384   C     0.58053   0.78572   0.41457   0.00000  Uiso   1.00
C385   C     0.60836   0.74180   0.35842   0.00000  Uiso   1.00
C386   C     0.43407   0.81292   0.49787   0.00000  Uiso   1.00
C387   C     0.37821   0.87236   0.49671   0.00000  Uiso   1.00
C388   C     0.31351   0.86808   0.47812   0.00000  Uiso   1.00
C389   C     0.53910   0.76176   0.57773   0.00000  Uiso   1.00
C390   C     0.57153   0.77820   0.64371   0.00000  Uiso   1.00
C391   C     0.59524   0.73085   0.69237   0.00000  Uiso   1.00
H392   H     0.48715   0.64484   0.47270   0.00000  Uiso   1.00
H393   H     0.55677   0.61274   0.36739   0.00000  Uiso   1.00
H394   H     0.35448   0.69937   0.44952   0.00000  Uiso   1.00
H395   H     0.54778   0.60522   0.59649   0.00000  Uiso   1.00
H396   H     0.63767   0.60430   0.25802   0.00000  Uiso   1.00
H397   H     0.21113   0.78696   0.43122   0.00000  Uiso   1.00
H398   H     0.61872   0.58843   0.74115   0.00000  Uiso   1.00
H399   H     0.51585   0.85398   0.52976   0.00000  Uiso   1.00
H400   H     0.58705   0.83335   0.42757   0.00000  Uiso   1.00
H401   H     0.38476   0.91998   0.50971   0.00000  Uiso   1.00
H402   H     0.57805   0.82583   0.65668   0.00000  Uiso   1.00
H403   H     0.66224   0.78335   0.30687   0.00000  Uiso   1.00
H404   H     0.23570   0.96602   0.48007   0.00000  Uiso   1.00
H405   H     0.64329   0.76749   0.79000   0.00000  Uiso   1.00
O406   O     0.69626   0.67649   0.21418   0.00000  Uiso   1.00
O407   O     0.13666   0.91614   0.44143   0.00000  Uiso   1.00
O408   O     0.67141   0.65567   0.84805   0.00000  Uiso   1.00
N409   N     0.63369   0.64926   0.28355   0.00000  Uiso   1.00
N410   N     0.23491   0.82004   0.44547   0.00000  Uiso   1.00
N411   N     0.61595   0.63444   0.73524   0.00000  Uiso   1.00
N412   N     0.64692   0.74561   0.30983   0.00000  Uiso   1.00
N413   N     0.24813   0.91639   0.47176   0.00000  Uiso   1.00
N414   N     0.62917   0.73079   0.76152   0.00000  Uiso   1.00
C415   C     0.10697   0.21566   0.85573   0.00000  Uiso   1.00
C416   C     0.08430   0.22709   0.92864   0.00000  Uiso   1.00
C417   C     0.10274   0.17938   0.97613   0.00000  Uiso   1.00
C418   C     0.07661   0.19974   0.04010   0.00000  Uiso   1.00
C419   C     0.04793   0.20749   0.15088   0.00000  Uiso   1.00
C420   C     0.04122   0.23696   0.80266   0.00000  Uiso   1.00
C421   C     0.02344   0.19756   0.74421   0.00000  Uiso   1.00
C422   C     0.96106   0.22624   0.70212   0.00000  Uiso   1.00
C423   C     0.86552   0.24933   0.61728   0.00000  Uiso   1.00
C424   C     0.14113   0.26584   0.85587   0.00000  Uiso   1.00
C425   C     0.20734   0.25073   0.84216   0.00000  Uiso   1.00
C426   C     0.22907   0.30373   0.84485   0.00000  Uiso   1.00
C427   C     0.28864   0.37166   0.84264   0.00000  Uiso   1.00
C428   C     0.02781   0.33666   0.88488   0.00000  Uiso   1.00
C429   C     0.04130   0.29281   0.94447   0.00000  Uiso   1.00
C430   C     0.01515   0.31326   0.00838   0.00000  Uiso   1.00
C431   C     0.03354   0.26559   0.05596   0.00000  Uiso   1.00
C432   C     0.99822   0.30268   0.81849   0.00000  Uiso   1.00
C433   C     0.93586   0.33144   0.77646   0.00000  Uiso   1.00
C434   C     0.91798   0.29209   0.71798   0.00000  Uiso   1.00
C435   C     0.09813   0.33157   0.87171   0.00000  Uiso   1.00
C436   C     0.11975   0.38460   0.87441   0.00000  Uiso   1.00
C437   C     0.18599   0.36957   0.86071   0.00000  Uiso   1.00
H438   H     0.14045   0.16449   0.84340   0.00000  Uiso   1.00
H439   H     0.13601   0.12852   0.96386   0.00000  Uiso   1.00
H440   H     0.05673   0.14670   0.73197   0.00000  Uiso   1.00
H441   H     0.24060   0.19986   0.82991   0.00000  Uiso   1.00
H442   H     0.11211   0.11762   0.10437   0.00000  Uiso   1.00
H443   H     0.94496   0.15597   0.61542   0.00000  Uiso   1.00
H444   H     0.33269   0.26806   0.82193   0.00000  Uiso   1.00
H445   H     0.99433   0.38783   0.89721   0.00000  Uiso   1.00
H446   H     0.98187   0.36412   0.02062   0.00000  Uiso   1.00
H447   H     0.90259   0.38230   0.78873   0.00000  Uiso   1.00
H448   H     0.08647   0.43546   0.88666   0.00000  Uiso   1.00
H449   H     0.98700   0.30884   0.15044   0.00000  Uiso   1.00
H450   H     0.81985   0.34719   0.66148   0.00000  Uiso   1.00
H451   H     0.20758   0.45928   0.86800   0.00000  Uiso   1.00
O452   O     0.04398   0.19360   0.20761   0.00000  Uiso   1.00
O453   O     0.82469   0.24391   0.56611   0.00000  Uiso   1.00
O454   O     0.33338   0.39097   0.83705   0.00000  Uiso   1.00
N455   N     0.08438   0.16588   0.09829   0.00000  Uiso   1.00
N456   N     0.92810   0.20173   0.64115   0.00000  Uiso   1.00
N457   N     0.29059   0.30653   0.83420   0.00000  Uiso   1.00
N458   N     0.01707   0.26878   0.12308   0.00000  Uiso   1.00
N459   N     0.86079   0.30462   0.66594   0.00000  Uiso   1.00
N460   N     0.22327   0.40942   0.85899   0.00000  Uiso   1.00
C461   C     0.24737   0.92195   0.96988   0.00000  Uiso   1.00
C462   C     0.26484   0.96280   0.92427   0.00000  Uiso   1.00
C463   C     0.22318   0.99299   0.86506   0.00000  Uiso   1.00
C464   C     0.24845   0.02815   0.83056   0.00000  Uiso   1.00
C465   C     0.26576   0.09083   0.75608   0.00000  Uiso   1.00
C466   C     0.30549   0.85428   0.96991   0.00000  Uiso   1.00
C467   C     0.29801   0.79323   0.94909   0.00000  Uiso   1.00
C468   C     0.35751   0.73703   0.95303   0.00000  Uiso   1.00
C469   C     0.43792   0.63123   0.94946   0.00000  Uiso   1.00
C470   C     0.25331   0.95477   0.04563   0.00000  Uiso   1.00
C471   C     0.20197   0.97819   0.08848   0.00000  Uiso   1.00
C472   C     0.21754   0.00659   0.15616   0.00000  Uiso   1.00
C473   C     0.21693   0.05681   0.27015   0.00000  Uiso   1.00
C474   C     0.36633   0.93071   0.01390   0.00000  Uiso   1.00
C475   C     0.32945   0.96756   0.94818   0.00000  Uiso   1.00
C476   C     0.35479   0.00268   0.91376   0.00000  Uiso   1.00
C477   C     0.31318   0.03292   0.85452   0.00000  Uiso   1.00
C478   C     0.37010   0.85904   0.99382   0.00000  Uiso   1.00
C479   C     0.42962   0.80292   0.99780   0.00000  Uiso   1.00
C480   C     0.42224   0.74180   0.97698   0.00000  Uiso   1.00
C481   C     0.31792   0.95953   0.06954   0.00000  Uiso   1.00
C482   C     0.33358   0.98789   0.13718   0.00000  Uiso   1.00
C483   C     0.28226   0.01135   0.18012   0.00000  Uiso   1.00
H484   H     0.19707   0.91824   0.95127   0.00000  Uiso   1.00
H485   H     0.17319   0.98929   0.84657   0.00000  Uiso   1.00
H486   H     0.24800   0.78956   0.93060   0.00000  Uiso   1.00
H487   H     0.15197   0.97450   0.06995   0.00000  Uiso   1.00
H488   H     0.17521   0.07014   0.74102   0.00000  Uiso   1.00
H489   H     0.33296   0.64900   0.91822   0.00000  Uiso   1.00
H490   H     0.13046   0.03898   0.21208   0.00000  Uiso   1.00
H491   H     0.41664   0.93441   0.03252   0.00000  Uiso   1.00
H492   H     0.40480   0.00635   0.93228   0.00000  Uiso   1.00
H493   H     0.47961   0.80662   0.01631   0.00000  Uiso   1.00
H494   H     0.38358   0.99156   0.15566   0.00000  Uiso   1.00
H495   H     0.36319   0.08399   0.81058   0.00000  Uiso   1.00
H496   H     0.52095   0.66284   0.98779   0.00000  Uiso   1.00
H497   H     0.31845   0.05282   0.28165   0.00000  Uiso   1.00
O498   O     0.25746   0.12408   0.70838   0.00000  Uiso   1.00
O499   O     0.46442   0.57155   0.94088   0.00000  Uiso   1.00
O500   O     0.19875   0.08320   0.32641   0.00000  Uiso   1.00
N501   N     0.22107   0.06354   0.77116   0.00000  Uiso   1.00
N502   N     0.36856   0.66979   0.93682   0.00000  Uiso   1.00
N503   N     0.17925   0.03437   0.21156   0.00000  Uiso   1.00
N504   N     0.32222   0.07099   0.80859   0.00000  Uiso   1.00
N505   N     0.46971   0.67724   0.97425   0.00000  Uiso   1.00
N506   N     0.28040   0.04183   0.24899   0.00000  Uiso   1.00
C507   C     0.86662   0.04529   0.26824   0.00000  Uiso   1.00
C508   C     0.92666   0.99868   0.23077   0.00000  Uiso   1.00
C509   C     0.93025   0.99430   0.15888   0.00000  Uiso   1.00
C510   C     0.98958   0.94853   0.13491   0.00000  Uiso   1.00
C511   C     0.07462   0.88221   0.06969   0.00000  Uiso   1.00
C512   C     0.84460   0.00096   0.30459   0.00000  Uiso   1.00
C513   C     0.77919   0.99851   0.29477   0.00000  Uiso   1.00
C514   C     0.76944   0.95467   0.33295   0.00000  Uiso   1.00
C515   C     0.72706   0.89193   0.38237   0.00000  Uiso   1.00
C516   C     0.89643   0.08584   0.32778   0.00000  Uiso   1.00
C517   C     0.87459   0.15477   0.33748   0.00000  Uiso   1.00
C518   C     0.90848   0.18239   0.39520   0.00000  Uiso   1.00
C519   C     0.94658   0.25144   0.48063   0.00000  Uiso   1.00
C520   C     0.96561   0.97178   0.35352   0.00000  Uiso   1.00
C521   C     0.98043   0.95875   0.27710   0.00000  Uiso   1.00
C522   C     0.03977   0.91298   0.25323   0.00000  Uiso   1.00
C523   C     0.04345   0.90853   0.18131   0.00000  Uiso   1.00
C524   C     0.89836   0.96104   0.35091   0.00000  Uiso   1.00
C525   C     0.88871   0.91719   0.38912   0.00000  Uiso   1.00
C526   C     0.82331   0.91467   0.37936   0.00000  Uiso   1.00
C527   C     0.95020   0.04592   0.37411   0.00000  Uiso   1.00
C528   C     0.98412   0.07344   0.43183   0.00000  Uiso   1.00
C529   C     0.96234   0.14239   0.44160   0.00000  Uiso   1.00
H530   H     0.82476   0.07637   0.23217   0.00000  Uiso   1.00
H531   H     0.88862   0.02520   0.12305   0.00000  Uiso   1.00
H532   H     0.73759   0.02942   0.25892   0.00000  Uiso   1.00
H533   H     0.83298   0.18564   0.30162   0.00000  Uiso   1.00
H534   H     0.98314   0.95085   0.02248   0.00000  Uiso   1.00
H535   H     0.66466   0.95976   0.30900   0.00000  Uiso   1.00
H536   H     0.86582   0.28919   0.39904   0.00000  Uiso   1.00
H537   H     0.00747   0.94070   0.38959   0.00000  Uiso   1.00
H538   H     0.08137   0.88209   0.28909   0.00000  Uiso   1.00
H539   H     0.93033   0.88631   0.42497   0.00000  Uiso   1.00
H540   H     0.02573   0.04253   0.46766   0.00000  Uiso   1.00
H541   H     0.13958   0.83469   0.15725   0.00000  Uiso   1.00
H542   H     0.82110   0.84361   0.44377   0.00000  Uiso   1.00
H543   H     0.02226   0.17303   0.53381   0.00000  Uiso   1.00
O544   O     0.10666   0.85665   0.02091   0.00000  Uiso   1.00
O545   O     0.68883   0.86835   0.39683   0.00000  Uiso   1.00
O546   O     0.95275   0.30055   0.51495   0.00000  Uiso   1.00
N547   N     0.00982   0.93157   0.06799   0.00000  Uiso   1.00
N548   N     0.71207   0.93989   0.33586   0.00000  Uiso   1.00
N549   N     0.90012   0.24788   0.42005   0.00000  Uiso   1.00
N550   N     0.09400   0.86906   0.14051   0.00000  Uiso   1.00
N551   N     0.79625   0.87739   0.40838   0.00000  Uiso   1.00
N552   N     0.98430   0.18538   0.49257   0.00000  Uiso   1.00
