data_job_00543
_audit_creation_date              2018-12-19
_audit_creation_method            'Materials Studio'
_symmetry_space_group_name_H-M    'P1'
_symmetry_Int_Tables_number       1
_symmetry_cell_setting            triclinic
loop_
_symmetry_equiv_pos_as_xyz
  x,y,z
_cell_length_a                    28.6994
_cell_length_b                    10.3070
_cell_length_c                    22.6494
_cell_angle_alpha                 90.0000
_cell_angle_beta                  138.1913
_cell_angle_gamma                 90.0000
loop_
_atom_site_label
_atom_site_type_symbol
_atom_site_fract_x
_atom_site_fract_y
_atom_site_fract_z
_atom_site_U_iso_or_equiv
_atom_site_adp_type
_atom_site_occupancy
C1     C     0.83994   0.85462   0.77749   0.00000  Uiso   1.00
C2     C     0.85990   0.95116   0.74820   0.00000  Uiso   1.00
C3     C     0.84914   0.08424   0.74006   0.00000  Uiso   1.00
C4     C     0.87110   0.15578   0.71229   0.00000  Uiso   1.00
C5     C     0.89727   0.31472   0.66964   0.00000  Uiso   1.00
C6     C     0.79274   0.75458   0.70341   0.00000  Uiso   1.00
C7     C     0.72550   0.72236   0.65762   0.00000  Uiso   1.00
C8     C     0.69093   0.62840   0.59216   0.00000  Uiso   1.00
C9     C     0.61283   0.48207   0.48002   0.00000  Uiso   1.00
C10    C     0.90702   0.78303   0.85698   0.00000  Uiso   1.00
C11    C     0.93586   0.77469   0.94032   0.00000  Uiso   1.00
C12    C     0.99750   0.70466   0.00415   0.00000  Uiso   1.00
C13    C     0.09684   0.60251   0.13045   0.00000  Uiso   1.00
C14    C     0.89809   0.74503   0.74265   0.00000  Uiso   1.00
C15    C     0.89149   0.89163   0.72927   0.00000  Uiso   1.00
C16    C     0.91348   0.96299   0.70151   0.00000  Uiso   1.00
C17    C     0.90275   0.09615   0.69334   0.00000  Uiso   1.00
C18    C     0.82432   0.69505   0.68448   0.00000  Uiso   1.00
C19    C     0.78984   0.60111   0.61907   0.00000  Uiso   1.00
C20    C     0.72257   0.56876   0.57320   0.00000  Uiso   1.00
C21    C     0.93861   0.72350   0.83806   0.00000  Uiso   1.00
C22    C     0.00021   0.65345   0.90177   0.00000  Uiso   1.00
C23    C     0.02914   0.64502   0.98519   0.00000  Uiso   1.00
H24    H     0.81534   0.90096   0.79222   0.00000  Uiso   1.00
H25    H     0.82469   0.13027   0.75470   0.00000  Uiso   1.00
H26    H     0.70107   0.76843   0.67229   0.00000  Uiso   1.00
H27    H     0.91141   0.82077   0.95494   0.00000  Uiso   1.00
H28    H     0.84895   0.35824   0.70473   0.00000  Uiso   1.00
H29    H     0.58831   0.59526   0.53097   0.00000  Uiso   1.00
H30    H     0.03184   0.70562   0.12700   0.00000  Uiso   1.00
H31    H     0.92268   0.69868   0.72791   0.00000  Uiso   1.00
H32    H     0.93792   0.91689   0.68687   0.00000  Uiso   1.00
H33    H     0.81430   0.55506   0.60445   0.00000  Uiso   1.00
H34    H     0.02463   0.60740   0.88710   0.00000  Uiso   1.00
H35    H     0.94085   0.18506   0.64967   0.00000  Uiso   1.00
H36    H     0.68021   0.42207   0.47591   0.00000  Uiso   1.00
H37    H     0.12374   0.53244   0.07194   0.00000  Uiso   1.00
O38    O     0.90296   0.41884   0.65133   0.00000  Uiso   1.00
O39    O     0.56102   0.41782   0.42338   0.00000  Uiso   1.00
O40    O     0.14292   0.56263   0.20535   0.00000  Uiso   1.00
N41    N     0.86850   0.28753   0.69742   0.00000  Uiso   1.00
N42    N     0.62482   0.57421   0.53496   0.00000  Uiso   1.00
N43    N     0.03947   0.67736   0.09219   0.00000  Uiso   1.00
N44    N     0.91795   0.19435   0.66780   0.00000  Uiso   1.00
N45    N     0.67427   0.48102   0.50533   0.00000  Uiso   1.00
N46    N     0.08892   0.58418   0.06256   0.00000  Uiso   1.00
C47    C     0.33994   0.35462   0.77749   0.00000  Uiso   1.00
C48    C     0.35990   0.45116   0.74820   0.00000  Uiso   1.00
C49    C     0.34914   0.58424   0.74006   0.00000  Uiso   1.00
C50    C     0.37110   0.65578   0.71229   0.00000  Uiso   1.00
C51    C     0.39727   0.81472   0.66964   0.00000  Uiso   1.00
C52    C     0.29274   0.25458   0.70341   0.00000  Uiso   1.00
C53    C     0.22550   0.22236   0.65762   0.00000  Uiso   1.00
C54    C     0.19093   0.12840   0.59216   0.00000  Uiso   1.00
C55    C     0.11283   0.98207   0.48002   0.00000  Uiso   1.00
C56    C     0.40702   0.28303   0.85698   0.00000  Uiso   1.00
C57    C     0.43586   0.27469   0.94032   0.00000  Uiso   1.00
C58    C     0.49750   0.20466   0.00415   0.00000  Uiso   1.00
C59    C     0.59684   0.10251   0.13045   0.00000  Uiso   1.00
C60    C     0.39809   0.24503   0.74265   0.00000  Uiso   1.00
C61    C     0.39149   0.39163   0.72927   0.00000  Uiso   1.00
C62    C     0.41348   0.46299   0.70151   0.00000  Uiso   1.00
C63    C     0.40275   0.59615   0.69334   0.00000  Uiso   1.00
C64    C     0.32432   0.19505   0.68448   0.00000  Uiso   1.00
C65    C     0.28984   0.10111   0.61907   0.00000  Uiso   1.00
C66    C     0.22257   0.06876   0.57320   0.00000  Uiso   1.00
C67    C     0.43861   0.22350   0.83806   0.00000  Uiso   1.00
C68    C     0.50021   0.15345   0.90177   0.00000  Uiso   1.00
C69    C     0.52914   0.14502   0.98519   0.00000  Uiso   1.00
H70    H     0.31534   0.40096   0.79222   0.00000  Uiso   1.00
H71    H     0.32469   0.63027   0.75470   0.00000  Uiso   1.00
H72    H     0.20107   0.26843   0.67229   0.00000  Uiso   1.00
H73    H     0.41141   0.32077   0.95494   0.00000  Uiso   1.00
H74    H     0.34895   0.85824   0.70473   0.00000  Uiso   1.00
H75    H     0.08831   0.09526   0.53097   0.00000  Uiso   1.00
H76    H     0.53184   0.20562   0.12700   0.00000  Uiso   1.00
H77    H     0.42268   0.19868   0.72791   0.00000  Uiso   1.00
H78    H     0.43792   0.41689   0.68687   0.00000  Uiso   1.00
H79    H     0.31430   0.05506   0.60445   0.00000  Uiso   1.00
H80    H     0.52463   0.10740   0.88710   0.00000  Uiso   1.00
H81    H     0.44085   0.68506   0.64967   0.00000  Uiso   1.00
H82    H     0.18021   0.92207   0.47591   0.00000  Uiso   1.00
H83    H     0.62374   0.03244   0.07194   0.00000  Uiso   1.00
O84    O     0.40296   0.91884   0.65133   0.00000  Uiso   1.00
O85    O     0.06102   0.91782   0.42338   0.00000  Uiso   1.00
O86    O     0.64292   0.06263   0.20535   0.00000  Uiso   1.00
N87    N     0.36850   0.78753   0.69742   0.00000  Uiso   1.00
N88    N     0.12482   0.07421   0.53496   0.00000  Uiso   1.00
N89    N     0.53947   0.17736   0.09219   0.00000  Uiso   1.00
N90    N     0.41795   0.69435   0.66780   0.00000  Uiso   1.00
N91    N     0.17427   0.98102   0.50533   0.00000  Uiso   1.00
N92    N     0.58892   0.08418   0.06256   0.00000  Uiso   1.00
C93    C     0.16006   0.85462   0.72251   0.00000  Uiso   1.00
C94    C     0.14010   0.95116   0.75180   0.00000  Uiso   1.00
C95    C     0.15086   0.08424   0.75994   0.00000  Uiso   1.00
C96    C     0.12890   0.15578   0.78771   0.00000  Uiso   1.00
C97    C     0.10273   0.31472   0.83036   0.00000  Uiso   1.00
C98    C     0.20726   0.75458   0.79659   0.00000  Uiso   1.00
C99    C     0.27450   0.72236   0.84238   0.00000  Uiso   1.00
C100   C     0.30907   0.62840   0.90784   0.00000  Uiso   1.00
C101   C     0.38717   0.48207   0.01998   0.00000  Uiso   1.00
C102   C     0.09298   0.78303   0.64302   0.00000  Uiso   1.00
C103   C     0.06414   0.77469   0.55968   0.00000  Uiso   1.00
C104   C     0.00250   0.70466   0.49585   0.00000  Uiso   1.00
C105   C     0.90316   0.60251   0.36955   0.00000  Uiso   1.00
C106   C     0.10191   0.74503   0.75735   0.00000  Uiso   1.00
C107   C     0.10851   0.89163   0.77073   0.00000  Uiso   1.00
C108   C     0.08652   0.96299   0.79849   0.00000  Uiso   1.00
C109   C     0.09725   0.09615   0.80666   0.00000  Uiso   1.00
C110   C     0.17568   0.69505   0.81552   0.00000  Uiso   1.00
C111   C     0.21016   0.60111   0.88093   0.00000  Uiso   1.00
C112   C     0.27743   0.56876   0.92680   0.00000  Uiso   1.00
C113   C     0.06139   0.72350   0.66194   0.00000  Uiso   1.00
C114   C     0.99979   0.65345   0.59823   0.00000  Uiso   1.00
C115   C     0.97086   0.64502   0.51481   0.00000  Uiso   1.00
H116   H     0.18466   0.90096   0.70778   0.00000  Uiso   1.00
H117   H     0.17531   0.13027   0.74530   0.00000  Uiso   1.00
H118   H     0.29893   0.76843   0.82771   0.00000  Uiso   1.00
H119   H     0.08859   0.82077   0.54506   0.00000  Uiso   1.00
H120   H     0.15105   0.35824   0.79527   0.00000  Uiso   1.00
H121   H     0.41169   0.59526   0.96903   0.00000  Uiso   1.00
H122   H     0.96816   0.70562   0.37300   0.00000  Uiso   1.00
H123   H     0.07732   0.69868   0.77209   0.00000  Uiso   1.00
H124   H     0.06208   0.91689   0.81313   0.00000  Uiso   1.00
H125   H     0.18570   0.55506   0.89555   0.00000  Uiso   1.00
H126   H     0.97537   0.60740   0.61290   0.00000  Uiso   1.00
H127   H     0.05915   0.18506   0.85033   0.00000  Uiso   1.00
H128   H     0.31979   0.42207   0.02409   0.00000  Uiso   1.00
H129   H     0.87626   0.53244   0.42806   0.00000  Uiso   1.00
O130   O     0.09704   0.41884   0.84867   0.00000  Uiso   1.00
O131   O     0.43898   0.41782   0.07662   0.00000  Uiso   1.00
O132   O     0.85708   0.56263   0.29465   0.00000  Uiso   1.00
N133   N     0.13150   0.28753   0.80258   0.00000  Uiso   1.00
N134   N     0.37518   0.57421   0.96504   0.00000  Uiso   1.00
N135   N     0.96053   0.67736   0.40781   0.00000  Uiso   1.00
N136   N     0.08205   0.19435   0.83220   0.00000  Uiso   1.00
N137   N     0.32573   0.48102   0.99467   0.00000  Uiso   1.00
N138   N     0.91108   0.58418   0.43744   0.00000  Uiso   1.00
C139   C     0.66006   0.35462   0.72251   0.00000  Uiso   1.00
C140   C     0.64010   0.45116   0.75180   0.00000  Uiso   1.00
C141   C     0.65086   0.58424   0.75994   0.00000  Uiso   1.00
C142   C     0.62890   0.65578   0.78771   0.00000  Uiso   1.00
C143   C     0.60273   0.81472   0.83036   0.00000  Uiso   1.00
C144   C     0.70726   0.25458   0.79659   0.00000  Uiso   1.00
C145   C     0.77450   0.22236   0.84238   0.00000  Uiso   1.00
C146   C     0.80907   0.12840   0.90784   0.00000  Uiso   1.00
C147   C     0.88717   0.98207   0.01998   0.00000  Uiso   1.00
C148   C     0.59298   0.28303   0.64302   0.00000  Uiso   1.00
C149   C     0.56414   0.27469   0.55968   0.00000  Uiso   1.00
C150   C     0.50250   0.20466   0.49585   0.00000  Uiso   1.00
C151   C     0.40316   0.10251   0.36955   0.00000  Uiso   1.00
C152   C     0.60191   0.24503   0.75735   0.00000  Uiso   1.00
C153   C     0.60851   0.39163   0.77073   0.00000  Uiso   1.00
C154   C     0.58652   0.46299   0.79849   0.00000  Uiso   1.00
C155   C     0.59725   0.59615   0.80666   0.00000  Uiso   1.00
C156   C     0.67568   0.19505   0.81552   0.00000  Uiso   1.00
C157   C     0.71016   0.10111   0.88093   0.00000  Uiso   1.00
C158   C     0.77743   0.06876   0.92680   0.00000  Uiso   1.00
C159   C     0.56139   0.22350   0.66194   0.00000  Uiso   1.00
C160   C     0.49979   0.15345   0.59823   0.00000  Uiso   1.00
C161   C     0.47086   0.14502   0.51481   0.00000  Uiso   1.00
H162   H     0.68466   0.40096   0.70778   0.00000  Uiso   1.00
H163   H     0.67531   0.63027   0.74530   0.00000  Uiso   1.00
H164   H     0.79893   0.26843   0.82771   0.00000  Uiso   1.00
H165   H     0.58859   0.32077   0.54506   0.00000  Uiso   1.00
H166   H     0.65105   0.85824   0.79527   0.00000  Uiso   1.00
H167   H     0.91169   0.09526   0.96903   0.00000  Uiso   1.00
H168   H     0.46816   0.20562   0.37300   0.00000  Uiso   1.00
H169   H     0.57732   0.19868   0.77209   0.00000  Uiso   1.00
H170   H     0.56208   0.41689   0.81313   0.00000  Uiso   1.00
H171   H     0.68570   0.05506   0.89555   0.00000  Uiso   1.00
H172   H     0.47537   0.10740   0.61290   0.00000  Uiso   1.00
H173   H     0.55915   0.68506   0.85033   0.00000  Uiso   1.00
H174   H     0.81979   0.92207   0.02409   0.00000  Uiso   1.00
H175   H     0.37626   0.03244   0.42806   0.00000  Uiso   1.00
O176   O     0.59704   0.91884   0.84867   0.00000  Uiso   1.00
O177   O     0.93898   0.91782   0.07662   0.00000  Uiso   1.00
O178   O     0.35708   0.06263   0.29465   0.00000  Uiso   1.00
N179   N     0.63150   0.78753   0.80258   0.00000  Uiso   1.00
N180   N     0.87518   0.07421   0.96504   0.00000  Uiso   1.00
N181   N     0.46053   0.17736   0.40781   0.00000  Uiso   1.00
N182   N     0.58205   0.69435   0.83220   0.00000  Uiso   1.00
N183   N     0.82573   0.98102   0.99467   0.00000  Uiso   1.00
N184   N     0.41108   0.08418   0.43744   0.00000  Uiso   1.00
C185   C     0.16006   0.14538   0.22251   0.00000  Uiso   1.00
C186   C     0.14010   0.04884   0.25180   0.00000  Uiso   1.00
C187   C     0.15086   0.91576   0.25994   0.00000  Uiso   1.00
C188   C     0.12890   0.84422   0.28771   0.00000  Uiso   1.00
C189   C     0.10273   0.68528   0.33036   0.00000  Uiso   1.00
C190   C     0.20726   0.24542   0.29659   0.00000  Uiso   1.00
C191   C     0.27450   0.27764   0.34238   0.00000  Uiso   1.00
C192   C     0.30907   0.37160   0.40784   0.00000  Uiso   1.00
C193   C     0.38717   0.51793   0.51998   0.00000  Uiso   1.00
C194   C     0.09298   0.21697   0.14302   0.00000  Uiso   1.00
C195   C     0.06414   0.22531   0.05968   0.00000  Uiso   1.00
C196   C     0.00250   0.29534   0.99585   0.00000  Uiso   1.00
C197   C     0.90316   0.39749   0.86955   0.00000  Uiso   1.00
C198   C     0.10191   0.25497   0.25735   0.00000  Uiso   1.00
C199   C     0.10851   0.10837   0.27073   0.00000  Uiso   1.00
C200   C     0.08652   0.03701   0.29849   0.00000  Uiso   1.00
C201   C     0.09725   0.90385   0.30666   0.00000  Uiso   1.00
C202   C     0.17568   0.30495   0.31552   0.00000  Uiso   1.00
C203   C     0.21016   0.39889   0.38093   0.00000  Uiso   1.00
C204   C     0.27743   0.43124   0.42680   0.00000  Uiso   1.00
C205   C     0.06139   0.27650   0.16194   0.00000  Uiso   1.00
C206   C     0.99979   0.34655   0.09823   0.00000  Uiso   1.00
C207   C     0.97086   0.35498   0.01481   0.00000  Uiso   1.00
H208   H     0.18466   0.09904   0.20778   0.00000  Uiso   1.00
H209   H     0.17531   0.86973   0.24530   0.00000  Uiso   1.00
H210   H     0.29893   0.23157   0.32771   0.00000  Uiso   1.00
H211   H     0.08859   0.17923   0.04506   0.00000  Uiso   1.00
H212   H     0.15105   0.64176   0.29527   0.00000  Uiso   1.00
H213   H     0.41169   0.40474   0.46903   0.00000  Uiso   1.00
H214   H     0.96816   0.29438   0.87300   0.00000  Uiso   1.00
H215   H     0.07732   0.30132   0.27209   0.00000  Uiso   1.00
H216   H     0.06208   0.08311   0.31313   0.00000  Uiso   1.00
H217   H     0.18570   0.44494   0.39555   0.00000  Uiso   1.00
H218   H     0.97537   0.39260   0.11290   0.00000  Uiso   1.00
H219   H     0.05915   0.81494   0.35033   0.00000  Uiso   1.00
H220   H     0.31979   0.57793   0.52409   0.00000  Uiso   1.00
H221   H     0.87626   0.46756   0.92806   0.00000  Uiso   1.00
O222   O     0.09704   0.58116   0.34867   0.00000  Uiso   1.00
O223   O     0.43898   0.58218   0.57662   0.00000  Uiso   1.00
O224   O     0.85708   0.43737   0.79465   0.00000  Uiso   1.00
N225   N     0.13150   0.71247   0.30258   0.00000  Uiso   1.00
N226   N     0.37518   0.42579   0.46504   0.00000  Uiso   1.00
N227   N     0.96053   0.32264   0.90781   0.00000  Uiso   1.00
N228   N     0.08205   0.80565   0.33220   0.00000  Uiso   1.00
N229   N     0.32573   0.51898   0.49467   0.00000  Uiso   1.00
N230   N     0.91108   0.41582   0.93744   0.00000  Uiso   1.00
C231   C     0.66006   0.64538   0.22251   0.00000  Uiso   1.00
C232   C     0.64010   0.54884   0.25180   0.00000  Uiso   1.00
C233   C     0.65086   0.41576   0.25994   0.00000  Uiso   1.00
C234   C     0.62890   0.34422   0.28771   0.00000  Uiso   1.00
C235   C     0.60273   0.18528   0.33036   0.00000  Uiso   1.00
C236   C     0.70726   0.74542   0.29659   0.00000  Uiso   1.00
C237   C     0.77450   0.77764   0.34238   0.00000  Uiso   1.00
C238   C     0.80907   0.87160   0.40784   0.00000  Uiso   1.00
C239   C     0.88717   0.01793   0.51998   0.00000  Uiso   1.00
C240   C     0.59298   0.71697   0.14302   0.00000  Uiso   1.00
C241   C     0.56414   0.72531   0.05968   0.00000  Uiso   1.00
C242   C     0.50250   0.79534   0.99585   0.00000  Uiso   1.00
C243   C     0.40316   0.89749   0.86955   0.00000  Uiso   1.00
C244   C     0.60191   0.75497   0.25735   0.00000  Uiso   1.00
C245   C     0.60851   0.60837   0.27073   0.00000  Uiso   1.00
C246   C     0.58652   0.53701   0.29849   0.00000  Uiso   1.00
C247   C     0.59725   0.40385   0.30666   0.00000  Uiso   1.00
C248   C     0.67568   0.80495   0.31552   0.00000  Uiso   1.00
C249   C     0.71016   0.89889   0.38093   0.00000  Uiso   1.00
C250   C     0.77743   0.93124   0.42680   0.00000  Uiso   1.00
C251   C     0.56139   0.77650   0.16194   0.00000  Uiso   1.00
C252   C     0.49979   0.84655   0.09823   0.00000  Uiso   1.00
C253   C     0.47086   0.85498   0.01481   0.00000  Uiso   1.00
H254   H     0.68466   0.59904   0.20778   0.00000  Uiso   1.00
H255   H     0.67531   0.36973   0.24530   0.00000  Uiso   1.00
H256   H     0.79893   0.73157   0.32771   0.00000  Uiso   1.00
H257   H     0.58859   0.67923   0.04506   0.00000  Uiso   1.00
H258   H     0.65105   0.14176   0.29527   0.00000  Uiso   1.00
H259   H     0.91169   0.90474   0.46903   0.00000  Uiso   1.00
H260   H     0.46816   0.79438   0.87300   0.00000  Uiso   1.00
H261   H     0.57732   0.80132   0.27209   0.00000  Uiso   1.00
H262   H     0.56208   0.58311   0.31313   0.00000  Uiso   1.00
H263   H     0.68570   0.94494   0.39555   0.00000  Uiso   1.00
H264   H     0.47537   0.89260   0.11290   0.00000  Uiso   1.00
H265   H     0.55915   0.31494   0.35033   0.00000  Uiso   1.00
H266   H     0.81979   0.07793   0.52409   0.00000  Uiso   1.00
H267   H     0.37626   0.96756   0.92806   0.00000  Uiso   1.00
O268   O     0.59704   0.08116   0.34867   0.00000  Uiso   1.00
O269   O     0.93898   0.08218   0.57662   0.00000  Uiso   1.00
O270   O     0.35708   0.93737   0.79465   0.00000  Uiso   1.00
N271   N     0.63150   0.21247   0.30258   0.00000  Uiso   1.00
N272   N     0.87518   0.92579   0.46504   0.00000  Uiso   1.00
N273   N     0.46053   0.82264   0.90781   0.00000  Uiso   1.00
N274   N     0.58205   0.30565   0.33220   0.00000  Uiso   1.00
N275   N     0.82573   0.01898   0.49467   0.00000  Uiso   1.00
N276   N     0.41108   0.91582   0.93744   0.00000  Uiso   1.00
C277   C     0.83994   0.14538   0.27749   0.00000  Uiso   1.00
C278   C     0.85990   0.04884   0.24820   0.00000  Uiso   1.00
C279   C     0.84914   0.91576   0.24006   0.00000  Uiso   1.00
C280   C     0.87110   0.84422   0.21229   0.00000  Uiso   1.00
C281   C     0.89727   0.68528   0.16964   0.00000  Uiso   1.00
C282   C     0.79274   0.24542   0.20341   0.00000  Uiso   1.00
C283   C     0.72550   0.27764   0.15762   0.00000  Uiso   1.00
C284   C     0.69093   0.37160   0.09216   0.00000  Uiso   1.00
C285   C     0.61283   0.51793   0.98002   0.00000  Uiso   1.00
C286   C     0.90702   0.21697   0.35698   0.00000  Uiso   1.00
C287   C     0.93586   0.22531   0.44032   0.00000  Uiso   1.00
C288   C     0.99750   0.29534   0.50415   0.00000  Uiso   1.00
C289   C     0.09684   0.39749   0.63045   0.00000  Uiso   1.00
C290   C     0.89809   0.25497   0.24265   0.00000  Uiso   1.00
C291   C     0.89149   0.10837   0.22927   0.00000  Uiso   1.00
C292   C     0.91348   0.03701   0.20151   0.00000  Uiso   1.00
C293   C     0.90275   0.90385   0.19334   0.00000  Uiso   1.00
C294   C     0.82432   0.30495   0.18448   0.00000  Uiso   1.00
C295   C     0.78984   0.39889   0.11907   0.00000  Uiso   1.00
C296   C     0.72257   0.43124   0.07320   0.00000  Uiso   1.00
C297   C     0.93861   0.27650   0.33806   0.00000  Uiso   1.00
C298   C     0.00021   0.34655   0.40177   0.00000  Uiso   1.00
C299   C     0.02914   0.35498   0.48519   0.00000  Uiso   1.00
H300   H     0.81534   0.09904   0.29222   0.00000  Uiso   1.00
H301   H     0.82469   0.86973   0.25470   0.00000  Uiso   1.00
H302   H     0.70107   0.23157   0.17229   0.00000  Uiso   1.00
H303   H     0.91141   0.17923   0.45494   0.00000  Uiso   1.00
H304   H     0.84895   0.64176   0.20473   0.00000  Uiso   1.00
H305   H     0.58831   0.40474   0.03097   0.00000  Uiso   1.00
H306   H     0.03184   0.29438   0.62700   0.00000  Uiso   1.00
H307   H     0.92268   0.30132   0.22791   0.00000  Uiso   1.00
H308   H     0.93792   0.08311   0.18687   0.00000  Uiso   1.00
H309   H     0.81430   0.44494   0.10445   0.00000  Uiso   1.00
H310   H     0.02463   0.39260   0.38710   0.00000  Uiso   1.00
H311   H     0.94085   0.81494   0.14967   0.00000  Uiso   1.00
H312   H     0.68021   0.57793   0.97591   0.00000  Uiso   1.00
H313   H     0.12374   0.46756   0.57194   0.00000  Uiso   1.00
O314   O     0.90296   0.58116   0.15133   0.00000  Uiso   1.00
O315   O     0.56102   0.58218   0.92338   0.00000  Uiso   1.00
O316   O     0.14292   0.43737   0.70535   0.00000  Uiso   1.00
N317   N     0.86850   0.71247   0.19742   0.00000  Uiso   1.00
N318   N     0.62482   0.42579   0.03496   0.00000  Uiso   1.00
N319   N     0.03947   0.32264   0.59219   0.00000  Uiso   1.00
N320   N     0.91795   0.80565   0.16780   0.00000  Uiso   1.00
N321   N     0.67427   0.51898   0.00533   0.00000  Uiso   1.00
N322   N     0.08892   0.41582   0.56256   0.00000  Uiso   1.00
C323   C     0.33994   0.64538   0.27749   0.00000  Uiso   1.00
C324   C     0.35990   0.54884   0.24820   0.00000  Uiso   1.00
C325   C     0.34914   0.41576   0.24006   0.00000  Uiso   1.00
C326   C     0.37110   0.34422   0.21229   0.00000  Uiso   1.00
C327   C     0.39727   0.18528   0.16964   0.00000  Uiso   1.00
C328   C     0.29274   0.74542   0.20341   0.00000  Uiso   1.00
C329   C     0.22550   0.77764   0.15762   0.00000  Uiso   1.00
C330   C     0.19093   0.87160   0.09216   0.00000  Uiso   1.00
C331   C     0.11283   0.01793   0.98002   0.00000  Uiso   1.00
C332   C     0.40702   0.71697   0.35698   0.00000  Uiso   1.00
C333   C     0.43586   0.72531   0.44032   0.00000  Uiso   1.00
C334   C     0.49750   0.79534   0.50415   0.00000  Uiso   1.00
C335   C     0.59684   0.89749   0.63045   0.00000  Uiso   1.00
C336   C     0.39809   0.75497   0.24265   0.00000  Uiso   1.00
C337   C     0.39149   0.60837   0.22927   0.00000  Uiso   1.00
C338   C     0.41348   0.53701   0.20151   0.00000  Uiso   1.00
C339   C     0.40275   0.40385   0.19334   0.00000  Uiso   1.00
C340   C     0.32432   0.80495   0.18448   0.00000  Uiso   1.00
C341   C     0.28984   0.89889   0.11907   0.00000  Uiso   1.00
C342   C     0.22257   0.93124   0.07320   0.00000  Uiso   1.00
C343   C     0.43861   0.77650   0.33806   0.00000  Uiso   1.00
C344   C     0.50021   0.84655   0.40177   0.00000  Uiso   1.00
C345   C     0.52914   0.85498   0.48519   0.00000  Uiso   1.00
H346   H     0.31534   0.59904   0.29222   0.00000  Uiso   1.00
H347   H     0.32469   0.36973   0.25470   0.00000  Uiso   1.00
H348   H     0.20107   0.73157   0.17229   0.00000  Uiso   1.00
H349   H     0.41141   0.67923   0.45494   0.00000  Uiso   1.00
H350   H     0.34895   0.14176   0.20473   0.00000  Uiso   1.00
H351   H     0.08831   0.90474   0.03097   0.00000  Uiso   1.00
H352   H     0.53184   0.79438   0.62700   0.00000  Uiso   1.00
H353   H     0.42268   0.80132   0.22791   0.00000  Uiso   1.00
H354   H     0.43792   0.58311   0.18687   0.00000  Uiso   1.00
H355   H     0.31430   0.94494   0.10445   0.00000  Uiso   1.00
H356   H     0.52463   0.89260   0.38710   0.00000  Uiso   1.00
H357   H     0.44085   0.31494   0.14967   0.00000  Uiso   1.00
H358   H     0.18021   0.07793   0.97591   0.00000  Uiso   1.00
H359   H     0.62374   0.96756   0.57194   0.00000  Uiso   1.00
O360   O     0.40296   0.08116   0.15133   0.00000  Uiso   1.00
O361   O     0.06102   0.08218   0.92338   0.00000  Uiso   1.00
O362   O     0.64292   0.93737   0.70535   0.00000  Uiso   1.00
N363   N     0.36850   0.21247   0.19742   0.00000  Uiso   1.00
N364   N     0.12482   0.92579   0.03496   0.00000  Uiso   1.00
N365   N     0.53947   0.82264   0.59219   0.00000  Uiso   1.00
N366   N     0.41795   0.30565   0.16780   0.00000  Uiso   1.00
N367   N     0.17427   0.01898   0.00533   0.00000  Uiso   1.00
N368   N     0.58892   0.91582   0.56256   0.00000  Uiso   1.00
