data_job_01364
_audit_creation_date              2018-12-19
_audit_creation_method            'Materials Studio'
_symmetry_space_group_name_H-M    'P1'
_symmetry_Int_Tables_number       1
_symmetry_cell_setting            triclinic
loop_
_symmetry_equiv_pos_as_xyz
  x,y,z
_cell_length_a                    12.7135
_cell_length_b                    19.2481
_cell_length_c                    15.6115
_cell_angle_alpha                 90.0000
_cell_angle_beta                  123.7789
_cell_angle_gamma                 90.0000
loop_
_atom_site_label
_atom_site_type_symbol
_atom_site_fract_x
_atom_site_fract_y
_atom_site_fract_z
_atom_site_U_iso_or_equiv
_atom_site_adp_type
_atom_site_occupancy
C1     C     0.31437   0.70328   0.92905   0.00000  Uiso   1.00
C2     C     0.24027   0.69051   0.81317   0.00000  Uiso   1.00
C3     C     0.18622   0.62789   0.76415   0.00000  Uiso   1.00
C4     C     0.12231   0.62687   0.65752   0.00000  Uiso   1.00
C5     C     0.00874   0.59800   0.48604   0.00000  Uiso   1.00
C6     C     0.44310   0.73119   0.95968   0.00000  Uiso   1.00
C7     C     0.55958   0.70277   0.03386   0.00000  Uiso   1.00
C8     C     0.66641   0.73600   0.05057   0.00000  Uiso   1.00
C9     C     0.86773   0.77030   0.10660   0.00000  Uiso   1.00
C10    C     0.24785   0.76319   0.94427   0.00000  Uiso   1.00
C11    C     0.20019   0.76169   0.00551   0.00000  Uiso   1.00
C12    C     0.14265   0.82187   0.00926   0.00000  Uiso   1.00
C13    C     0.04082   0.90587   0.04137   0.00000  Uiso   1.00
C14    C     0.29699   0.81282   0.82686   0.00000  Uiso   1.00
C15    C     0.23083   0.75001   0.75767   0.00000  Uiso   1.00
C16    C     0.16698   0.74909   0.65108   0.00000  Uiso   1.00
C17    C     0.11284   0.68648   0.60191   0.00000  Uiso   1.00
C18    C     0.43366   0.79068   0.90418   0.00000  Uiso   1.00
C19    C     0.54034   0.82397   0.92079   0.00000  Uiso   1.00
C20    C     0.65695   0.79561   0.99496   0.00000  Uiso   1.00
C21    C     0.23840   0.82269   0.88877   0.00000  Uiso   1.00
C22    C     0.18095   0.88289   0.89244   0.00000  Uiso   1.00
C23    C     0.13320   0.88148   0.95366   0.00000  Uiso   1.00
H24    H     0.32173   0.65696   0.97227   0.00000  Uiso   1.00
H25    H     0.19356   0.58186   0.80714   0.00000  Uiso   1.00
H26    H     0.56685   0.65673   0.07680   0.00000  Uiso   1.00
H27    H     0.20751   0.71564   0.04845   0.00000  Uiso   1.00
H28    H     0.04732   0.52483   0.59957   0.00000  Uiso   1.00
H29    H     0.83444   0.68272   0.16821   0.00000  Uiso   1.00
H30    H     0.07671   0.80695   0.10843   0.00000  Uiso   1.00
H31    H     0.28964   0.85914   0.78365   0.00000  Uiso   1.00
H32    H     0.15969   0.79514   0.60815   0.00000  Uiso   1.00
H33    H     0.53300   0.87001   0.87783   0.00000  Uiso   1.00
H34    H     0.17366   0.92892   0.84947   0.00000  Uiso   1.00
H35    H     0.01985   0.69794   0.43807   0.00000  Uiso   1.00
H36    H     0.80697   0.85583   0.00672   0.00000  Uiso   1.00
H37    H     0.04923   0.98005   0.94693   0.00000  Uiso   1.00
O38    O     0.94872   0.56563   0.40678   0.00000  Uiso   1.00
O39    O     0.98139   0.77278   0.15283   0.00000  Uiso   1.00
O40    O     0.98725   0.93576   0.07439   0.00000  Uiso   1.00
N41    N     0.05867   0.57436   0.58565   0.00000  Uiso   1.00
N42    N     0.79458   0.72197   0.11728   0.00000  Uiso   1.00
N43    N     0.08619   0.83811   0.06141   0.00000  Uiso   1.00
N44    N     0.04388   0.66751   0.49874   0.00000  Uiso   1.00
N45    N     0.77979   0.81511   0.03038   0.00000  Uiso   1.00
N46    N     0.07140   0.93126   0.97451   0.00000  Uiso   1.00
C47    C     0.68563   0.70328   0.57095   0.00000  Uiso   1.00
C48    C     0.75973   0.69051   0.68683   0.00000  Uiso   1.00
C49    C     0.81378   0.62789   0.73585   0.00000  Uiso   1.00
C50    C     0.87769   0.62687   0.84248   0.00000  Uiso   1.00
C51    C     0.99126   0.59800   0.01396   0.00000  Uiso   1.00
C52    C     0.55690   0.73119   0.54032   0.00000  Uiso   1.00
C53    C     0.44042   0.70277   0.46614   0.00000  Uiso   1.00
C54    C     0.33359   0.73600   0.44943   0.00000  Uiso   1.00
C55    C     0.13227   0.77030   0.39340   0.00000  Uiso   1.00
C56    C     0.75215   0.76319   0.55573   0.00000  Uiso   1.00
C57    C     0.79981   0.76169   0.49449   0.00000  Uiso   1.00
C58    C     0.85735   0.82187   0.49074   0.00000  Uiso   1.00
C59    C     0.95918   0.90587   0.45863   0.00000  Uiso   1.00
C60    C     0.70301   0.81282   0.67314   0.00000  Uiso   1.00
C61    C     0.76917   0.75001   0.74233   0.00000  Uiso   1.00
C62    C     0.83302   0.74909   0.84892   0.00000  Uiso   1.00
C63    C     0.88716   0.68648   0.89809   0.00000  Uiso   1.00
C64    C     0.56634   0.79068   0.59582   0.00000  Uiso   1.00
C65    C     0.45966   0.82397   0.57921   0.00000  Uiso   1.00
C66    C     0.34305   0.79561   0.50504   0.00000  Uiso   1.00
C67    C     0.76160   0.82269   0.61123   0.00000  Uiso   1.00
C68    C     0.81905   0.88289   0.60756   0.00000  Uiso   1.00
C69    C     0.86680   0.88148   0.54634   0.00000  Uiso   1.00
H70    H     0.67827   0.65696   0.52773   0.00000  Uiso   1.00
H71    H     0.80644   0.58186   0.69286   0.00000  Uiso   1.00
H72    H     0.43315   0.65673   0.42320   0.00000  Uiso   1.00
H73    H     0.79249   0.71564   0.45155   0.00000  Uiso   1.00
H74    H     0.95268   0.52483   0.90043   0.00000  Uiso   1.00
H75    H     0.16556   0.68272   0.33179   0.00000  Uiso   1.00
H76    H     0.92329   0.80695   0.39157   0.00000  Uiso   1.00
H77    H     0.71036   0.85914   0.71635   0.00000  Uiso   1.00
H78    H     0.84031   0.79514   0.89185   0.00000  Uiso   1.00
H79    H     0.46700   0.87001   0.62217   0.00000  Uiso   1.00
H80    H     0.82634   0.92892   0.65053   0.00000  Uiso   1.00
H81    H     0.98015   0.69794   0.06193   0.00000  Uiso   1.00
H82    H     0.19303   0.85583   0.49328   0.00000  Uiso   1.00
H83    H     0.95077   0.98005   0.55307   0.00000  Uiso   1.00
O84    O     0.05128   0.56563   0.09322   0.00000  Uiso   1.00
O85    O     0.01861   0.77278   0.34717   0.00000  Uiso   1.00
O86    O     0.01275   0.93576   0.42561   0.00000  Uiso   1.00
N87    N     0.94133   0.57436   0.91435   0.00000  Uiso   1.00
N88    N     0.20542   0.72197   0.38272   0.00000  Uiso   1.00
N89    N     0.91381   0.83811   0.43859   0.00000  Uiso   1.00
N90    N     0.95612   0.66751   0.00126   0.00000  Uiso   1.00
N91    N     0.22021   0.81511   0.46962   0.00000  Uiso   1.00
N92    N     0.92860   0.93126   0.52549   0.00000  Uiso   1.00
C93    C     0.68563   0.29672   0.07095   0.00000  Uiso   1.00
C94    C     0.75973   0.30949   0.18683   0.00000  Uiso   1.00
C95    C     0.81378   0.37211   0.23585   0.00000  Uiso   1.00
C96    C     0.87769   0.37313   0.34248   0.00000  Uiso   1.00
C97    C     0.99126   0.40200   0.51396   0.00000  Uiso   1.00
C98    C     0.55690   0.26881   0.04032   0.00000  Uiso   1.00
C99    C     0.44042   0.29723   0.96614   0.00000  Uiso   1.00
C100   C     0.33359   0.26400   0.94943   0.00000  Uiso   1.00
C101   C     0.13227   0.22970   0.89340   0.00000  Uiso   1.00
C102   C     0.75215   0.23681   0.05573   0.00000  Uiso   1.00
C103   C     0.79981   0.23831   0.99449   0.00000  Uiso   1.00
C104   C     0.85735   0.17813   0.99074   0.00000  Uiso   1.00
C105   C     0.95918   0.09413   0.95863   0.00000  Uiso   1.00
C106   C     0.70301   0.18718   0.17314   0.00000  Uiso   1.00
C107   C     0.76917   0.24999   0.24233   0.00000  Uiso   1.00
C108   C     0.83302   0.25091   0.34892   0.00000  Uiso   1.00
C109   C     0.88716   0.31352   0.39809   0.00000  Uiso   1.00
C110   C     0.56634   0.20932   0.09582   0.00000  Uiso   1.00
C111   C     0.45966   0.17603   0.07921   0.00000  Uiso   1.00
C112   C     0.34305   0.20439   0.00504   0.00000  Uiso   1.00
C113   C     0.76160   0.17731   0.11123   0.00000  Uiso   1.00
C114   C     0.81905   0.11711   0.10756   0.00000  Uiso   1.00
C115   C     0.86680   0.11852   0.04634   0.00000  Uiso   1.00
H116   H     0.67827   0.34304   0.02773   0.00000  Uiso   1.00
H117   H     0.80644   0.41814   0.19286   0.00000  Uiso   1.00
H118   H     0.43315   0.34327   0.92320   0.00000  Uiso   1.00
H119   H     0.79249   0.28436   0.95155   0.00000  Uiso   1.00
H120   H     0.95268   0.47517   0.40043   0.00000  Uiso   1.00
H121   H     0.16556   0.31728   0.83179   0.00000  Uiso   1.00
H122   H     0.92329   0.19305   0.89157   0.00000  Uiso   1.00
H123   H     0.71036   0.14086   0.21635   0.00000  Uiso   1.00
H124   H     0.84031   0.20486   0.39185   0.00000  Uiso   1.00
H125   H     0.46700   0.12999   0.12217   0.00000  Uiso   1.00
H126   H     0.82634   0.07108   0.15053   0.00000  Uiso   1.00
H127   H     0.98015   0.30206   0.56193   0.00000  Uiso   1.00
H128   H     0.19303   0.14417   0.99328   0.00000  Uiso   1.00
H129   H     0.95077   0.01995   0.05307   0.00000  Uiso   1.00
O130   O     0.05128   0.43437   0.59322   0.00000  Uiso   1.00
O131   O     0.01861   0.22722   0.84717   0.00000  Uiso   1.00
O132   O     0.01275   0.06424   0.92561   0.00000  Uiso   1.00
N133   N     0.94133   0.42564   0.41435   0.00000  Uiso   1.00
N134   N     0.20542   0.27803   0.88272   0.00000  Uiso   1.00
N135   N     0.91381   0.16189   0.93859   0.00000  Uiso   1.00
N136   N     0.95612   0.33249   0.50126   0.00000  Uiso   1.00
N137   N     0.22021   0.18489   0.96962   0.00000  Uiso   1.00
N138   N     0.92860   0.06874   0.02549   0.00000  Uiso   1.00
C139   C     0.31437   0.29672   0.42905   0.00000  Uiso   1.00
C140   C     0.24027   0.30949   0.31317   0.00000  Uiso   1.00
C141   C     0.18622   0.37211   0.26415   0.00000  Uiso   1.00
C142   C     0.12231   0.37313   0.15752   0.00000  Uiso   1.00
C143   C     0.00874   0.40200   0.98604   0.00000  Uiso   1.00
C144   C     0.44310   0.26881   0.45968   0.00000  Uiso   1.00
C145   C     0.55958   0.29723   0.53386   0.00000  Uiso   1.00
C146   C     0.66641   0.26400   0.55057   0.00000  Uiso   1.00
C147   C     0.86773   0.22970   0.60660   0.00000  Uiso   1.00
C148   C     0.24785   0.23681   0.44427   0.00000  Uiso   1.00
C149   C     0.20019   0.23831   0.50551   0.00000  Uiso   1.00
C150   C     0.14265   0.17813   0.50926   0.00000  Uiso   1.00
C151   C     0.04082   0.09413   0.54137   0.00000  Uiso   1.00
C152   C     0.29699   0.18718   0.32686   0.00000  Uiso   1.00
C153   C     0.23083   0.24999   0.25767   0.00000  Uiso   1.00
C154   C     0.16698   0.25091   0.15108   0.00000  Uiso   1.00
C155   C     0.11284   0.31352   0.10191   0.00000  Uiso   1.00
C156   C     0.43366   0.20932   0.40418   0.00000  Uiso   1.00
C157   C     0.54034   0.17603   0.42079   0.00000  Uiso   1.00
C158   C     0.65695   0.20439   0.49496   0.00000  Uiso   1.00
C159   C     0.23840   0.17731   0.38877   0.00000  Uiso   1.00
C160   C     0.18095   0.11711   0.39244   0.00000  Uiso   1.00
C161   C     0.13320   0.11852   0.45366   0.00000  Uiso   1.00
H162   H     0.32173   0.34304   0.47227   0.00000  Uiso   1.00
H163   H     0.19356   0.41814   0.30714   0.00000  Uiso   1.00
H164   H     0.56685   0.34327   0.57680   0.00000  Uiso   1.00
H165   H     0.20751   0.28436   0.54845   0.00000  Uiso   1.00
H166   H     0.04732   0.47517   0.09957   0.00000  Uiso   1.00
H167   H     0.83444   0.31728   0.66821   0.00000  Uiso   1.00
H168   H     0.07671   0.19305   0.60843   0.00000  Uiso   1.00
H169   H     0.28964   0.14086   0.28365   0.00000  Uiso   1.00
H170   H     0.15969   0.20486   0.10815   0.00000  Uiso   1.00
H171   H     0.53300   0.12999   0.37783   0.00000  Uiso   1.00
H172   H     0.17366   0.07108   0.34947   0.00000  Uiso   1.00
H173   H     0.01985   0.30206   0.93807   0.00000  Uiso   1.00
H174   H     0.80697   0.14417   0.50672   0.00000  Uiso   1.00
H175   H     0.04923   0.01995   0.44693   0.00000  Uiso   1.00
O176   O     0.94872   0.43437   0.90678   0.00000  Uiso   1.00
O177   O     0.98139   0.22722   0.65283   0.00000  Uiso   1.00
O178   O     0.98725   0.06424   0.57439   0.00000  Uiso   1.00
N179   N     0.05867   0.42564   0.08565   0.00000  Uiso   1.00
N180   N     0.79458   0.27803   0.61728   0.00000  Uiso   1.00
N181   N     0.08619   0.16189   0.56141   0.00000  Uiso   1.00
N182   N     0.04388   0.33249   0.99874   0.00000  Uiso   1.00
N183   N     0.77979   0.18489   0.53038   0.00000  Uiso   1.00
N184   N     0.07140   0.06874   0.47451   0.00000  Uiso   1.00
