data_job_02298
_audit_creation_date              2018-12-19
_audit_creation_method            'Materials Studio'
_symmetry_space_group_name_H-M    'P1'
_symmetry_Int_Tables_number       1
_symmetry_cell_setting            triclinic
loop_
_symmetry_equiv_pos_as_xyz
  x,y,z
_cell_length_a                    9.1681
_cell_length_b                    23.3895
_cell_length_c                    31.6904
_cell_angle_alpha                 90.0000
_cell_angle_beta                  92.3244
_cell_angle_gamma                 90.0000
loop_
_atom_site_label
_atom_site_type_symbol
_atom_site_fract_x
_atom_site_fract_y
_atom_site_fract_z
_atom_site_U_iso_or_equiv
_atom_site_adp_type
_atom_site_occupancy
C1     C     0.77534   0.73653   0.81637   0.00000  Uiso   1.00
C2     C     0.67945   0.68814   0.83173   0.00000  Uiso   1.00
C3     C     0.66372   0.63469   0.81309   0.00000  Uiso   1.00
C4     C     0.57080   0.59635   0.83193   0.00000  Uiso   1.00
C5     C     0.43317   0.51900   0.85027   0.00000  Uiso   1.00
C6     C     0.67453   0.78781   0.80939   0.00000  Uiso   1.00
C7     C     0.65467   0.81817   0.77197   0.00000  Uiso   1.00
C8     C     0.55763   0.86374   0.77201   0.00000  Uiso   1.00
C9     C     0.41244   0.94115   0.75567   0.00000  Uiso   1.00
C10    C     0.87813   0.75211   0.85363   0.00000  Uiso   1.00
C11    C     0.02947   0.75246   0.85341   0.00000  Uiso   1.00
C12    C     0.10384   0.76799   0.89070   0.00000  Uiso   1.00
C13    C     0.27477   0.78997   0.94306   0.00000  Uiso   1.00
C14    C     0.63831   0.76349   0.88298   0.00000  Uiso   1.00
C15    C     0.60502   0.70278   0.86791   0.00000  Uiso   1.00
C16    C     0.51211   0.66452   0.88679   0.00000  Uiso   1.00
C17    C     0.49624   0.61102   0.86818   0.00000  Uiso   1.00
C18    C     0.60010   0.80246   0.84557   0.00000  Uiso   1.00
C19    C     0.50307   0.84799   0.84567   0.00000  Uiso   1.00
C20    C     0.48306   0.87841   0.80826   0.00000  Uiso   1.00
C21    C     0.80370   0.76675   0.88982   0.00000  Uiso   1.00
C22    C     0.87786   0.78228   0.92711   0.00000  Uiso   1.00
C23    C     0.02928   0.78266   0.92695   0.00000  Uiso   1.00
H24    H     0.83328   0.72513   0.78820   0.00000  Uiso   1.00
H25    H     0.72132   0.62337   0.78508   0.00000  Uiso   1.00
H26    H     0.71230   0.80683   0.74398   0.00000  Uiso   1.00
H27    H     0.08702   0.74113   0.82540   0.00000  Uiso   1.00
H28    H     0.56433   0.51702   0.79758   0.00000  Uiso   1.00
H29    H     0.54533   0.90385   0.71090   0.00000  Uiso   1.00
H30    H     0.33553   0.76532   0.88261   0.00000  Uiso   1.00
H31    H     0.58036   0.77489   0.91116   0.00000  Uiso   1.00
H32    H     0.45453   0.67586   0.91479   0.00000  Uiso   1.00
H33    H     0.44550   0.85932   0.87368   0.00000  Uiso   1.00
H34    H     0.82022   0.79362   0.95511   0.00000  Uiso   1.00
H35    H     0.34779   0.55962   0.90285   0.00000  Uiso   1.00
H36    H     0.32879   0.94646   0.81617   0.00000  Uiso   1.00
H37    H     0.11898   0.80792   0.98788   0.00000  Uiso   1.00
O38    O     0.37781   0.47229   0.85038   0.00000  Uiso   1.00
O39    O     0.35291   0.97980   0.73666   0.00000  Uiso   1.00
O40    O     0.38961   0.79804   0.96194   0.00000  Uiso   1.00
N41    N     0.53066   0.54063   0.82186   0.00000  Uiso   1.00
N42    N     0.51288   0.90230   0.74082   0.00000  Uiso   1.00
N43    N     0.25164   0.77279   0.90135   0.00000  Uiso   1.00
N44    N     0.41414   0.56356   0.87851   0.00000  Uiso   1.00
N45    N     0.39636   0.92522   0.79747   0.00000  Uiso   1.00
N46    N     0.13512   0.79571   0.95800   0.00000  Uiso   1.00
C47    C     0.74170   0.23994   0.81627   0.00000  Uiso   1.00
C48    C     0.84288   0.29141   0.81333   0.00000  Uiso   1.00
C49    C     0.85367   0.32690   0.77850   0.00000  Uiso   1.00
C50    C     0.95279   0.37168   0.78208   0.00000  Uiso   1.00
C51    C     0.09698   0.45023   0.77186   0.00000  Uiso   1.00
C52    C     0.83967   0.18910   0.82770   0.00000  Uiso   1.00
C53    C     0.84775   0.13857   0.80496   0.00000  Uiso   1.00
C54    C     0.94416   0.09723   0.82064   0.00000  Uiso   1.00
C55    C     0.08330   0.01692   0.83275   0.00000  Uiso   1.00
C56    C     0.65005   0.25056   0.85459   0.00000  Uiso   1.00
C57    C     0.49869   0.25169   0.85447   0.00000  Uiso   1.00
C58    C     0.43545   0.26208   0.89280   0.00000  Uiso   1.00
C59    C     0.28017   0.27719   0.94666   0.00000  Uiso   1.00
C60    C     0.89855   0.25636   0.88457   0.00000  Uiso   1.00
C61    C     0.92807   0.30033   0.85043   0.00000  Uiso   1.00
C62    C     0.02720   0.34507   0.85406   0.00000  Uiso   1.00
C63    C     0.03813   0.38062   0.81925   0.00000  Uiso   1.00
C64    C     0.92487   0.19802   0.86479   0.00000  Uiso   1.00
C65    C     0.02128   0.15674   0.88052   0.00000  Uiso   1.00
C66    C     0.02951   0.10617   0.85781   0.00000  Uiso   1.00
C67    C     0.73524   0.25948   0.89169   0.00000  Uiso   1.00
C68    C     0.67223   0.26986   0.93003   0.00000  Uiso   1.00
C69    C     0.52080   0.27101   0.92996   0.00000  Uiso   1.00
H70    H     0.67538   0.23299   0.78739   0.00000  Uiso   1.00
H71    H     0.78772   0.31998   0.74980   0.00000  Uiso   1.00
H72    H     0.78180   0.13168   0.77625   0.00000  Uiso   1.00
H73    H     0.43280   0.24478   0.82575   0.00000  Uiso   1.00
H74    H     0.94989   0.42034   0.72447   0.00000  Uiso   1.00
H75    H     0.93736   0.02329   0.78026   0.00000  Uiso   1.00
H76    H     0.20141   0.26179   0.88464   0.00000  Uiso   1.00
H77    H     0.96488   0.26331   0.91345   0.00000  Uiso   1.00
H78    H     0.09312   0.35197   0.88278   0.00000  Uiso   1.00
H79    H     0.08719   0.16366   0.90923   0.00000  Uiso   1.00
H80    H     0.73819   0.27677   0.95873   0.00000  Uiso   1.00
H81    H     0.19777   0.44630   0.83240   0.00000  Uiso   1.00
H82    H     0.18522   0.04925   0.88819   0.00000  Uiso   1.00
H83    H     0.44929   0.28775   0.99257   0.00000  Uiso   1.00
O84    O     0.15300   0.49108   0.75597   0.00000  Uiso   1.00
O85    O     0.13652   0.97017   0.82917   0.00000  Uiso   1.00
O86    O     0.17099   0.28307   0.96612   0.00000  Uiso   1.00
N87    N     0.99061   0.41429   0.75408   0.00000  Uiso   1.00
N88    N     0.97891   0.04308   0.80624   0.00000  Uiso   1.00
N89    N     0.29086   0.26604   0.90383   0.00000  Uiso   1.00
N90    N     0.12399   0.42826   0.81216   0.00000  Uiso   1.00
N91    N     0.11228   0.05705   0.86432   0.00000  Uiso   1.00
N92    N     0.42424   0.28001   0.96191   0.00000  Uiso   1.00
C93    C     0.22499   0.23653   0.68369   0.00000  Uiso   1.00
C94    C     0.32576   0.28783   0.69066   0.00000  Uiso   1.00
C95    C     0.34560   0.31819   0.72808   0.00000  Uiso   1.00
C96    C     0.44262   0.36376   0.72804   0.00000  Uiso   1.00
C97    C     0.58782   0.44117   0.74438   0.00000  Uiso   1.00
C98    C     0.32093   0.18815   0.66834   0.00000  Uiso   1.00
C99    C     0.33668   0.13470   0.68698   0.00000  Uiso   1.00
C100   C     0.42962   0.09637   0.66814   0.00000  Uiso   1.00
C101   C     0.56723   0.01901   0.64980   0.00000  Uiso   1.00
C102   C     0.12221   0.25208   0.64642   0.00000  Uiso   1.00
C103   C     0.97086   0.25237   0.64663   0.00000  Uiso   1.00
C104   C     0.89649   0.26785   0.60933   0.00000  Uiso   1.00
C105   C     0.72555   0.28975   0.55695   0.00000  Uiso   1.00
C106   C     0.36202   0.26349   0.61707   0.00000  Uiso   1.00
C107   C     0.40019   0.30247   0.65448   0.00000  Uiso   1.00
C108   C     0.49720   0.34802   0.65438   0.00000  Uiso   1.00
C109   C     0.51718   0.37843   0.69180   0.00000  Uiso   1.00
C110   C     0.39536   0.20280   0.63216   0.00000  Uiso   1.00
C111   C     0.48829   0.16453   0.61328   0.00000  Uiso   1.00
C112   C     0.50418   0.11104   0.63189   0.00000  Uiso   1.00
C113   C     0.19663   0.26673   0.61023   0.00000  Uiso   1.00
C114   C     0.12247   0.28220   0.57293   0.00000  Uiso   1.00
C115   C     0.97105   0.28251   0.57308   0.00000  Uiso   1.00
H116   H     0.16705   0.22513   0.71186   0.00000  Uiso   1.00
H117   H     0.28799   0.30684   0.75608   0.00000  Uiso   1.00
H118   H     0.27906   0.12338   0.71498   0.00000  Uiso   1.00
H119   H     0.91331   0.24103   0.67463   0.00000  Uiso   1.00
H120   H     0.45493   0.40387   0.78916   0.00000  Uiso   1.00
H121   H     0.43607   0.01704   0.70248   0.00000  Uiso   1.00
H122   H     0.66479   0.26513   0.61741   0.00000  Uiso   1.00
H123   H     0.41997   0.27489   0.58890   0.00000  Uiso   1.00
H124   H     0.55478   0.35934   0.62638   0.00000  Uiso   1.00
H125   H     0.54586   0.17588   0.58528   0.00000  Uiso   1.00
H126   H     0.18010   0.29353   0.54493   0.00000  Uiso   1.00
H127   H     0.67148   0.44648   0.68388   0.00000  Uiso   1.00
H128   H     0.65261   0.05964   0.59721   0.00000  Uiso   1.00
H129   H     0.88134   0.30774   0.51214   0.00000  Uiso   1.00
O130   O     0.64737   0.47982   0.76339   0.00000  Uiso   1.00
O131   O     0.62259   0.97230   0.64968   0.00000  Uiso   1.00
O132   O     0.61070   0.29779   0.53806   0.00000  Uiso   1.00
N133   N     0.48737   0.40232   0.75923   0.00000  Uiso   1.00
N134   N     0.46976   0.04065   0.67821   0.00000  Uiso   1.00
N135   N     0.74868   0.27258   0.59866   0.00000  Uiso   1.00
N136   N     0.60389   0.42525   0.70259   0.00000  Uiso   1.00
N137   N     0.58627   0.06358   0.62156   0.00000  Uiso   1.00
N138   N     0.86520   0.29551   0.54202   0.00000  Uiso   1.00
C139   C     0.25862   0.73994   0.68372   0.00000  Uiso   1.00
C140   C     0.16069   0.68909   0.67229   0.00000  Uiso   1.00
C141   C     0.15266   0.63856   0.69503   0.00000  Uiso   1.00
C142   C     0.05627   0.59721   0.67935   0.00000  Uiso   1.00
C143   C     0.91712   0.51691   0.66726   0.00000  Uiso   1.00
C144   C     0.15740   0.79139   0.68667   0.00000  Uiso   1.00
C145   C     0.14661   0.82688   0.72150   0.00000  Uiso   1.00
C146   C     0.04746   0.87166   0.71793   0.00000  Uiso   1.00
C147   C     0.90327   0.95021   0.72815   0.00000  Uiso   1.00
C148   C     0.35024   0.75059   0.64540   0.00000  Uiso   1.00
C149   C     0.50160   0.75179   0.64552   0.00000  Uiso   1.00
C150   C     0.56481   0.76223   0.60720   0.00000  Uiso   1.00
C151   C     0.72004   0.77743   0.55334   0.00000  Uiso   1.00
C152   C     0.10172   0.75636   0.61543   0.00000  Uiso   1.00
C153   C     0.07547   0.69801   0.63520   0.00000  Uiso   1.00
C154   C     0.97907   0.65673   0.61948   0.00000  Uiso   1.00
C155   C     0.97090   0.60614   0.64219   0.00000  Uiso   1.00
C156   C     0.07218   0.80031   0.64958   0.00000  Uiso   1.00
C157   C     0.97302   0.84505   0.64595   0.00000  Uiso   1.00
C158   C     0.96208   0.88059   0.68077   0.00000  Uiso   1.00
C159   C     0.26502   0.75951   0.60830   0.00000  Uiso   1.00
C160   C     0.32801   0.76995   0.56997   0.00000  Uiso   1.00
C161   C     0.47943   0.77117   0.57004   0.00000  Uiso   1.00
H162   H     0.32497   0.73300   0.71260   0.00000  Uiso   1.00
H163   H     0.21862   0.63167   0.72374   0.00000  Uiso   1.00
H164   H     0.21259   0.81997   0.75020   0.00000  Uiso   1.00
H165   H     0.56751   0.74489   0.67423   0.00000  Uiso   1.00
H166   H     0.06309   0.52328   0.71974   0.00000  Uiso   1.00
H167   H     0.05040   0.92033   0.77554   0.00000  Uiso   1.00
H168   H     0.79885   0.76200   0.61534   0.00000  Uiso   1.00
H169   H     0.03537   0.76330   0.58655   0.00000  Uiso   1.00
H170   H     0.91313   0.66364   0.59077   0.00000  Uiso   1.00
H171   H     0.90710   0.85194   0.61724   0.00000  Uiso   1.00
H172   H     0.26203   0.77685   0.54127   0.00000  Uiso   1.00
H173   H     0.81514   0.54923   0.61182   0.00000  Uiso   1.00
H174   H     0.80246   0.94628   0.66762   0.00000  Uiso   1.00
H175   H     0.55090   0.78795   0.50743   0.00000  Uiso   1.00
O176   O     0.86389   0.47015   0.67084   0.00000  Uiso   1.00
O177   O     0.84727   0.99107   0.74404   0.00000  Uiso   1.00
O178   O     0.82921   0.78334   0.53387   0.00000  Uiso   1.00
N179   N     0.02153   0.54306   0.69376   0.00000  Uiso   1.00
N180   N     0.00965   0.91427   0.74593   0.00000  Uiso   1.00
N181   N     0.70939   0.76626   0.59616   0.00000  Uiso   1.00
N182   N     0.88812   0.55702   0.63569   0.00000  Uiso   1.00
N183   N     0.87624   0.92823   0.68786   0.00000  Uiso   1.00
N184   N     0.57597   0.78022   0.53809   0.00000  Uiso   1.00
C185   C     0.22466   0.23653   0.18363   0.00000  Uiso   1.00
C186   C     0.32055   0.18814   0.16827   0.00000  Uiso   1.00
C187   C     0.33628   0.13469   0.18691   0.00000  Uiso   1.00
C188   C     0.42920   0.09635   0.16807   0.00000  Uiso   1.00
C189   C     0.56683   0.01900   0.14973   0.00000  Uiso   1.00
C190   C     0.32547   0.28781   0.19061   0.00000  Uiso   1.00
C191   C     0.34533   0.31817   0.22803   0.00000  Uiso   1.00
C192   C     0.44237   0.36374   0.22799   0.00000  Uiso   1.00
C193   C     0.58756   0.44115   0.24433   0.00000  Uiso   1.00
C194   C     0.12187   0.25211   0.14637   0.00000  Uiso   1.00
C195   C     0.97053   0.25246   0.14659   0.00000  Uiso   1.00
C196   C     0.89616   0.26799   0.10930   0.00000  Uiso   1.00
C197   C     0.72523   0.28997   0.05694   0.00000  Uiso   1.00
C198   C     0.36169   0.26349   0.11702   0.00000  Uiso   1.00
C199   C     0.39498   0.20278   0.13209   0.00000  Uiso   1.00
C200   C     0.48789   0.16452   0.11321   0.00000  Uiso   1.00
C201   C     0.50376   0.11102   0.13182   0.00000  Uiso   1.00
C202   C     0.39990   0.30246   0.15443   0.00000  Uiso   1.00
C203   C     0.49693   0.34799   0.15433   0.00000  Uiso   1.00
C204   C     0.51694   0.37841   0.19174   0.00000  Uiso   1.00
C205   C     0.19630   0.26675   0.11018   0.00000  Uiso   1.00
C206   C     0.12214   0.28228   0.07289   0.00000  Uiso   1.00
C207   C     0.97072   0.28266   0.07305   0.00000  Uiso   1.00
H208   H     0.16672   0.22513   0.21180   0.00000  Uiso   1.00
H209   H     0.27868   0.12337   0.21492   0.00000  Uiso   1.00
H210   H     0.28770   0.30683   0.25602   0.00000  Uiso   1.00
H211   H     0.91298   0.24113   0.17460   0.00000  Uiso   1.00
H212   H     0.43567   0.01702   0.20242   0.00000  Uiso   1.00
H213   H     0.45467   0.40385   0.28910   0.00000  Uiso   1.00
H214   H     0.66447   0.26532   0.11739   0.00000  Uiso   1.00
H215   H     0.41964   0.27489   0.08884   0.00000  Uiso   1.00
H216   H     0.54547   0.17586   0.08521   0.00000  Uiso   1.00
H217   H     0.55450   0.35932   0.12632   0.00000  Uiso   1.00
H218   H     0.17978   0.29362   0.04489   0.00000  Uiso   1.00
H219   H     0.65221   0.05962   0.09715   0.00000  Uiso   1.00
H220   H     0.67121   0.44646   0.18383   0.00000  Uiso   1.00
H221   H     0.88102   0.30792   0.01212   0.00000  Uiso   1.00
O222   O     0.62219   0.97229   0.14962   0.00000  Uiso   1.00
O223   O     0.64709   0.47980   0.26334   0.00000  Uiso   1.00
O224   O     0.61039   0.29804   0.03806   0.00000  Uiso   1.00
N225   N     0.46934   0.04063   0.17814   0.00000  Uiso   1.00
N226   N     0.48712   0.40230   0.25918   0.00000  Uiso   1.00
N227   N     0.74836   0.27279   0.09865   0.00000  Uiso   1.00
N228   N     0.58586   0.06356   0.12149   0.00000  Uiso   1.00
N229   N     0.60364   0.42522   0.20253   0.00000  Uiso   1.00
N230   N     0.86488   0.29571   0.04200   0.00000  Uiso   1.00
C231   C     0.25830   0.73994   0.18373   0.00000  Uiso   1.00
C232   C     0.15712   0.79141   0.18667   0.00000  Uiso   1.00
C233   C     0.14633   0.82690   0.22150   0.00000  Uiso   1.00
C234   C     0.04721   0.87168   0.21792   0.00000  Uiso   1.00
C235   C     0.90302   0.95023   0.22814   0.00000  Uiso   1.00
C236   C     0.16033   0.68910   0.17230   0.00000  Uiso   1.00
C237   C     0.15225   0.63857   0.19504   0.00000  Uiso   1.00
C238   C     0.05584   0.59723   0.17936   0.00000  Uiso   1.00
C239   C     0.91670   0.51692   0.16725   0.00000  Uiso   1.00
C240   C     0.34995   0.75056   0.14541   0.00000  Uiso   1.00
C241   C     0.50131   0.75169   0.14553   0.00000  Uiso   1.00
C242   C     0.56455   0.76208   0.10720   0.00000  Uiso   1.00
C243   C     0.71983   0.77719   0.05334   0.00000  Uiso   1.00
C244   C     0.10145   0.75636   0.11543   0.00000  Uiso   1.00
C245   C     0.07193   0.80033   0.14957   0.00000  Uiso   1.00
C246   C     0.97280   0.84507   0.14594   0.00000  Uiso   1.00
C247   C     0.96187   0.88062   0.18075   0.00000  Uiso   1.00
C248   C     0.07513   0.69802   0.13521   0.00000  Uiso   1.00
C249   C     0.97872   0.65674   0.11948   0.00000  Uiso   1.00
C250   C     0.97049   0.60617   0.14219   0.00000  Uiso   1.00
C251   C     0.26476   0.75948   0.10831   0.00000  Uiso   1.00
C252   C     0.32777   0.76986   0.06997   0.00000  Uiso   1.00
C253   C     0.47920   0.77101   0.07004   0.00000  Uiso   1.00
H254   H     0.32462   0.73299   0.21261   0.00000  Uiso   1.00
H255   H     0.21228   0.81998   0.25020   0.00000  Uiso   1.00
H256   H     0.21820   0.63168   0.22375   0.00000  Uiso   1.00
H257   H     0.56720   0.74478   0.17425   0.00000  Uiso   1.00
H258   H     0.05011   0.92034   0.27553   0.00000  Uiso   1.00
H259   H     0.06264   0.52329   0.21974   0.00000  Uiso   1.00
H260   H     0.79859   0.76179   0.11536   0.00000  Uiso   1.00
H261   H     0.03512   0.76331   0.08655   0.00000  Uiso   1.00
H262   H     0.90688   0.85197   0.11722   0.00000  Uiso   1.00
H263   H     0.91281   0.66366   0.09077   0.00000  Uiso   1.00
H264   H     0.26181   0.77677   0.04127   0.00000  Uiso   1.00
H265   H     0.80223   0.94630   0.16760   0.00000  Uiso   1.00
H266   H     0.81478   0.54925   0.11181   0.00000  Uiso   1.00
H267   H     0.55071   0.78775   0.00743   0.00000  Uiso   1.00
O268   O     0.84700   0.99108   0.24403   0.00000  Uiso   1.00
O269   O     0.86348   0.47017   0.17083   0.00000  Uiso   1.00
O270   O     0.82901   0.78307   0.03388   0.00000  Uiso   1.00
N271   N     0.00939   0.91429   0.24592   0.00000  Uiso   1.00
N272   N     0.02109   0.54308   0.19376   0.00000  Uiso   1.00
N273   N     0.70914   0.76604   0.09617   0.00000  Uiso   1.00
N274   N     0.87601   0.92826   0.18784   0.00000  Uiso   1.00
N275   N     0.88772   0.55705   0.13568   0.00000  Uiso   1.00
N276   N     0.57576   0.78001   0.03809   0.00000  Uiso   1.00
C277   C     0.77501   0.73653   0.31631   0.00000  Uiso   1.00
C278   C     0.67424   0.78783   0.30934   0.00000  Uiso   1.00
C279   C     0.65440   0.81819   0.27192   0.00000  Uiso   1.00
C280   C     0.55738   0.86376   0.27196   0.00000  Uiso   1.00
C281   C     0.41218   0.94117   0.25562   0.00000  Uiso   1.00
C282   C     0.67907   0.68815   0.33166   0.00000  Uiso   1.00
C283   C     0.66332   0.63470   0.31302   0.00000  Uiso   1.00
C284   C     0.57038   0.59637   0.33186   0.00000  Uiso   1.00
C285   C     0.43277   0.51901   0.35020   0.00000  Uiso   1.00
C286   C     0.87779   0.75208   0.35358   0.00000  Uiso   1.00
C287   C     0.02914   0.75237   0.35337   0.00000  Uiso   1.00
C288   C     0.10351   0.76785   0.39067   0.00000  Uiso   1.00
C289   C     0.27445   0.78975   0.44305   0.00000  Uiso   1.00
C290   C     0.63798   0.76349   0.38293   0.00000  Uiso   1.00
C291   C     0.59981   0.80247   0.34552   0.00000  Uiso   1.00
C292   C     0.50280   0.84802   0.34562   0.00000  Uiso   1.00
C293   C     0.48282   0.87843   0.30820   0.00000  Uiso   1.00
C294   C     0.60464   0.70280   0.36784   0.00000  Uiso   1.00
C295   C     0.51171   0.66453   0.38672   0.00000  Uiso   1.00
C296   C     0.49582   0.61104   0.36811   0.00000  Uiso   1.00
C297   C     0.80337   0.76673   0.38977   0.00000  Uiso   1.00
C298   C     0.87753   0.78220   0.42707   0.00000  Uiso   1.00
C299   C     0.02895   0.78251   0.42692   0.00000  Uiso   1.00
H300   H     0.83295   0.72513   0.28814   0.00000  Uiso   1.00
H301   H     0.71201   0.80684   0.24392   0.00000  Uiso   1.00
H302   H     0.72094   0.62338   0.28502   0.00000  Uiso   1.00
H303   H     0.08669   0.74103   0.32537   0.00000  Uiso   1.00
H304   H     0.54507   0.90387   0.21084   0.00000  Uiso   1.00
H305   H     0.56393   0.51704   0.29752   0.00000  Uiso   1.00
H306   H     0.33521   0.76513   0.38259   0.00000  Uiso   1.00
H307   H     0.58003   0.77489   0.41110   0.00000  Uiso   1.00
H308   H     0.44522   0.85934   0.37362   0.00000  Uiso   1.00
H309   H     0.45414   0.67588   0.41472   0.00000  Uiso   1.00
H310   H     0.81990   0.79353   0.45507   0.00000  Uiso   1.00
H311   H     0.32852   0.94648   0.31612   0.00000  Uiso   1.00
H312   H     0.34739   0.55964   0.40279   0.00000  Uiso   1.00
H313   H     0.11866   0.80774   0.48786   0.00000  Uiso   1.00
O314   O     0.35263   0.97982   0.23661   0.00000  Uiso   1.00
O315   O     0.37741   0.47230   0.35032   0.00000  Uiso   1.00
O316   O     0.38930   0.79779   0.46194   0.00000  Uiso   1.00
N317   N     0.51263   0.90232   0.24077   0.00000  Uiso   1.00
N318   N     0.53024   0.54065   0.32179   0.00000  Uiso   1.00
N319   N     0.25132   0.77258   0.40134   0.00000  Uiso   1.00
N320   N     0.39611   0.92525   0.29741   0.00000  Uiso   1.00
N321   N     0.41373   0.56358   0.37844   0.00000  Uiso   1.00
N322   N     0.13480   0.79551   0.45798   0.00000  Uiso   1.00
C323   C     0.74138   0.23994   0.31628   0.00000  Uiso   1.00
C324   C     0.83931   0.18909   0.32771   0.00000  Uiso   1.00
C325   C     0.84734   0.13856   0.30497   0.00000  Uiso   1.00
C326   C     0.94373   0.09721   0.32065   0.00000  Uiso   1.00
C327   C     0.08288   0.01691   0.33274   0.00000  Uiso   1.00
C328   C     0.84260   0.29139   0.31333   0.00000  Uiso   1.00
C329   C     0.85339   0.32688   0.27850   0.00000  Uiso   1.00
C330   C     0.95254   0.37166   0.28207   0.00000  Uiso   1.00
C331   C     0.09673   0.45021   0.27185   0.00000  Uiso   1.00
C332   C     0.64976   0.25059   0.35460   0.00000  Uiso   1.00
C333   C     0.49840   0.25179   0.35448   0.00000  Uiso   1.00
C334   C     0.43519   0.26223   0.39280   0.00000  Uiso   1.00
C335   C     0.27996   0.27743   0.44666   0.00000  Uiso   1.00
C336   C     0.89828   0.25636   0.38457   0.00000  Uiso   1.00
C337   C     0.92453   0.19801   0.36480   0.00000  Uiso   1.00
C338   C     0.02093   0.15673   0.38052   0.00000  Uiso   1.00
C339   C     0.02910   0.10614   0.35781   0.00000  Uiso   1.00
C340   C     0.92782   0.30031   0.35042   0.00000  Uiso   1.00
C341   C     0.02698   0.34505   0.35405   0.00000  Uiso   1.00
C342   C     0.03792   0.38059   0.31923   0.00000  Uiso   1.00
C343   C     0.73498   0.25951   0.39170   0.00000  Uiso   1.00
C344   C     0.67199   0.26995   0.43003   0.00000  Uiso   1.00
C345   C     0.52057   0.27117   0.42996   0.00000  Uiso   1.00
H346   H     0.67503   0.23300   0.28740   0.00000  Uiso   1.00
H347   H     0.78138   0.13167   0.27626   0.00000  Uiso   1.00
H348   H     0.78741   0.31997   0.24980   0.00000  Uiso   1.00
H349   H     0.43249   0.24489   0.32577   0.00000  Uiso   1.00
H350   H     0.93691   0.02328   0.28026   0.00000  Uiso   1.00
H351   H     0.94960   0.42033   0.22446   0.00000  Uiso   1.00
H352   H     0.20115   0.26200   0.38466   0.00000  Uiso   1.00
H353   H     0.96463   0.26330   0.41345   0.00000  Uiso   1.00
H354   H     0.08687   0.16364   0.40923   0.00000  Uiso   1.00
H355   H     0.09290   0.35194   0.38276   0.00000  Uiso   1.00
H356   H     0.73797   0.27685   0.45873   0.00000  Uiso   1.00
H357   H     0.18486   0.04923   0.38818   0.00000  Uiso   1.00
H358   H     0.19754   0.44628   0.33238   0.00000  Uiso   1.00
H359   H     0.44910   0.28795   0.49257   0.00000  Uiso   1.00
O360   O     0.13611   0.97015   0.32916   0.00000  Uiso   1.00
O361   O     0.15273   0.49107   0.25596   0.00000  Uiso   1.00
O362   O     0.17079   0.28334   0.46613   0.00000  Uiso   1.00
N363   N     0.97846   0.04306   0.30624   0.00000  Uiso   1.00
N364   N     0.99035   0.41427   0.25407   0.00000  Uiso   1.00
N365   N     0.29061   0.26626   0.40384   0.00000  Uiso   1.00
N366   N     0.11188   0.05702   0.36431   0.00000  Uiso   1.00
N367   N     0.12376   0.42823   0.31214   0.00000  Uiso   1.00
N368   N     0.42403   0.28022   0.46191   0.00000  Uiso   1.00
