data_job_06780
_audit_creation_date              2018-12-19
_audit_creation_method            'Materials Studio'
_symmetry_space_group_name_H-M    'P1'
_symmetry_Int_Tables_number       1
_symmetry_cell_setting            triclinic
loop_
_symmetry_equiv_pos_as_xyz
  x,y,z
_cell_length_a                    21.0081
_cell_length_b                    21.4908
_cell_length_c                    21.8813
_cell_angle_alpha                 62.5473
_cell_angle_beta                  92.6425
_cell_angle_gamma                 71.6929
loop_
_atom_site_label
_atom_site_type_symbol
_atom_site_fract_x
_atom_site_fract_y
_atom_site_fract_z
_atom_site_U_iso_or_equiv
_atom_site_adp_type
_atom_site_occupancy
C1     C     0.34034   0.93774   0.85937   0.00000  Uiso   1.00
C2     C     0.41766   0.89359   0.87675   0.00000  Uiso   1.00
C3     C     0.45503   0.82550   0.93797   0.00000  Uiso   1.00
C4     C     0.52531   0.79414   0.94387   0.00000  Uiso   1.00
C5     C     0.64055   0.72020   0.97900   0.00000  Uiso   1.00
C6     C     0.33175   0.01670   0.84521   0.00000  Uiso   1.00
C7     C     0.29688   0.05213   0.87990   0.00000  Uiso   1.00
C8     C     0.29483   0.12441   0.85923   0.00000  Uiso   1.00
C9     C     0.27664   0.24162   0.84535   0.00000  Uiso   1.00
C10    C     0.31161   0.94775   0.78875   0.00000  Uiso   1.00
C11    C     0.25978   0.92522   0.77595   0.00000  Uiso   1.00
C12    C     0.24076   0.93946   0.70774   0.00000  Uiso   1.00
C13    C     0.19130   0.94961   0.60620   0.00000  Uiso   1.00
C14    C     0.39869   0.00312   0.76099   0.00000  Uiso   1.00
C15    C     0.44935   0.92910   0.82331   0.00000  Uiso   1.00
C16    C     0.51959   0.89784   0.82912   0.00000  Uiso   1.00
C17    C     0.55706   0.82971   0.89033   0.00000  Uiso   1.00
C18    C     0.36344   0.05221   0.79177   0.00000  Uiso   1.00
C19    C     0.36144   0.12446   0.77104   0.00000  Uiso   1.00
C20    C     0.32658   0.15999   0.80569   0.00000  Uiso   1.00
C21    C     0.34330   0.98326   0.73530   0.00000  Uiso   1.00
C22    C     0.32435   0.99755   0.66710   0.00000  Uiso   1.00
C23    C     0.27251   0.97504   0.65421   0.00000  Uiso   1.00
H24    H     0.31567   0.91010   0.90098   0.00000  Uiso   1.00
H25    H     0.43049   0.79804   0.97932   0.00000  Uiso   1.00
H26    H     0.27235   0.02464   0.92124   0.00000  Uiso   1.00
H27    H     0.23527   0.89774   0.81732   0.00000  Uiso   1.00
H28    H     0.57177   0.68948   0.04262   0.00000  Uiso   1.00
H29    H     0.23831   0.16727   0.92015   0.00000  Uiso   1.00
H30    H     0.16011   0.89969   0.70100   0.00000  Uiso   1.00
H31    H     0.42337   0.03077   0.71938   0.00000  Uiso   1.00
H32    H     0.54410   0.92533   0.78776   0.00000  Uiso   1.00
H33    H     0.38596   0.15193   0.72968   0.00000  Uiso   1.00
H34    H     0.34888   0.02503   0.62576   0.00000  Uiso   1.00
H35    H     0.66398   0.79279   0.88714   0.00000  Uiso   1.00
H36    H     0.33052   0.27059   0.76467   0.00000  Uiso   1.00
H37    H     0.25233   0.00300   0.54552   0.00000  Uiso   1.00
O38    O     0.69536   0.66961   0.01314   0.00000  Uiso   1.00
O39    O     0.25786   0.29646   0.85246   0.00000  Uiso   1.00
O40    O     0.15527   0.94539   0.56495   0.00000  Uiso   1.00
N41    N     0.57690   0.72826   0.99663   0.00000  Uiso   1.00
N42    N     0.26515   0.17496   0.88214   0.00000  Uiso   1.00
N43    N     0.19202   0.92481   0.67725   0.00000  Uiso   1.00
N44    N     0.62652   0.78385   0.91297   0.00000  Uiso   1.00
N45    N     0.31477   0.23055   0.79848   0.00000  Uiso   1.00
N46    N     0.24164   0.98040   0.59359   0.00000  Uiso   1.00
C47    C     0.46487   0.56816   0.37096   0.00000  Uiso   1.00
C48    C     0.53495   0.53771   0.35646   0.00000  Uiso   1.00
C49    C     0.59436   0.54516   0.37701   0.00000  Uiso   1.00
C50    C     0.65325   0.51334   0.35865   0.00000  Uiso   1.00
C51    C     0.76214   0.47185   0.34181   0.00000  Uiso   1.00
C52    C     0.41451   0.61878   0.29901   0.00000  Uiso   1.00
C53    C     0.37265   0.69440   0.27128   0.00000  Uiso   1.00
C54    C     0.33016   0.73082   0.20457   0.00000  Uiso   1.00
C55    C     0.25202   0.81519   0.09857   0.00000  Uiso   1.00
C56    C     0.44444   0.50018   0.41001   0.00000  Uiso   1.00
C57    C     0.42774   0.47609   0.47559   0.00000  Uiso   1.00
C58    C     0.41043   0.41267   0.50233   0.00000  Uiso   1.00
C59    C     0.37877   0.31289   0.56867   0.00000  Uiso   1.00
C60    C     0.46382   0.49839   0.30181   0.00000  Uiso   1.00
C61    C     0.53437   0.49981   0.31889   0.00000  Uiso   1.00
C62    C     0.59320   0.46797   0.30050   0.00000  Uiso   1.00
C63    C     0.65269   0.47537   0.32102   0.00000  Uiso   1.00
C64    C     0.41394   0.58089   0.26146   0.00000  Uiso   1.00
C65    C     0.37149   0.61721   0.19477   0.00000  Uiso   1.00
C66    C     0.32958   0.69286   0.16694   0.00000  Uiso   1.00
C67    C     0.44387   0.46228   0.37245   0.00000  Uiso   1.00
C68    C     0.42658   0.39889   0.39909   0.00000  Uiso   1.00
C69    C     0.40986   0.37470   0.46470   0.00000  Uiso   1.00
H70    H     0.46531   0.59767   0.40019   0.00000  Uiso   1.00
H71    H     0.59477   0.57450   0.40607   0.00000  Uiso   1.00
H72    H     0.37310   0.72371   0.30036   0.00000  Uiso   1.00
H73    H     0.42818   0.50543   0.50464   0.00000  Uiso   1.00
H74    H     0.73805   0.53212   0.39599   0.00000  Uiso   1.00
H75    H     0.27062   0.84673   0.17311   0.00000  Uiso   1.00
H76    H     0.38677   0.38645   0.60388   0.00000  Uiso   1.00
H77    H     0.46338   0.46888   0.27257   0.00000  Uiso   1.00
H78    H     0.59274   0.43864   0.27144   0.00000  Uiso   1.00
H79    H     0.37106   0.58786   0.16573   0.00000  Uiso   1.00
H80    H     0.42615   0.36958   0.37001   0.00000  Uiso   1.00
H81    H     0.73640   0.42186   0.28671   0.00000  Uiso   1.00
H82    H     0.26896   0.73648   0.06383   0.00000  Uiso   1.00
H83    H     0.38512   0.27619   0.49460   0.00000  Uiso   1.00
O84    O     0.82235   0.45945   0.34289   0.00000  Uiso   1.00
O85    O     0.20909   0.87220   0.05048   0.00000  Uiso   1.00
O86    O     0.36148   0.26832   0.61565   0.00000  Uiso   1.00
N87    N     0.71991   0.51031   0.37044   0.00000  Uiso   1.00
N88    N     0.28290   0.80446   0.16205   0.00000  Uiso   1.00
N89    N     0.39147   0.37414   0.56478   0.00000  Uiso   1.00
N90    N     0.71902   0.45098   0.31164   0.00000  Uiso   1.00
N91    N     0.28201   0.74513   0.10325   0.00000  Uiso   1.00
N92    N     0.39058   0.31481   0.50598   0.00000  Uiso   1.00
C93    C     0.52802   0.00829   0.24539   0.00000  Uiso   1.00
C94    C     0.55138   0.92293   0.29414   0.00000  Uiso   1.00
C95    C     0.60898   0.86832   0.29508   0.00000  Uiso   1.00
C96    C     0.62152   0.79325   0.34362   0.00000  Uiso   1.00
C97    C     0.66438   0.66371   0.41231   0.00000  Uiso   1.00
C98    C     0.45431   0.03497   0.20635   0.00000  Uiso   1.00
C99    C     0.43030   0.07455   0.13348   0.00000  Uiso   1.00
C100   C     0.36111   0.09380   0.10813   0.00000  Uiso   1.00
C101   C     0.25326   0.13824   0.04052   0.00000  Uiso   1.00
C102   C     0.52344   0.04215   0.29360   0.00000  Uiso   1.00
C103   C     0.55755   0.08780   0.29408   0.00000  Uiso   1.00
C104   C     0.54656   0.11311   0.34217   0.00000  Uiso   1.00
C105   C     0.54605   0.16871   0.41004   0.00000  Uiso   1.00
C106   C     0.44785   0.97209   0.32993   0.00000  Uiso   1.00
C107   C     0.50782   0.90328   0.34006   0.00000  Uiso   1.00
C108   C     0.52027   0.82827   0.38861   0.00000  Uiso   1.00
C109   C     0.57789   0.77355   0.38962   0.00000  Uiso   1.00
C110   C     0.41076   0.01531   0.25227   0.00000  Uiso   1.00
C111   C     0.34159   0.03451   0.22701   0.00000  Uiso   1.00
C112   C     0.31748   0.07411   0.15413   0.00000  Uiso   1.00
C113   C     0.47989   0.02249   0.33952   0.00000  Uiso   1.00
C114   C     0.46884   0.04775   0.38762   0.00000  Uiso   1.00
C115   C     0.50293   0.09342   0.38817   0.00000  Uiso   1.00
H116   H     0.56193   0.02359   0.20964   0.00000  Uiso   1.00
H117   H     0.64267   0.88355   0.25953   0.00000  Uiso   1.00
H118   H     0.46401   0.08976   0.09796   0.00000  Uiso   1.00
H119   H     0.59124   0.10300   0.25854   0.00000  Uiso   1.00
H120   H     0.71297   0.71962   0.33508   0.00000  Uiso   1.00
H121   H     0.33625   0.15445   0.99440   0.00000  Uiso   1.00
H122   H     0.60455   0.18236   0.33301   0.00000  Uiso   1.00
H123   H     0.41394   0.95679   0.36568   0.00000  Uiso   1.00
H124   H     0.48656   0.81308   0.42414   0.00000  Uiso   1.00
H125   H     0.30790   0.01929   0.26256   0.00000  Uiso   1.00
H126   H     0.43514   0.03253   0.42314   0.00000  Uiso   1.00
H127   H     0.58627   0.66242   0.46868   0.00000  Uiso   1.00
H128   H     0.20954   0.09726   0.12800   0.00000  Uiso   1.00
H129   H     0.47784   0.12516   0.46661   0.00000  Uiso   1.00
O130   O     0.70005   0.59768   0.43750   0.00000  Uiso   1.00
O131   O     0.20581   0.16818   0.99055   0.00000  Uiso   1.00
O132   O     0.55781   0.20480   0.43479   0.00000  Uiso   1.00
N133   N     0.67319   0.72588   0.35851   0.00000  Uiso   1.00
N134   N     0.32098   0.13241   0.04000   0.00000  Uiso   1.00
N135   N     0.57180   0.15852   0.35655   0.00000  Uiso   1.00
N136   N     0.60501   0.69510   0.43040   0.00000  Uiso   1.00
N137   N     0.25280   0.10163   0.11188   0.00000  Uiso   1.00
N138   N     0.50363   0.12775   0.42844   0.00000  Uiso   1.00
C139   C     0.93775   0.01299   0.39152   0.00000  Uiso   1.00
C140   C     0.00283   0.94225   0.41791   0.00000  Uiso   1.00
C141   C     0.05638   0.91423   0.47465   0.00000  Uiso   1.00
C142   C     0.11137   0.84878   0.49040   0.00000  Uiso   1.00
C143   C     0.21219   0.74441   0.53742   0.00000  Uiso   1.00
C144   C     0.87761   0.98736   0.39299   0.00000  Uiso   1.00
C145   C     0.82587   0.99728   0.42876   0.00000  Uiso   1.00
C146   C     0.77545   0.96981   0.42352   0.00000  Uiso   1.00
C147   C     0.68184   0.93553   0.43181   0.00000  Uiso   1.00
C148   C     0.93450   0.06383   0.31370   0.00000  Uiso   1.00
C149   C     0.93057   0.13805   0.28279   0.00000  Uiso   1.00
C150   C     0.92803   0.17496   0.21079   0.00000  Uiso   1.00
C151   C     0.92275   0.25941   0.09596   0.00000  Uiso   1.00
C152   C     0.94019   0.94658   0.31859   0.00000  Uiso   1.00
C153   C     0.00415   0.90618   0.37830   0.00000  Uiso   1.00
C154   C     0.05908   0.84075   0.39396   0.00000  Uiso   1.00
C155   C     0.11270   0.81264   0.45072   0.00000  Uiso   1.00
C156   C     0.87893   0.95129   0.35338   0.00000  Uiso   1.00
C157   C     0.82857   0.92381   0.34808   0.00000  Uiso   1.00
C158   C     0.77678   0.93368   0.38384   0.00000  Uiso   1.00
C159   C     0.93582   0.02776   0.27408   0.00000  Uiso   1.00
C160   C     0.93328   0.06457   0.20211   0.00000  Uiso   1.00
C161   C     0.92936   0.13883   0.17110   0.00000  Uiso   1.00
H162   H     0.93672   0.04107   0.42236   0.00000  Uiso   1.00
H163   H     0.05533   0.94216   0.50530   0.00000  Uiso   1.00
H164   H     0.82486   0.02521   0.45941   0.00000  Uiso   1.00
H165   H     0.92955   0.16594   0.31346   0.00000  Uiso   1.00
H166   H     0.18741   0.81657   0.57979   0.00000  Uiso   1.00
H167   H     0.70143   0.99170   0.48301   0.00000  Uiso   1.00
H168   H     0.92219   0.28849   0.17526   0.00000  Uiso   1.00
H169   H     0.94122   0.91849   0.28775   0.00000  Uiso   1.00
H170   H     0.06008   0.81285   0.36330   0.00000  Uiso   1.00
H171   H     0.82961   0.89590   0.31741   0.00000  Uiso   1.00
H172   H     0.93430   0.03664   0.17147   0.00000  Uiso   1.00
H173   H     0.19126   0.71162   0.46455   0.00000  Uiso   1.00
H174   H     0.70528   0.88676   0.36776   0.00000  Uiso   1.00
H175   H     0.92605   0.18353   0.06002   0.00000  Uiso   1.00
O176   O     0.26743   0.69680   0.57431   0.00000  Uiso   1.00
O177   O     0.62985   0.92658   0.44733   0.00000  Uiso   1.00
O178   O     0.91948   0.31595   0.04357   0.00000  Uiso   1.00
N179   N     0.17201   0.80638   0.54229   0.00000  Uiso   1.00
N180   N     0.71766   0.97011   0.45182   0.00000  Uiso   1.00
N181   N     0.92403   0.24758   0.16409   0.00000  Uiso   1.00
N182   N     0.17408   0.74990   0.48028   0.00000  Uiso   1.00
N183   N     0.71973   0.91363   0.38980   0.00000  Uiso   1.00
N184   N     0.92611   0.19110   0.10208   0.00000  Uiso   1.00
C185   C     0.80912   0.79473   0.90780   0.00000  Uiso   1.00
C186   C     0.88760   0.76098   0.92557   0.00000  Uiso   1.00
C187   C     0.92843   0.68494   0.95404   0.00000  Uiso   1.00
C188   C     0.99922   0.66546   0.96646   0.00000  Uiso   1.00
C189   C     0.11670   0.60475   0.99638   0.00000  Uiso   1.00
C190   C     0.78733   0.85539   0.82976   0.00000  Uiso   1.00
C191   C     0.74383   0.85872   0.77768   0.00000  Uiso   1.00
C192   C     0.73020   0.91873   0.70944   0.00000  Uiso   1.00
C193   C     0.69195   0.00461   0.59063   0.00000  Uiso   1.00
C194   C     0.78883   0.83678   0.94847   0.00000  Uiso   1.00
C195   C     0.74659   0.82450   0.99619   0.00000  Uiso   1.00
C196   C     0.73421   0.86886   0.02789   0.00000  Uiso   1.00
C197   C     0.69830   0.92586   0.09339   0.00000  Uiso   1.00
C198   C     0.86224   0.89537   0.87921   0.00000  Uiso   1.00
C199   C     0.91645   0.81565   0.91004   0.00000  Uiso   1.00
C200   C     0.98720   0.79628   0.92242   0.00000  Uiso   1.00
C201   C     0.02813   0.72022   0.95091   0.00000  Uiso   1.00
C202   C     0.81618   0.91005   0.81423   0.00000  Uiso   1.00
C203   C     0.80260   0.97007   0.74605   0.00000  Uiso   1.00
C204   C     0.75911   0.97349   0.69388   0.00000  Uiso   1.00
C205   C     0.81768   0.89145   0.93295   0.00000  Uiso   1.00
C206   C     0.80536   0.93584   0.96457   0.00000  Uiso   1.00
C207   C     0.76311   0.92362   0.01233   0.00000  Uiso   1.00
H208   H     0.78666   0.75217   0.91988   0.00000  Uiso   1.00
H209   H     0.90609   0.64265   0.96605   0.00000  Uiso   1.00
H210   H     0.72151   0.81641   0.78971   0.00000  Uiso   1.00
H211   H     0.72427   0.78219   0.00819   0.00000  Uiso   1.00
H212   H     0.05122   0.54534   0.01036   0.00000  Uiso   1.00
H213   H     0.66201   0.91174   0.63855   0.00000  Uiso   1.00
H214   H     0.66782   0.83957   0.09926   0.00000  Uiso   1.00
H215   H     0.88470   0.93793   0.86713   0.00000  Uiso   1.00
H216   H     0.00951   0.83860   0.91040   0.00000  Uiso   1.00
H217   H     0.82494   0.01236   0.73406   0.00000  Uiso   1.00
H218   H     0.82770   0.97814   0.95254   0.00000  Uiso   1.00
H219   H     0.13517   0.70438   0.96519   0.00000  Uiso   1.00
H220   H     0.74595   0.07078   0.59338   0.00000  Uiso   1.00
H221   H     0.75177   0.99861   0.05409   0.00000  Uiso   1.00
O222   O     0.17353   0.55617   0.01717   0.00000  Uiso   1.00
O223   O     0.66289   0.03688   0.52938   0.00000  Uiso   1.00
O224   O     0.67053   0.94219   0.13381   0.00000  Uiso   1.00
N225   N     0.05385   0.59640   0.99380   0.00000  Uiso   1.00
N226   N     0.68997   0.93896   0.64618   0.00000  Uiso   1.00
N227   N     0.69539   0.87150   0.07689   0.00000  Uiso   1.00
N228   N     0.09902   0.68197   0.96950   0.00000  Uiso   1.00
N229   N     0.73514   0.02453   0.62188   0.00000  Uiso   1.00
N230   N     0.74056   0.95708   0.05258   0.00000  Uiso   1.00
C231   C     0.97914   0.58397   0.66765   0.00000  Uiso   1.00
C232   C     0.05698   0.54399   0.68302   0.00000  Uiso   1.00
C233   C     0.09321   0.52519   0.63858   0.00000  Uiso   1.00
C234   C     0.16422   0.48877   0.66227   0.00000  Uiso   1.00
C235   C     0.27999   0.42930   0.67611   0.00000  Uiso   1.00
C236   C     0.96730   0.65436   0.67388   0.00000  Uiso   1.00
C237   C     0.92813   0.72836   0.62174   0.00000  Uiso   1.00
C238   C     0.92365   0.78484   0.63774   0.00000  Uiso   1.00
C239   C     0.90016   0.89672   0.63740   0.00000  Uiso   1.00
C240   C     0.95540   0.53215   0.72905   0.00000  Uiso   1.00
C241   C     0.90620   0.50340   0.72331   0.00000  Uiso   1.00
C242   C     0.89168   0.45701   0.78576   0.00000  Uiso   1.00
C243   C     0.84971   0.37914   0.87108   0.00000  Uiso   1.00
C244   C     0.04080   0.55271   0.78877   0.00000  Uiso   1.00
C245   C     0.09047   0.52701   0.74881   0.00000  Uiso   1.00
C246   C     0.16144   0.49060   0.77258   0.00000  Uiso   1.00
C247   C     0.19777   0.47175   0.72817   0.00000  Uiso   1.00
C248   C     0.00079   0.63738   0.73966   0.00000  Uiso   1.00
C249   C     0.99636   0.69377   0.75574   0.00000  Uiso   1.00
C250   C     0.95720   0.76783   0.70364   0.00000  Uiso   1.00
C251   C     0.98889   0.51516   0.79484   0.00000  Uiso   1.00
C252   C     0.97444   0.46881   0.85730   0.00000  Uiso   1.00
C253   C     0.92523   0.44000   0.85166   0.00000  Uiso   1.00
H254   H     0.95306   0.59720   0.61644   0.00000  Uiso   1.00
H255   H     0.06727   0.53835   0.58767   0.00000  Uiso   1.00
H256   H     0.90222   0.74148   0.57084   0.00000  Uiso   1.00
H257   H     0.88030   0.51656   0.67239   0.00000  Uiso   1.00
H258   H     0.20867   0.46564   0.58478   0.00000  Uiso   1.00
H259   H     0.86062   0.89395   0.54930   0.00000  Uiso   1.00
H260   H     0.81439   0.41966   0.76344   0.00000  Uiso   1.00
H261   H     0.06688   0.53949   0.83998   0.00000  Uiso   1.00
H262   H     0.18734   0.47747   0.82348   0.00000  Uiso   1.00
H263   H     0.02228   0.68060   0.80665   0.00000  Uiso   1.00
H264   H     0.00036   0.45568   0.90820   0.00000  Uiso   1.00
H265   H     0.30612   0.41623   0.77617   0.00000  Uiso   1.00
H266   H     0.95807   0.84455   0.74069   0.00000  Uiso   1.00
H267   H     0.91185   0.37025   0.95483   0.00000  Uiso   1.00
O268   O     0.33459   0.40120   0.66558   0.00000  Uiso   1.00
O269   O     0.87795   0.96313   0.61903   0.00000  Uiso   1.00
O270   O     0.81731   0.34087   0.89998   0.00000  Uiso   1.00
N271   N     0.21507   0.46251   0.63209   0.00000  Uiso   1.00
N272   N     0.88968   0.86296   0.59891   0.00000  Uiso   1.00
N273   N     0.84645   0.41955   0.79912   0.00000  Uiso   1.00
N274   N     0.26751   0.43592   0.73508   0.00000  Uiso   1.00
N275   N     0.94212   0.83637   0.70190   0.00000  Uiso   1.00
N276   N     0.89888   0.39296   0.90211   0.00000  Uiso   1.00
C277   C     0.71597   0.34891   0.13494   0.00000  Uiso   1.00
C278   C     0.63948   0.38297   0.13166   0.00000  Uiso   1.00
C279   C     0.59515   0.45684   0.08436   0.00000  Uiso   1.00
C280   C     0.52700   0.47703   0.08994   0.00000  Uiso   1.00
C281   C     0.41170   0.53780   0.07705   0.00000  Uiso   1.00
C282   C     0.72625   0.27954   0.12737   0.00000  Uiso   1.00
C283   C     0.75488   0.26643   0.07647   0.00000  Uiso   1.00
C284   C     0.75978   0.19955   0.07846   0.00000  Uiso   1.00
C285   C     0.77924   0.09970   0.05895   0.00000  Uiso   1.00
C286   C     0.75328   0.31878   0.21021   0.00000  Uiso   1.00
C287   C     0.80465   0.33866   0.22897   0.00000  Uiso   1.00
C288   C     0.83232   0.30480   0.30070   0.00000  Uiso   1.00
C289   C     0.89374   0.26590   0.40981   0.00000  Uiso   1.00
C290   C     0.67378   0.25343   0.22896   0.00000  Uiso   1.00
C291   C     0.61656   0.33111   0.18273   0.00000  Uiso   1.00
C292   C     0.54846   0.35120   0.18839   0.00000  Uiso   1.00
C293   C     0.50404   0.42508   0.14110   0.00000  Uiso   1.00
C294   C     0.70333   0.22768   0.17844   0.00000  Uiso   1.00
C295   C     0.70819   0.16079   0.18050   0.00000  Uiso   1.00
C296   C     0.73682   0.14759   0.12962   0.00000  Uiso   1.00
C297   C     0.73036   0.26692   0.26128   0.00000  Uiso   1.00
C298   C     0.75796   0.23302   0.33300   0.00000  Uiso   1.00
C299   C     0.80936   0.25285   0.35186   0.00000  Uiso   1.00
H300   H     0.73382   0.38928   0.09518   0.00000  Uiso   1.00
H301   H     0.61290   0.49695   0.04484   0.00000  Uiso   1.00
H302   H     0.77262   0.30657   0.03696   0.00000  Uiso   1.00
H303   H     0.82237   0.37879   0.18943   0.00000  Uiso   1.00
H304   H     0.46873   0.59345   0.01153   0.00000  Uiso   1.00
H305   H     0.80552   0.19200   0.99494   0.00000  Uiso   1.00
H306   H     0.91044   0.34430   0.31646   0.00000  Uiso   1.00
H307   H     0.65593   0.21305   0.26873   0.00000  Uiso   1.00
H308   H     0.53074   0.31105   0.22791   0.00000  Uiso   1.00
H309   H     0.69046   0.12067   0.22003   0.00000  Uiso   1.00
H310   H     0.74021   0.19289   0.37250   0.00000  Uiso   1.00
H311   H     0.40205   0.44256   0.16012   0.00000  Uiso   1.00
H312   H     0.73884   0.04112   0.14353   0.00000  Uiso   1.00
H313   H     0.84375   0.19341   0.46504   0.00000  Uiso   1.00
O314   O     0.35443   0.58565   0.05583   0.00000  Uiso   1.00
O315   O     0.79630   0.05896   0.03407   0.00000  Uiso   1.00
O316   O     0.93395   0.25877   0.45589   0.00000  Uiso   1.00
N317   N     0.47022   0.54449   0.05212   0.00000  Uiso   1.00
N318   N     0.78509   0.16917   0.03660   0.00000  Uiso   1.00
N319   N     0.88319   0.31154   0.33718   0.00000  Uiso   1.00
N320   N     0.43434   0.46330   0.13207   0.00000  Uiso   1.00
N321   N     0.74921   0.08798   0.11655   0.00000  Uiso   1.00
N322   N     0.84731   0.23035   0.41714   0.00000  Uiso   1.00
C323   C     0.64738   0.59013   0.73147   0.00000  Uiso   1.00
C324   C     0.57471   0.64816   0.71242   0.00000  Uiso   1.00
C325   C     0.51420   0.63655   0.70465   0.00000  Uiso   1.00
C326   C     0.45291   0.69672   0.68709   0.00000  Uiso   1.00
C327   C     0.34019   0.77628   0.65898   0.00000  Uiso   1.00
C328   C     0.68476   0.58232   0.79757   0.00000  Uiso   1.00
C329   C     0.71678   0.51534   0.86139   0.00000  Uiso   1.00
C330   C     0.74815   0.52009   0.91549   0.00000  Uiso   1.00
C331   C     0.80632   0.49741   0.01957   0.00000  Uiso   1.00
C332   C     0.68182   0.62729   0.67250   0.00000  Uiso   1.00
C333   C     0.71139   0.59813   0.63117   0.00000  Uiso   1.00
C334   C     0.74029   0.64074   0.57999   0.00000  Uiso   1.00
C335   C     0.79390   0.68790   0.48988   0.00000  Uiso   1.00
C336   C     0.64616   0.71764   0.71407   0.00000  Uiso   1.00
C337   C     0.57405   0.71741   0.70297   0.00000  Uiso   1.00
C338   C     0.51285   0.77762   0.68541   0.00000  Uiso   1.00
C339   C     0.45225   0.76610   0.67762   0.00000  Uiso   1.00
C340   C     0.68410   0.65157   0.78812   0.00000  Uiso   1.00
C341   C     0.71543   0.65641   0.84214   0.00000  Uiso   1.00
C342   C     0.74749   0.58947   0.90603   0.00000  Uiso   1.00
C343   C     0.68116   0.69655   0.66305   0.00000  Uiso   1.00
C344   C     0.71003   0.73921   0.61193   0.00000  Uiso   1.00
C345   C     0.73963   0.71012   0.57053   0.00000  Uiso   1.00
H346   H     0.64790   0.53621   0.73882   0.00000  Uiso   1.00
H347   H     0.51473   0.58294   0.71198   0.00000  Uiso   1.00
H348   H     0.71729   0.46176   0.86868   0.00000  Uiso   1.00
H349   H     0.71189   0.54454   0.63850   0.00000  Uiso   1.00
H350   H     0.36680   0.66529   0.67807   0.00000  Uiso   1.00
H351   H     0.79393   0.40975   0.00848   0.00000  Uiso   1.00
H352   H     0.78255   0.58431   0.52310   0.00000  Uiso   1.00
H353   H     0.64565   0.77156   0.70672   0.00000  Uiso   1.00
H354   H     0.51235   0.83121   0.67810   0.00000  Uiso   1.00
H355   H     0.71491   0.71002   0.83481   0.00000  Uiso   1.00
H356   H     0.70951   0.79280   0.60463   0.00000  Uiso   1.00
H357   H     0.36487   0.86679   0.65058   0.00000  Uiso   1.00
H358   H     0.79200   0.61125   0.98099   0.00000  Uiso   1.00
H359   H     0.78061   0.78581   0.49561   0.00000  Uiso   1.00
O360   O     0.27819   0.80102   0.64610   0.00000  Uiso   1.00
O361   O     0.83858   0.46576   0.07959   0.00000  Uiso   1.00
O362   O     0.82364   0.69478   0.44278   0.00000  Uiso   1.00
N363   N     0.38464   0.70453   0.67551   0.00000  Uiso   1.00
N364   N     0.78397   0.46562   0.98443   0.00000  Uiso   1.00
N365   N     0.77334   0.62881   0.53066   0.00000  Uiso   1.00
N366   N     0.38360   0.81296   0.66072   0.00000  Uiso   1.00
N367   N     0.78293   0.57404   0.96964   0.00000  Uiso   1.00
N368   N     0.77230   0.73723   0.51586   0.00000  Uiso   1.00
C369   C     0.59042   0.21113   0.79309   0.00000  Uiso   1.00
C370   C     0.54759   0.29472   0.76459   0.00000  Uiso   1.00
C371   C     0.49939   0.32350   0.79561   0.00000  Uiso   1.00
C372   C     0.46563   0.40165   0.76131   0.00000  Uiso   1.00
C373   C     0.39702   0.52421   0.72666   0.00000  Uiso   1.00
C374   C     0.66543   0.20342   0.80129   0.00000  Uiso   1.00
C375   C     0.71631   0.15543   0.86318   0.00000  Uiso   1.00
C376   C     0.78175   0.15673   0.85977   0.00000  Uiso   1.00
C377   C     0.89610   0.13751   0.88209   0.00000  Uiso   1.00
C378   C     0.57589   0.19529   0.73385   0.00000  Uiso   1.00
C379   C     0.55150   0.14045   0.73903   0.00000  Uiso   1.00
C380   C     0.54157   0.13488   0.67884   0.00000  Uiso   1.00
C381   C     0.51690   0.10303   0.59645   0.00000  Uiso   1.00
C382   C     0.61617   0.29875   0.67700   0.00000  Uiso   1.00
C383   C     0.56158   0.34231   0.70153   0.00000  Uiso   1.00
C384   C     0.52788   0.42044   0.66717   0.00000  Uiso   1.00
C385   C     0.47964   0.44933   0.69814   0.00000  Uiso   1.00
C386   C     0.67942   0.25101   0.73824   0.00000  Uiso   1.00
C387   C     0.74480   0.25238   0.73473   0.00000  Uiso   1.00
C388   C     0.79576   0.20441   0.79660   0.00000  Uiso   1.00
C389   C     0.58988   0.24288   0.67079   0.00000  Uiso   1.00
C390   C     0.57999   0.23740   0.61058   0.00000  Uiso   1.00
C391   C     0.55558   0.18256   0.61567   0.00000  Uiso   1.00
H392   H     0.57954   0.17407   0.84219   0.00000  Uiso   1.00
H393   H     0.48859   0.28665   0.84442   0.00000  Uiso   1.00
H394   H     0.70547   0.11861   0.91196   0.00000  Uiso   1.00
H395   H     0.54069   0.10363   0.78783   0.00000  Uiso   1.00
H396   H     0.39394   0.43245   0.81910   0.00000  Uiso   1.00
H397   H     0.85126   0.07810   0.96152   0.00000  Uiso   1.00
H398   H     0.50378   0.04651   0.69977   0.00000  Uiso   1.00
H399   H     0.62706   0.33580   0.62790   0.00000  Uiso   1.00
H400   H     0.53872   0.45726   0.61837   0.00000  Uiso   1.00
H401   H     0.75560   0.28921   0.68592   0.00000  Uiso   1.00
H402   H     0.59082   0.27423   0.56180   0.00000  Uiso   1.00
H403   H     0.43463   0.57092   0.63563   0.00000  Uiso   1.00
H404   H     0.89195   0.21657   0.77805   0.00000  Uiso   1.00
H405   H     0.54447   0.18498   0.51630   0.00000  Uiso   1.00
O406   O     0.35533   0.57866   0.72497   0.00000  Uiso   1.00
O407   O     0.95531   0.11377   0.91182   0.00000  Uiso   1.00
O408   O     0.49942   0.07232   0.56841   0.00000  Uiso   1.00
N409   N     0.41563   0.44837   0.77722   0.00000  Uiso   1.00
N410   N     0.84319   0.11709   0.91038   0.00000  Uiso   1.00
N411   N     0.51835   0.08754   0.66567   0.00000  Uiso   1.00
N412   N     0.43752   0.52288   0.67850   0.00000  Uiso   1.00
N413   N     0.86509   0.19160   0.81166   0.00000  Uiso   1.00
N414   N     0.54024   0.16205   0.56695   0.00000  Uiso   1.00
C415   C     0.05325   0.13851   0.64234   0.00000  Uiso   1.00
C416   C     0.00310   0.20508   0.64588   0.00000  Uiso   1.00
C417   C     0.93503   0.24639   0.60859   0.00000  Uiso   1.00
C418   C     0.89768   0.30519   0.61911   0.00000  Uiso   1.00
C419   C     0.81531   0.40603   0.61755   0.00000  Uiso   1.00
C420   C     0.11499   0.15934   0.62124   0.00000  Uiso   1.00
C421   C     0.14099   0.16218   0.56324   0.00000  Uiso   1.00
C422   C     0.19782   0.18248   0.55302   0.00000  Uiso   1.00
C423   C     0.28918   0.21225   0.51324   0.00000  Uiso   1.00
C424   C     0.07915   0.07233   0.71814   0.00000  Uiso   1.00
C425   C     0.07503   0.00200   0.74162   0.00000  Uiso   1.00
C426   C     0.10171   0.94903   0.81298   0.00000  Uiso   1.00
C427   C     0.13742   0.84371   0.92365   0.00000  Uiso   1.00
C428   C     0.10796   0.16949   0.72733   0.00000  Uiso   1.00
C429   C     0.03283   0.22191   0.69204   0.00000  Uiso   1.00
C430   C     0.99557   0.28066   0.70262   0.00000  Uiso   1.00
C431   C     0.92745   0.32205   0.66535   0.00000  Uiso   1.00
C432   C     0.14470   0.17617   0.66740   0.00000  Uiso   1.00
C433   C     0.20152   0.19646   0.65727   0.00000  Uiso   1.00
C434   C     0.22760   0.19933   0.59927   0.00000  Uiso   1.00
C435   C     0.10886   0.08916   0.76430   0.00000  Uiso   1.00
C436   C     0.13556   0.03628   0.83564   0.00000  Uiso   1.00
C437   C     0.13148   0.96589   0.85922   0.00000  Uiso   1.00
H438   H     0.03011   0.12541   0.60640   0.00000  Uiso   1.00
H439   H     0.91205   0.23335   0.57287   0.00000  Uiso   1.00
H440   H     0.11798   0.14915   0.52753   0.00000  Uiso   1.00
H441   H     0.05203   0.98900   0.70588   0.00000  Uiso   1.00
H442   H     0.79428   0.36047   0.55603   0.00000  Uiso   1.00
H443   H     0.22850   0.18290   0.46045   0.00000  Uiso   1.00
H444   H     0.08943   0.84519   0.83652   0.00000  Uiso   1.00
H445   H     0.13110   0.18259   0.76327   0.00000  Uiso   1.00
H446   H     0.01858   0.29367   0.73834   0.00000  Uiso   1.00
H447   H     0.22451   0.20947   0.69300   0.00000  Uiso   1.00
H448   H     0.15855   0.04932   0.87135   0.00000  Uiso   1.00
H449   H     0.88074   0.40943   0.69033   0.00000  Uiso   1.00
H450   H     0.31496   0.23186   0.59475   0.00000  Uiso   1.00
H451   H     0.17589   0.89415   0.97083   0.00000  Uiso   1.00
O452   O     0.76167   0.45701   0.60393   0.00000  Uiso   1.00
O453   O     0.33136   0.22403   0.47854   0.00000  Uiso   1.00
O454   O     0.14890   0.78097   0.97194   0.00000  Uiso   1.00
N455   N     0.83006   0.35674   0.59107   0.00000  Uiso   1.00
N456   N     0.23603   0.19073   0.50170   0.00000  Uiso   1.00
N457   N     0.10603   0.87500   0.85329   0.00000  Uiso   1.00
N458   N     0.87659   0.38308   0.66334   0.00000  Uiso   1.00
N459   N     0.28255   0.21708   0.57396   0.00000  Uiso   1.00
N460   N     0.15255   0.90134   0.92556   0.00000  Uiso   1.00
C461   C     0.21197   0.36997   0.18282   0.00000  Uiso   1.00
C462   C     0.13434   0.41275   0.16493   0.00000  Uiso   1.00
C463   C     0.10157   0.47785   0.16813   0.00000  Uiso   1.00
C464   C     0.03013   0.50840   0.14966   0.00000  Uiso   1.00
C465   C     0.91526   0.57988   0.12509   0.00000  Uiso   1.00
C466   C     0.22569   0.28885   0.23987   0.00000  Uiso   1.00
C467   C     0.26973   0.24978   0.30607   0.00000  Uiso   1.00
C468   C     0.27518   0.17602   0.35068   0.00000  Uiso   1.00
C469   C     0.30216   0.05512   0.44244   0.00000  Uiso   1.00
C470   C     0.22886   0.36615   0.11730   0.00000  Uiso   1.00
C471   C     0.27559   0.39205   0.08045   0.00000  Uiso   1.00
C472   C     0.28372   0.38335   0.02188   0.00000  Uiso   1.00
C473   C     0.31564   0.38248   0.92333   0.00000  Uiso   1.00
C474   C     0.14335   0.30844   0.14434   0.00000  Uiso   1.00
C475   C     0.09707   0.37932   0.14403   0.00000  Uiso   1.00
C476   C     0.02566   0.40978   0.12555   0.00000  Uiso   1.00
C477   C     0.99279   0.47492   0.12872   0.00000  Uiso   1.00
C478   C     0.18842   0.25543   0.21897   0.00000  Uiso   1.00
C479   C     0.19381   0.18170   0.26350   0.00000  Uiso   1.00
C480   C     0.23784   0.14253   0.32974   0.00000  Uiso   1.00
C481   C     0.19159   0.33273   0.09640   0.00000  Uiso   1.00
C482   C     0.19966   0.32398   0.03788   0.00000  Uiso   1.00
C483   C     0.24639   0.34987   0.00094   0.00000  Uiso   1.00
H484   H     0.24099   0.39599   0.19910   0.00000  Uiso   1.00
H485   H     0.13044   0.50370   0.18431   0.00000  Uiso   1.00
H486   H     0.29857   0.27565   0.32223   0.00000  Uiso   1.00
H487   H     0.30442   0.41791   0.09664   0.00000  Uiso   1.00
H488   H     0.99143   0.60836   0.15872   0.00000  Uiso   1.00
H489   H     0.34596   0.12751   0.44952   0.00000  Uiso   1.00
H490   H     0.35831   0.42748   0.97383   0.00000  Uiso   1.00
H491   H     0.11434   0.28242   0.12807   0.00000  Uiso   1.00
H492   H     0.99683   0.38390   0.10938   0.00000  Uiso   1.00
H493   H     0.16496   0.15586   0.24730   0.00000  Uiso   1.00
H494   H     0.17081   0.29811   0.02172   0.00000  Uiso   1.00
H495   H     0.88299   0.51113   0.09791   0.00000  Uiso   1.00
H496   H     0.23752   0.03027   0.38871   0.00000  Uiso   1.00
H497   H     0.24986   0.33025   0.91302   0.00000  Uiso   1.00
O498   O     0.86220   0.62854   0.11732   0.00000  Uiso   1.00
O499   O     0.32734   0.99768   0.49883   0.00000  Uiso   1.00
O500   O     0.34353   0.39124   0.87474   0.00000  Uiso   1.00
N501   N     0.98204   0.57156   0.14696   0.00000  Uiso   1.00
N502   N     0.31349   0.12200   0.41884   0.00000  Uiso   1.00
N503   N     0.32505   0.40243   0.97413   0.00000  Uiso   1.00
N504   N     0.92368   0.51924   0.11424   0.00000  Uiso   1.00
N505   N     0.25514   0.06968   0.38612   0.00000  Uiso   1.00
N506   N     0.26670   0.35011   0.94140   0.00000  Uiso   1.00
C507   C     0.09965   0.71910   0.27180   0.00000  Uiso   1.00
C508   C     0.02583   0.72542   0.25526   0.00000  Uiso   1.00
C509   C     0.98567   0.70554   0.30412   0.00000  Uiso   1.00
C510   C     0.91942   0.71556   0.27843   0.00000  Uiso   1.00
C511   C     0.80863   0.72093   0.26370   0.00000  Uiso   1.00
C512   C     0.14201   0.67008   0.24396   0.00000  Uiso   1.00
C513   C     0.19954   0.60369   0.28333   0.00000  Uiso   1.00
C514   C     0.23109   0.56714   0.24812   0.00000  Uiso   1.00
C515   C     0.30069   0.48664   0.21584   0.00000  Uiso   1.00
C516   C     0.09942   0.79823   0.22536   0.00000  Uiso   1.00
C517   C     0.12116   0.83957   0.24908   0.00000  Uiso   1.00
C518   C     0.11687   0.91090   0.19821   0.00000  Uiso   1.00
C519   C     0.12035   0.02937   0.13705   0.00000  Uiso   1.00
C520   C     0.05339   0.77226   0.13926   0.00000  Uiso   1.00
C521   C     0.00070   0.75428   0.18327   0.00000  Uiso   1.00
C522   C     0.93449   0.76434   0.15749   0.00000  Uiso   1.00
C523   C     0.89425   0.74448   0.20632   0.00000  Uiso   1.00
C524   C     0.11688   0.69895   0.17197   0.00000  Uiso   1.00
C525   C     0.14835   0.66250   0.13670   0.00000  Uiso   1.00
C526   C     0.20592   0.59606   0.17600   0.00000  Uiso   1.00
C527   C     0.07429   0.82710   0.15337   0.00000  Uiso   1.00
C528   C     0.06997   0.89838   0.10245   0.00000  Uiso   1.00
C529   C     0.09170   0.93983   0.12609   0.00000  Uiso   1.00
H530   H     0.11922   0.69662   0.32784   0.00000  Uiso   1.00
H531   H     0.00514   0.68319   0.35983   0.00000  Uiso   1.00
H532   H     0.21897   0.58137   0.33903   0.00000  Uiso   1.00
H533   H     0.14060   0.81721   0.30479   0.00000  Uiso   1.00
H534   H     0.86759   0.68100   0.36356   0.00000  Uiso   1.00
H535   H     0.31849   0.46631   0.31970   0.00000  Uiso   1.00
H536   H     0.15323   0.96364   0.24749   0.00000  Uiso   1.00
H537   H     0.03383   0.79473   0.08322   0.00000  Uiso   1.00
H538   H     0.91506   0.78668   0.10178   0.00000  Uiso   1.00
H539   H     0.12890   0.68486   0.08099   0.00000  Uiso   1.00
H540   H     0.05053   0.92070   0.04675   0.00000  Uiso   1.00
H541   H     0.79448   0.76500   0.15412   0.00000  Uiso   1.00
H542   H     0.24538   0.55031   0.11026   0.00000  Uiso   1.00
H543   H     0.08012   0.04764   0.03806   0.00000  Uiso   1.00
O544   O     0.75446   0.71591   0.27547   0.00000  Uiso   1.00
O545   O     0.34602   0.43426   0.21792   0.00000  Uiso   1.00
O546   O     0.12921   0.08674   0.12320   0.00000  Uiso   1.00
N547   N     0.86668   0.70189   0.31171   0.00000  Uiso   1.00
N548   N     0.28823   0.50116   0.27071   0.00000  Uiso   1.00
N549   N     0.13375   0.96611   0.20321   0.00000  Uiso   1.00
N550   N     0.82734   0.74709   0.19902   0.00000  Uiso   1.00
N551   N     0.24889   0.54636   0.15801   0.00000  Uiso   1.00
N552   N     0.09441   0.01131   0.09051   0.00000  Uiso   1.00
