data_job_00630
_audit_creation_date              2018-12-19
_audit_creation_method            'Materials Studio'
_symmetry_space_group_name_H-M    'P1'
_symmetry_Int_Tables_number       1
_symmetry_cell_setting            triclinic
loop_
_symmetry_equiv_pos_as_xyz
  x,y,z
_cell_length_a                    14.6093
_cell_length_b                    9.5114
_cell_length_c                    25.1222
_cell_angle_alpha                 90.0000
_cell_angle_beta                  143.5288
_cell_angle_gamma                 90.0000
loop_
_atom_site_label
_atom_site_type_symbol
_atom_site_fract_x
_atom_site_fract_y
_atom_site_fract_z
_atom_site_U_iso_or_equiv
_atom_site_adp_type
_atom_site_occupancy
C1     C     0.28349   0.16657   0.31266   0.00000  Uiso   1.00
C2     C     0.15166   0.12721   0.21378   0.00000  Uiso   1.00
C3     C     0.03147   0.03643   0.16959   0.00000  Uiso   1.00
C4     C     0.92226   0.01408   0.07905   0.00000  Uiso   1.00
C5     C     0.71597   0.94285   0.93232   0.00000  Uiso   1.00
C6     C     0.43133   0.12943   0.35221   0.00000  Uiso   1.00
C7     C     0.54628   0.04053   0.42440   0.00000  Uiso   1.00
C8     C     0.67250   0.02007   0.45040   0.00000  Uiso   1.00
C9     C     0.90045   0.95237   0.51862   0.00000  Uiso   1.00
C10    C     0.28103   0.32650   0.31566   0.00000  Uiso   1.00
C11    C     0.26967   0.40331   0.35715   0.00000  Uiso   1.00
C12    C     0.26938   0.54878   0.35239   0.00000  Uiso   1.00
C13    C     0.26398   0.78706   0.36387   0.00000  Uiso   1.00
C14    C     0.30325   0.28833   0.23046   0.00000  Uiso   1.00
C15    C     0.16240   0.19334   0.16914   0.00000  Uiso   1.00
C16    C     0.05333   0.17114   0.07864   0.00000  Uiso   1.00
C17    C     0.93300   0.08034   0.03432   0.00000  Uiso   1.00
C18    C     0.44206   0.19556   0.30756   0.00000  Uiso   1.00
C19    C     0.56814   0.17524   0.33346   0.00000  Uiso   1.00
C20    C     0.68325   0.08633   0.40567   0.00000  Uiso   1.00
C21    C     0.29176   0.39264   0.27101   0.00000  Uiso   1.00
C22    C     0.29152   0.53802   0.26620   0.00000  Uiso   1.00
C23    C     0.28014   0.61503   0.30766   0.00000  Uiso   1.00
H24    H     0.27514   0.11508   0.34742   0.00000  Uiso   1.00
H25    H     0.02322   0.98526   0.20416   0.00000  Uiso   1.00
H26    H     0.53795   0.98938   0.45895   0.00000  Uiso   1.00
H27    H     0.26136   0.35210   0.39169   0.00000  Uiso   1.00
H28    H     0.74867   0.87045   0.02565   0.00000  Uiso   1.00
H29    H     0.83404   0.87917   0.56289   0.00000  Uiso   1.00
H30    H     0.25081   0.64404   0.42108   0.00000  Uiso   1.00
H31    H     0.31161   0.33982   0.19570   0.00000  Uiso   1.00
H32    H     0.06167   0.22233   0.04411   0.00000  Uiso   1.00
H33    H     0.57641   0.22644   0.29889   0.00000  Uiso   1.00
H34    H     0.29982   0.58916   0.23164   0.00000  Uiso   1.00
H35    H     0.77989   0.06286   0.89575   0.00000  Uiso   1.00
H36    H     0.86527   0.07158   0.43299   0.00000  Uiso   1.00
H37    H     0.28203   0.83645   0.29118   0.00000  Uiso   1.00
O38    O     0.59924   0.88527   0.86372   0.00000  Uiso   1.00
O39    O     0.02321   0.89674   0.56858   0.00000  Uiso   1.00
O40    O     0.25801   0.90022   0.38252   0.00000  Uiso   1.00
N41    N     0.79030   0.93188   0.01588   0.00000  Uiso   1.00
N42    N     0.80505   0.94001   0.51816   0.00000  Uiso   1.00
N43    N     0.25982   0.65510   0.38560   0.00000  Uiso   1.00
N44    N     0.80710   0.03541   0.94598   0.00000  Uiso   1.00
N45    N     0.82184   0.04355   0.44826   0.00000  Uiso   1.00
N46    N     0.27661   0.75864   0.31570   0.00000  Uiso   1.00
C47    C     0.71651   0.66657   0.18734   0.00000  Uiso   1.00
C48    C     0.84834   0.62721   0.28622   0.00000  Uiso   1.00
C49    C     0.96853   0.53643   0.33041   0.00000  Uiso   1.00
C50    C     0.07774   0.51408   0.42095   0.00000  Uiso   1.00
C51    C     0.28403   0.44285   0.56768   0.00000  Uiso   1.00
C52    C     0.56867   0.62943   0.14779   0.00000  Uiso   1.00
C53    C     0.45372   0.54053   0.07560   0.00000  Uiso   1.00
C54    C     0.32750   0.52007   0.04960   0.00000  Uiso   1.00
C55    C     0.09955   0.45237   0.98138   0.00000  Uiso   1.00
C56    C     0.71897   0.82650   0.18434   0.00000  Uiso   1.00
C57    C     0.73033   0.90331   0.14285   0.00000  Uiso   1.00
C58    C     0.73062   0.04878   0.14761   0.00000  Uiso   1.00
C59    C     0.73602   0.28706   0.13613   0.00000  Uiso   1.00
C60    C     0.69675   0.78833   0.26954   0.00000  Uiso   1.00
C61    C     0.83760   0.69334   0.33086   0.00000  Uiso   1.00
C62    C     0.94667   0.67114   0.42136   0.00000  Uiso   1.00
C63    C     0.06700   0.58034   0.46568   0.00000  Uiso   1.00
C64    C     0.55794   0.69556   0.19244   0.00000  Uiso   1.00
C65    C     0.43186   0.67524   0.16654   0.00000  Uiso   1.00
C66    C     0.31675   0.58633   0.09433   0.00000  Uiso   1.00
C67    C     0.70824   0.89264   0.22899   0.00000  Uiso   1.00
C68    C     0.70848   0.03802   0.23380   0.00000  Uiso   1.00
C69    C     0.71986   0.11503   0.19234   0.00000  Uiso   1.00
H70    H     0.72486   0.61508   0.15258   0.00000  Uiso   1.00
H71    H     0.97678   0.48526   0.29584   0.00000  Uiso   1.00
H72    H     0.46205   0.48938   0.04105   0.00000  Uiso   1.00
H73    H     0.73864   0.85210   0.10831   0.00000  Uiso   1.00
H74    H     0.25133   0.37045   0.47435   0.00000  Uiso   1.00
H75    H     0.16596   0.37917   0.93711   0.00000  Uiso   1.00
H76    H     0.74919   0.14404   0.07892   0.00000  Uiso   1.00
H77    H     0.68839   0.83982   0.30430   0.00000  Uiso   1.00
H78    H     0.93833   0.72233   0.45589   0.00000  Uiso   1.00
H79    H     0.42359   0.72644   0.20111   0.00000  Uiso   1.00
H80    H     0.70018   0.08916   0.26836   0.00000  Uiso   1.00
H81    H     0.22011   0.56286   0.60425   0.00000  Uiso   1.00
H82    H     0.13473   0.57158   0.06701   0.00000  Uiso   1.00
H83    H     0.71797   0.33645   0.20882   0.00000  Uiso   1.00
O84    O     0.40076   0.38527   0.63628   0.00000  Uiso   1.00
O85    O     0.97679   0.39674   0.93142   0.00000  Uiso   1.00
O86    O     0.74199   0.40022   0.11748   0.00000  Uiso   1.00
N87    N     0.20970   0.43188   0.48412   0.00000  Uiso   1.00
N88    N     0.19495   0.44001   0.98184   0.00000  Uiso   1.00
N89    N     0.74018   0.15510   0.11440   0.00000  Uiso   1.00
N90    N     0.19290   0.53541   0.55402   0.00000  Uiso   1.00
N91    N     0.17816   0.54355   0.05174   0.00000  Uiso   1.00
N92    N     0.72339   0.25864   0.18430   0.00000  Uiso   1.00
C93    C     0.71651   0.83343   0.68734   0.00000  Uiso   1.00
C94    C     0.84834   0.87279   0.78622   0.00000  Uiso   1.00
C95    C     0.96853   0.96357   0.83041   0.00000  Uiso   1.00
C96    C     0.07774   0.98592   0.92095   0.00000  Uiso   1.00
C97    C     0.28403   0.05715   0.06768   0.00000  Uiso   1.00
C98    C     0.56867   0.87057   0.64779   0.00000  Uiso   1.00
C99    C     0.45372   0.95947   0.57560   0.00000  Uiso   1.00
C100   C     0.32750   0.97993   0.54960   0.00000  Uiso   1.00
C101   C     0.09955   0.04763   0.48138   0.00000  Uiso   1.00
C102   C     0.71897   0.67350   0.68434   0.00000  Uiso   1.00
C103   C     0.73033   0.59669   0.64285   0.00000  Uiso   1.00
C104   C     0.73062   0.45122   0.64761   0.00000  Uiso   1.00
C105   C     0.73602   0.21294   0.63613   0.00000  Uiso   1.00
C106   C     0.69675   0.71167   0.76954   0.00000  Uiso   1.00
C107   C     0.83760   0.80666   0.83086   0.00000  Uiso   1.00
C108   C     0.94667   0.82886   0.92136   0.00000  Uiso   1.00
C109   C     0.06700   0.91966   0.96568   0.00000  Uiso   1.00
C110   C     0.55794   0.80444   0.69244   0.00000  Uiso   1.00
C111   C     0.43186   0.82476   0.66654   0.00000  Uiso   1.00
C112   C     0.31675   0.91367   0.59433   0.00000  Uiso   1.00
C113   C     0.70824   0.60736   0.72899   0.00000  Uiso   1.00
C114   C     0.70848   0.46198   0.73380   0.00000  Uiso   1.00
C115   C     0.71986   0.38497   0.69234   0.00000  Uiso   1.00
H116   H     0.72486   0.88492   0.65258   0.00000  Uiso   1.00
H117   H     0.97678   0.01474   0.79584   0.00000  Uiso   1.00
H118   H     0.46205   0.01062   0.54105   0.00000  Uiso   1.00
H119   H     0.73864   0.64790   0.60831   0.00000  Uiso   1.00
H120   H     0.25133   0.12955   0.97435   0.00000  Uiso   1.00
H121   H     0.16596   0.12083   0.43711   0.00000  Uiso   1.00
H122   H     0.74919   0.35596   0.57892   0.00000  Uiso   1.00
H123   H     0.68839   0.66018   0.80430   0.00000  Uiso   1.00
H124   H     0.93833   0.77767   0.95589   0.00000  Uiso   1.00
H125   H     0.42359   0.77356   0.70111   0.00000  Uiso   1.00
H126   H     0.70018   0.41084   0.76836   0.00000  Uiso   1.00
H127   H     0.22011   0.93714   0.10425   0.00000  Uiso   1.00
H128   H     0.13473   0.92842   0.56701   0.00000  Uiso   1.00
H129   H     0.71797   0.16355   0.70882   0.00000  Uiso   1.00
O130   O     0.40076   0.11473   0.13628   0.00000  Uiso   1.00
O131   O     0.97679   0.10326   0.43142   0.00000  Uiso   1.00
O132   O     0.74199   0.09978   0.61748   0.00000  Uiso   1.00
N133   N     0.20970   0.06812   0.98412   0.00000  Uiso   1.00
N134   N     0.19495   0.05999   0.48184   0.00000  Uiso   1.00
N135   N     0.74018   0.34490   0.61440   0.00000  Uiso   1.00
N136   N     0.19290   0.96459   0.05402   0.00000  Uiso   1.00
N137   N     0.17816   0.95645   0.55174   0.00000  Uiso   1.00
N138   N     0.72339   0.24136   0.68430   0.00000  Uiso   1.00
C139   C     0.28349   0.33343   0.81266   0.00000  Uiso   1.00
C140   C     0.15166   0.37279   0.71378   0.00000  Uiso   1.00
C141   C     0.03147   0.46357   0.66959   0.00000  Uiso   1.00
C142   C     0.92226   0.48592   0.57905   0.00000  Uiso   1.00
C143   C     0.71597   0.55715   0.43232   0.00000  Uiso   1.00
C144   C     0.43133   0.37057   0.85221   0.00000  Uiso   1.00
C145   C     0.54628   0.45947   0.92440   0.00000  Uiso   1.00
C146   C     0.67250   0.47993   0.95040   0.00000  Uiso   1.00
C147   C     0.90045   0.54763   0.01862   0.00000  Uiso   1.00
C148   C     0.28103   0.17350   0.81566   0.00000  Uiso   1.00
C149   C     0.26967   0.09669   0.85715   0.00000  Uiso   1.00
C150   C     0.26938   0.95122   0.85239   0.00000  Uiso   1.00
C151   C     0.26398   0.71294   0.86387   0.00000  Uiso   1.00
C152   C     0.30325   0.21167   0.73046   0.00000  Uiso   1.00
C153   C     0.16240   0.30666   0.66914   0.00000  Uiso   1.00
C154   C     0.05333   0.32886   0.57864   0.00000  Uiso   1.00
C155   C     0.93300   0.41966   0.53432   0.00000  Uiso   1.00
C156   C     0.44206   0.30444   0.80756   0.00000  Uiso   1.00
C157   C     0.56814   0.32476   0.83346   0.00000  Uiso   1.00
C158   C     0.68325   0.41367   0.90567   0.00000  Uiso   1.00
C159   C     0.29176   0.10736   0.77101   0.00000  Uiso   1.00
C160   C     0.29152   0.96198   0.76620   0.00000  Uiso   1.00
C161   C     0.28014   0.88497   0.80766   0.00000  Uiso   1.00
H162   H     0.27514   0.38492   0.84742   0.00000  Uiso   1.00
H163   H     0.02322   0.51474   0.70416   0.00000  Uiso   1.00
H164   H     0.53795   0.51062   0.95895   0.00000  Uiso   1.00
H165   H     0.26136   0.14790   0.89169   0.00000  Uiso   1.00
H166   H     0.74867   0.62955   0.52565   0.00000  Uiso   1.00
H167   H     0.83404   0.62083   0.06289   0.00000  Uiso   1.00
H168   H     0.25081   0.85596   0.92108   0.00000  Uiso   1.00
H169   H     0.31161   0.16018   0.69570   0.00000  Uiso   1.00
H170   H     0.06167   0.27767   0.54411   0.00000  Uiso   1.00
H171   H     0.57641   0.27356   0.79889   0.00000  Uiso   1.00
H172   H     0.29982   0.91084   0.73164   0.00000  Uiso   1.00
H173   H     0.77989   0.43714   0.39575   0.00000  Uiso   1.00
H174   H     0.86527   0.42842   0.93299   0.00000  Uiso   1.00
H175   H     0.28203   0.66355   0.79118   0.00000  Uiso   1.00
O176   O     0.59924   0.61473   0.36372   0.00000  Uiso   1.00
O177   O     0.02321   0.60326   0.06858   0.00000  Uiso   1.00
O178   O     0.25801   0.59978   0.88252   0.00000  Uiso   1.00
N179   N     0.79030   0.56812   0.51588   0.00000  Uiso   1.00
N180   N     0.80505   0.55999   0.01816   0.00000  Uiso   1.00
N181   N     0.25982   0.84490   0.88560   0.00000  Uiso   1.00
N182   N     0.80710   0.46459   0.44598   0.00000  Uiso   1.00
N183   N     0.82184   0.45645   0.94826   0.00000  Uiso   1.00
N184   N     0.27661   0.74136   0.81570   0.00000  Uiso   1.00
