data_job_04027
_audit_creation_date              2018-12-19
_audit_creation_method            'Materials Studio'
_symmetry_space_group_name_H-M    'P1'
_symmetry_Int_Tables_number       1
_symmetry_cell_setting            triclinic
loop_
_symmetry_equiv_pos_as_xyz
  x,y,z
_cell_length_a                    30.3942
_cell_length_b                    41.7894
_cell_length_c                    7.2061
_cell_angle_alpha                 90.0000
_cell_angle_beta                  90.0000
_cell_angle_gamma                 90.0000
loop_
_atom_site_label
_atom_site_type_symbol
_atom_site_fract_x
_atom_site_fract_y
_atom_site_fract_z
_atom_site_U_iso_or_equiv
_atom_site_adp_type
_atom_site_occupancy
C1     C     0.44872   0.09329   0.73770   0.00000  Uiso   1.00
C2     C     0.46480   0.12478   0.82032   0.00000  Uiso   1.00
C3     C     0.46381   0.15435   0.73278   0.00000  Uiso   1.00
C4     C     0.48008   0.18028   0.83176   0.00000  Uiso   1.00
C5     C     0.50254   0.22972   0.93263   0.00000  Uiso   1.00
C6     C     0.48771   0.07038   0.74661   0.00000  Uiso   1.00
C7     C     0.50598   0.05421   0.59709   0.00000  Uiso   1.00
C8     C     0.54154   0.03434   0.63403   0.00000  Uiso   1.00
C9     C     0.59955   0.99930   0.62048   0.00000  Uiso   1.00
C10    C     0.41464   0.08023   0.87330   0.00000  Uiso   1.00
C11    C     0.37148   0.07233   0.83031   0.00000  Uiso   1.00
C12    C     0.34552   0.06075   0.97391   0.00000  Uiso   1.00
C13    C     0.29008   0.04100   0.15707   0.00000  Uiso   1.00
C14    C     0.47936   0.08676   0.06917   0.00000  Uiso   1.00
C15    C     0.48144   0.12123   0.00036   0.00000  Uiso   1.00
C16    C     0.49772   0.14713   0.09951   0.00000  Uiso   1.00
C17    C     0.49675   0.17673   0.01213   0.00000  Uiso   1.00
C18    C     0.50436   0.06683   0.92664   0.00000  Uiso   1.00
C19    C     0.53989   0.04698   0.96382   0.00000  Uiso   1.00
C20    C     0.55821   0.03079   0.81439   0.00000  Uiso   1.00
C21    C     0.43129   0.07668   0.05335   0.00000  Uiso   1.00
C22    C     0.40539   0.06511   0.19704   0.00000  Uiso   1.00
C23    C     0.36219   0.05719   0.15427   0.00000  Uiso   1.00
H24    H     0.43576   0.09605   0.59753   0.00000  Uiso   1.00
H25    H     0.45093   0.15708   0.59344   0.00000  Uiso   1.00
H26    H     0.49309   0.05695   0.45778   0.00000  Uiso   1.00
H27    H     0.35861   0.07508   0.69097   0.00000  Uiso   1.00
H28    H     0.47510   0.22319   0.66828   0.00000  Uiso   1.00
H29    H     0.56400   0.01205   0.38224   0.00000  Uiso   1.00
H30    H     0.28042   0.05026   0.87396   0.00000  Uiso   1.00
H31    H     0.49232   0.08400   0.20934   0.00000  Uiso   1.00
H32    H     0.51059   0.14437   0.23883   0.00000  Uiso   1.00
H33    H     0.55276   0.04424   0.10316   0.00000  Uiso   1.00
H34    H     0.41828   0.06236   0.33635   0.00000  Uiso   1.00
H35    H     0.52353   0.21287   0.19210   0.00000  Uiso   1.00
H36    H     0.61243   0.00173   0.90606   0.00000  Uiso   1.00
H37    H     0.32885   0.03995   0.39777   0.00000  Uiso   1.00
O38    O     0.51033   0.25796   0.93853   0.00000  Uiso   1.00
O39    O     0.62695   0.98095   0.56326   0.00000  Uiso   1.00
O40    O     0.25490   0.03109   0.20837   0.00000  Uiso   1.00
N41    N     0.48399   0.21248   0.78753   0.00000  Uiso   1.00
N42    N     0.56710   0.01508   0.52009   0.00000  Uiso   1.00
N43    N     0.30198   0.05080   0.97979   0.00000  Uiso   1.00
N44    N     0.51004   0.20692   0.06939   0.00000  Uiso   1.00
N45    N     0.59316   0.00953   0.80196   0.00000  Uiso   1.00
N46    N     0.32804   0.04524   0.26166   0.00000  Uiso   1.00
C47    C     0.44872   0.59329   0.23770   0.00000  Uiso   1.00
C48    C     0.46480   0.62478   0.32032   0.00000  Uiso   1.00
C49    C     0.46381   0.65435   0.23278   0.00000  Uiso   1.00
C50    C     0.48008   0.68028   0.33176   0.00000  Uiso   1.00
C51    C     0.50254   0.72972   0.43263   0.00000  Uiso   1.00
C52    C     0.48771   0.57038   0.24661   0.00000  Uiso   1.00
C53    C     0.50598   0.55421   0.09709   0.00000  Uiso   1.00
C54    C     0.54154   0.53434   0.13403   0.00000  Uiso   1.00
C55    C     0.59955   0.49930   0.12048   0.00000  Uiso   1.00
C56    C     0.41464   0.58023   0.37330   0.00000  Uiso   1.00
C57    C     0.37148   0.57233   0.33031   0.00000  Uiso   1.00
C58    C     0.34552   0.56075   0.47391   0.00000  Uiso   1.00
C59    C     0.29008   0.54100   0.65707   0.00000  Uiso   1.00
C60    C     0.47936   0.58676   0.56917   0.00000  Uiso   1.00
C61    C     0.48144   0.62123   0.50036   0.00000  Uiso   1.00
C62    C     0.49772   0.64713   0.59951   0.00000  Uiso   1.00
C63    C     0.49675   0.67673   0.51213   0.00000  Uiso   1.00
C64    C     0.50436   0.56683   0.42664   0.00000  Uiso   1.00
C65    C     0.53989   0.54698   0.46382   0.00000  Uiso   1.00
C66    C     0.55821   0.53079   0.31439   0.00000  Uiso   1.00
C67    C     0.43129   0.57668   0.55335   0.00000  Uiso   1.00
C68    C     0.40539   0.56511   0.69704   0.00000  Uiso   1.00
C69    C     0.36219   0.55719   0.65427   0.00000  Uiso   1.00
H70    H     0.43576   0.59605   0.09753   0.00000  Uiso   1.00
H71    H     0.45093   0.65708   0.09344   0.00000  Uiso   1.00
H72    H     0.49309   0.55695   0.95778   0.00000  Uiso   1.00
H73    H     0.35861   0.57508   0.19097   0.00000  Uiso   1.00
H74    H     0.47510   0.72319   0.16828   0.00000  Uiso   1.00
H75    H     0.56400   0.51205   0.88224   0.00000  Uiso   1.00
H76    H     0.28042   0.55026   0.37396   0.00000  Uiso   1.00
H77    H     0.49232   0.58400   0.70934   0.00000  Uiso   1.00
H78    H     0.51059   0.64437   0.73883   0.00000  Uiso   1.00
H79    H     0.55276   0.54424   0.60316   0.00000  Uiso   1.00
H80    H     0.41828   0.56236   0.83635   0.00000  Uiso   1.00
H81    H     0.52353   0.71287   0.69210   0.00000  Uiso   1.00
H82    H     0.61243   0.50173   0.40606   0.00000  Uiso   1.00
H83    H     0.32885   0.53995   0.89777   0.00000  Uiso   1.00
O84    O     0.51033   0.75796   0.43853   0.00000  Uiso   1.00
O85    O     0.62695   0.48095   0.06326   0.00000  Uiso   1.00
O86    O     0.25490   0.53109   0.70837   0.00000  Uiso   1.00
N87    N     0.48399   0.71248   0.28753   0.00000  Uiso   1.00
N88    N     0.56710   0.51508   0.02009   0.00000  Uiso   1.00
N89    N     0.30198   0.55080   0.47979   0.00000  Uiso   1.00
N90    N     0.51004   0.70692   0.56939   0.00000  Uiso   1.00
N91    N     0.59316   0.50953   0.30196   0.00000  Uiso   1.00
N92    N     0.32804   0.54524   0.76166   0.00000  Uiso   1.00
C93    C     0.55128   0.90671   0.73770   0.00000  Uiso   1.00
C94    C     0.53520   0.87522   0.82032   0.00000  Uiso   1.00
C95    C     0.53619   0.84565   0.73278   0.00000  Uiso   1.00
C96    C     0.51992   0.81972   0.83176   0.00000  Uiso   1.00
C97    C     0.49746   0.77028   0.93263   0.00000  Uiso   1.00
C98    C     0.51229   0.92962   0.74661   0.00000  Uiso   1.00
C99    C     0.49402   0.94579   0.59709   0.00000  Uiso   1.00
C100   C     0.45846   0.96566   0.63403   0.00000  Uiso   1.00
C101   C     0.40045   0.00070   0.62048   0.00000  Uiso   1.00
C102   C     0.58536   0.91977   0.87330   0.00000  Uiso   1.00
C103   C     0.62852   0.92767   0.83031   0.00000  Uiso   1.00
C104   C     0.65448   0.93925   0.97391   0.00000  Uiso   1.00
C105   C     0.70992   0.95900   0.15707   0.00000  Uiso   1.00
C106   C     0.52064   0.91324   0.06917   0.00000  Uiso   1.00
C107   C     0.51856   0.87877   0.00036   0.00000  Uiso   1.00
C108   C     0.50228   0.85287   0.09951   0.00000  Uiso   1.00
C109   C     0.50325   0.82327   0.01213   0.00000  Uiso   1.00
C110   C     0.49564   0.93317   0.92664   0.00000  Uiso   1.00
C111   C     0.46011   0.95302   0.96382   0.00000  Uiso   1.00
C112   C     0.44179   0.96921   0.81439   0.00000  Uiso   1.00
C113   C     0.56871   0.92332   0.05335   0.00000  Uiso   1.00
C114   C     0.59461   0.93489   0.19704   0.00000  Uiso   1.00
C115   C     0.63781   0.94281   0.15427   0.00000  Uiso   1.00
H116   H     0.56424   0.90395   0.59753   0.00000  Uiso   1.00
H117   H     0.54907   0.84292   0.59344   0.00000  Uiso   1.00
H118   H     0.50691   0.94305   0.45778   0.00000  Uiso   1.00
H119   H     0.64139   0.92492   0.69097   0.00000  Uiso   1.00
H120   H     0.52490   0.77681   0.66828   0.00000  Uiso   1.00
H121   H     0.43600   0.98795   0.38224   0.00000  Uiso   1.00
H122   H     0.71958   0.94974   0.87396   0.00000  Uiso   1.00
H123   H     0.50768   0.91600   0.20934   0.00000  Uiso   1.00
H124   H     0.48941   0.85563   0.23883   0.00000  Uiso   1.00
H125   H     0.44724   0.95576   0.10316   0.00000  Uiso   1.00
H126   H     0.58172   0.93764   0.33635   0.00000  Uiso   1.00
H127   H     0.47647   0.78713   0.19210   0.00000  Uiso   1.00
H128   H     0.38757   0.99827   0.90606   0.00000  Uiso   1.00
H129   H     0.67115   0.96005   0.39777   0.00000  Uiso   1.00
O130   O     0.48967   0.74204   0.93853   0.00000  Uiso   1.00
O131   O     0.37305   0.01905   0.56326   0.00000  Uiso   1.00
O132   O     0.74510   0.96891   0.20837   0.00000  Uiso   1.00
N133   N     0.51601   0.78752   0.78753   0.00000  Uiso   1.00
N134   N     0.43290   0.98492   0.52009   0.00000  Uiso   1.00
N135   N     0.69802   0.94920   0.97979   0.00000  Uiso   1.00
N136   N     0.48996   0.79308   0.06939   0.00000  Uiso   1.00
N137   N     0.40684   0.99047   0.80196   0.00000  Uiso   1.00
N138   N     0.67196   0.95476   0.26166   0.00000  Uiso   1.00
C139   C     0.55128   0.40671   0.23770   0.00000  Uiso   1.00
C140   C     0.53520   0.37522   0.32032   0.00000  Uiso   1.00
C141   C     0.53619   0.34565   0.23278   0.00000  Uiso   1.00
C142   C     0.51992   0.31972   0.33176   0.00000  Uiso   1.00
C143   C     0.49746   0.27028   0.43263   0.00000  Uiso   1.00
C144   C     0.51229   0.42962   0.24661   0.00000  Uiso   1.00
C145   C     0.49402   0.44579   0.09709   0.00000  Uiso   1.00
C146   C     0.45846   0.46566   0.13403   0.00000  Uiso   1.00
C147   C     0.40045   0.50070   0.12048   0.00000  Uiso   1.00
C148   C     0.58536   0.41977   0.37330   0.00000  Uiso   1.00
C149   C     0.62852   0.42767   0.33031   0.00000  Uiso   1.00
C150   C     0.65448   0.43925   0.47391   0.00000  Uiso   1.00
C151   C     0.70992   0.45900   0.65707   0.00000  Uiso   1.00
C152   C     0.52064   0.41324   0.56917   0.00000  Uiso   1.00
C153   C     0.51856   0.37877   0.50036   0.00000  Uiso   1.00
C154   C     0.50228   0.35287   0.59951   0.00000  Uiso   1.00
C155   C     0.50325   0.32327   0.51213   0.00000  Uiso   1.00
C156   C     0.49564   0.43317   0.42664   0.00000  Uiso   1.00
C157   C     0.46011   0.45302   0.46382   0.00000  Uiso   1.00
C158   C     0.44179   0.46921   0.31439   0.00000  Uiso   1.00
C159   C     0.56871   0.42332   0.55335   0.00000  Uiso   1.00
C160   C     0.59461   0.43489   0.69704   0.00000  Uiso   1.00
C161   C     0.63781   0.44281   0.65427   0.00000  Uiso   1.00
H162   H     0.56424   0.40395   0.09753   0.00000  Uiso   1.00
H163   H     0.54907   0.34292   0.09344   0.00000  Uiso   1.00
H164   H     0.50691   0.44305   0.95778   0.00000  Uiso   1.00
H165   H     0.64139   0.42492   0.19097   0.00000  Uiso   1.00
H166   H     0.52490   0.27681   0.16828   0.00000  Uiso   1.00
H167   H     0.43600   0.48795   0.88224   0.00000  Uiso   1.00
H168   H     0.71958   0.44974   0.37396   0.00000  Uiso   1.00
H169   H     0.50768   0.41600   0.70934   0.00000  Uiso   1.00
H170   H     0.48941   0.35563   0.73883   0.00000  Uiso   1.00
H171   H     0.44724   0.45576   0.60316   0.00000  Uiso   1.00
H172   H     0.58172   0.43764   0.83635   0.00000  Uiso   1.00
H173   H     0.47647   0.28713   0.69210   0.00000  Uiso   1.00
H174   H     0.38757   0.49827   0.40606   0.00000  Uiso   1.00
H175   H     0.67115   0.46005   0.89777   0.00000  Uiso   1.00
O176   O     0.48967   0.24204   0.43853   0.00000  Uiso   1.00
O177   O     0.37305   0.51905   0.06326   0.00000  Uiso   1.00
O178   O     0.74510   0.46891   0.70837   0.00000  Uiso   1.00
N179   N     0.51601   0.28752   0.28753   0.00000  Uiso   1.00
N180   N     0.43290   0.48492   0.02009   0.00000  Uiso   1.00
N181   N     0.69802   0.44920   0.47979   0.00000  Uiso   1.00
N182   N     0.48996   0.29308   0.56939   0.00000  Uiso   1.00
N183   N     0.40684   0.49047   0.30196   0.00000  Uiso   1.00
N184   N     0.67196   0.45476   0.76166   0.00000  Uiso   1.00
C185   C     0.94872   0.40671   0.73770   0.00000  Uiso   1.00
C186   C     0.96480   0.37522   0.82032   0.00000  Uiso   1.00
C187   C     0.96381   0.34565   0.73278   0.00000  Uiso   1.00
C188   C     0.98008   0.31972   0.83176   0.00000  Uiso   1.00
C189   C     0.00254   0.27028   0.93263   0.00000  Uiso   1.00
C190   C     0.98771   0.42962   0.74661   0.00000  Uiso   1.00
C191   C     0.00598   0.44579   0.59709   0.00000  Uiso   1.00
C192   C     0.04154   0.46566   0.63403   0.00000  Uiso   1.00
C193   C     0.09955   0.50070   0.62048   0.00000  Uiso   1.00
C194   C     0.91464   0.41977   0.87330   0.00000  Uiso   1.00
C195   C     0.87148   0.42767   0.83031   0.00000  Uiso   1.00
C196   C     0.84552   0.43925   0.97391   0.00000  Uiso   1.00
C197   C     0.79008   0.45900   0.15707   0.00000  Uiso   1.00
C198   C     0.97936   0.41324   0.06917   0.00000  Uiso   1.00
C199   C     0.98144   0.37877   0.00036   0.00000  Uiso   1.00
C200   C     0.99772   0.35287   0.09951   0.00000  Uiso   1.00
C201   C     0.99675   0.32327   0.01213   0.00000  Uiso   1.00
C202   C     0.00436   0.43317   0.92664   0.00000  Uiso   1.00
C203   C     0.03989   0.45302   0.96382   0.00000  Uiso   1.00
C204   C     0.05821   0.46921   0.81439   0.00000  Uiso   1.00
C205   C     0.93129   0.42332   0.05335   0.00000  Uiso   1.00
C206   C     0.90539   0.43489   0.19704   0.00000  Uiso   1.00
C207   C     0.86219   0.44281   0.15427   0.00000  Uiso   1.00
H208   H     0.93576   0.40395   0.59753   0.00000  Uiso   1.00
H209   H     0.95093   0.34292   0.59344   0.00000  Uiso   1.00
H210   H     0.99309   0.44305   0.45778   0.00000  Uiso   1.00
H211   H     0.85861   0.42492   0.69097   0.00000  Uiso   1.00
H212   H     0.97510   0.27681   0.66828   0.00000  Uiso   1.00
H213   H     0.06400   0.48795   0.38224   0.00000  Uiso   1.00
H214   H     0.78042   0.44974   0.87396   0.00000  Uiso   1.00
H215   H     0.99232   0.41600   0.20934   0.00000  Uiso   1.00
H216   H     0.01059   0.35563   0.23883   0.00000  Uiso   1.00
H217   H     0.05276   0.45576   0.10316   0.00000  Uiso   1.00
H218   H     0.91828   0.43764   0.33635   0.00000  Uiso   1.00
H219   H     0.02353   0.28713   0.19210   0.00000  Uiso   1.00
H220   H     0.11243   0.49827   0.90606   0.00000  Uiso   1.00
H221   H     0.82885   0.46005   0.39777   0.00000  Uiso   1.00
O222   O     0.01033   0.24204   0.93853   0.00000  Uiso   1.00
O223   O     0.12695   0.51905   0.56326   0.00000  Uiso   1.00
O224   O     0.75490   0.46891   0.20837   0.00000  Uiso   1.00
N225   N     0.98399   0.28752   0.78753   0.00000  Uiso   1.00
N226   N     0.06710   0.48492   0.52009   0.00000  Uiso   1.00
N227   N     0.80198   0.44920   0.97979   0.00000  Uiso   1.00
N228   N     0.01004   0.29308   0.06939   0.00000  Uiso   1.00
N229   N     0.09316   0.49047   0.80196   0.00000  Uiso   1.00
N230   N     0.82804   0.45476   0.26166   0.00000  Uiso   1.00
C231   C     0.94872   0.90671   0.23770   0.00000  Uiso   1.00
C232   C     0.96480   0.87522   0.32032   0.00000  Uiso   1.00
C233   C     0.96381   0.84565   0.23278   0.00000  Uiso   1.00
C234   C     0.98008   0.81972   0.33176   0.00000  Uiso   1.00
C235   C     0.00254   0.77028   0.43263   0.00000  Uiso   1.00
C236   C     0.98771   0.92962   0.24661   0.00000  Uiso   1.00
C237   C     0.00598   0.94579   0.09709   0.00000  Uiso   1.00
C238   C     0.04154   0.96566   0.13403   0.00000  Uiso   1.00
C239   C     0.09955   0.00070   0.12048   0.00000  Uiso   1.00
C240   C     0.91464   0.91977   0.37330   0.00000  Uiso   1.00
C241   C     0.87148   0.92767   0.33031   0.00000  Uiso   1.00
C242   C     0.84552   0.93925   0.47391   0.00000  Uiso   1.00
C243   C     0.79008   0.95900   0.65707   0.00000  Uiso   1.00
C244   C     0.97936   0.91324   0.56917   0.00000  Uiso   1.00
C245   C     0.98144   0.87877   0.50036   0.00000  Uiso   1.00
C246   C     0.99772   0.85287   0.59951   0.00000  Uiso   1.00
C247   C     0.99675   0.82327   0.51213   0.00000  Uiso   1.00
C248   C     0.00436   0.93317   0.42664   0.00000  Uiso   1.00
C249   C     0.03989   0.95302   0.46382   0.00000  Uiso   1.00
C250   C     0.05821   0.96921   0.31439   0.00000  Uiso   1.00
C251   C     0.93129   0.92332   0.55335   0.00000  Uiso   1.00
C252   C     0.90539   0.93489   0.69704   0.00000  Uiso   1.00
C253   C     0.86219   0.94281   0.65427   0.00000  Uiso   1.00
H254   H     0.93576   0.90395   0.09753   0.00000  Uiso   1.00
H255   H     0.95093   0.84292   0.09344   0.00000  Uiso   1.00
H256   H     0.99309   0.94305   0.95778   0.00000  Uiso   1.00
H257   H     0.85861   0.92492   0.19097   0.00000  Uiso   1.00
H258   H     0.97510   0.77681   0.16828   0.00000  Uiso   1.00
H259   H     0.06400   0.98795   0.88224   0.00000  Uiso   1.00
H260   H     0.78042   0.94974   0.37396   0.00000  Uiso   1.00
H261   H     0.99232   0.91600   0.70934   0.00000  Uiso   1.00
H262   H     0.01059   0.85563   0.73883   0.00000  Uiso   1.00
H263   H     0.05276   0.95576   0.60316   0.00000  Uiso   1.00
H264   H     0.91828   0.93764   0.83635   0.00000  Uiso   1.00
H265   H     0.02353   0.78713   0.69210   0.00000  Uiso   1.00
H266   H     0.11243   0.99827   0.40606   0.00000  Uiso   1.00
H267   H     0.82885   0.96005   0.89777   0.00000  Uiso   1.00
O268   O     0.01033   0.74204   0.43853   0.00000  Uiso   1.00
O269   O     0.12695   0.01905   0.06326   0.00000  Uiso   1.00
O270   O     0.75490   0.96891   0.70837   0.00000  Uiso   1.00
N271   N     0.98399   0.78752   0.28753   0.00000  Uiso   1.00
N272   N     0.06710   0.98492   0.02009   0.00000  Uiso   1.00
N273   N     0.80198   0.94920   0.47979   0.00000  Uiso   1.00
N274   N     0.01004   0.79308   0.56939   0.00000  Uiso   1.00
N275   N     0.09316   0.99047   0.30196   0.00000  Uiso   1.00
N276   N     0.82804   0.95476   0.76166   0.00000  Uiso   1.00
C277   C     0.05128   0.59329   0.73770   0.00000  Uiso   1.00
C278   C     0.03520   0.62478   0.82032   0.00000  Uiso   1.00
C279   C     0.03619   0.65435   0.73278   0.00000  Uiso   1.00
C280   C     0.01992   0.68028   0.83176   0.00000  Uiso   1.00
C281   C     0.99746   0.72972   0.93263   0.00000  Uiso   1.00
C282   C     0.01229   0.57038   0.74661   0.00000  Uiso   1.00
C283   C     0.99402   0.55421   0.59709   0.00000  Uiso   1.00
C284   C     0.95846   0.53434   0.63403   0.00000  Uiso   1.00
C285   C     0.90045   0.49930   0.62048   0.00000  Uiso   1.00
C286   C     0.08536   0.58023   0.87330   0.00000  Uiso   1.00
C287   C     0.12852   0.57233   0.83031   0.00000  Uiso   1.00
C288   C     0.15448   0.56075   0.97391   0.00000  Uiso   1.00
C289   C     0.20992   0.54100   0.15707   0.00000  Uiso   1.00
C290   C     0.02064   0.58676   0.06917   0.00000  Uiso   1.00
C291   C     0.01856   0.62123   0.00036   0.00000  Uiso   1.00
C292   C     0.00228   0.64713   0.09951   0.00000  Uiso   1.00
C293   C     0.00325   0.67673   0.01213   0.00000  Uiso   1.00
C294   C     0.99564   0.56683   0.92664   0.00000  Uiso   1.00
C295   C     0.96011   0.54698   0.96382   0.00000  Uiso   1.00
C296   C     0.94179   0.53079   0.81439   0.00000  Uiso   1.00
C297   C     0.06871   0.57668   0.05335   0.00000  Uiso   1.00
C298   C     0.09461   0.56511   0.19704   0.00000  Uiso   1.00
C299   C     0.13781   0.55719   0.15427   0.00000  Uiso   1.00
H300   H     0.06424   0.59605   0.59753   0.00000  Uiso   1.00
H301   H     0.04907   0.65708   0.59344   0.00000  Uiso   1.00
H302   H     0.00691   0.55695   0.45778   0.00000  Uiso   1.00
H303   H     0.14139   0.57508   0.69097   0.00000  Uiso   1.00
H304   H     0.02490   0.72319   0.66828   0.00000  Uiso   1.00
H305   H     0.93600   0.51205   0.38224   0.00000  Uiso   1.00
H306   H     0.21958   0.55026   0.87396   0.00000  Uiso   1.00
H307   H     0.00768   0.58400   0.20934   0.00000  Uiso   1.00
H308   H     0.98941   0.64437   0.23883   0.00000  Uiso   1.00
H309   H     0.94724   0.54424   0.10316   0.00000  Uiso   1.00
H310   H     0.08172   0.56236   0.33635   0.00000  Uiso   1.00
H311   H     0.97647   0.71287   0.19210   0.00000  Uiso   1.00
H312   H     0.88757   0.50173   0.90606   0.00000  Uiso   1.00
H313   H     0.17115   0.53995   0.39777   0.00000  Uiso   1.00
O314   O     0.98967   0.75796   0.93853   0.00000  Uiso   1.00
O315   O     0.87305   0.48095   0.56326   0.00000  Uiso   1.00
O316   O     0.24510   0.53109   0.20837   0.00000  Uiso   1.00
N317   N     0.01601   0.71248   0.78753   0.00000  Uiso   1.00
N318   N     0.93290   0.51508   0.52009   0.00000  Uiso   1.00
N319   N     0.19802   0.55080   0.97979   0.00000  Uiso   1.00
N320   N     0.98996   0.70692   0.06939   0.00000  Uiso   1.00
N321   N     0.90684   0.50953   0.80196   0.00000  Uiso   1.00
N322   N     0.17196   0.54524   0.26166   0.00000  Uiso   1.00
C323   C     0.05128   0.09329   0.23770   0.00000  Uiso   1.00
C324   C     0.03520   0.12478   0.32032   0.00000  Uiso   1.00
C325   C     0.03619   0.15435   0.23278   0.00000  Uiso   1.00
C326   C     0.01992   0.18028   0.33176   0.00000  Uiso   1.00
C327   C     0.99746   0.22972   0.43263   0.00000  Uiso   1.00
C328   C     0.01229   0.07038   0.24661   0.00000  Uiso   1.00
C329   C     0.99402   0.05421   0.09709   0.00000  Uiso   1.00
C330   C     0.95846   0.03434   0.13403   0.00000  Uiso   1.00
C331   C     0.90045   0.99930   0.12048   0.00000  Uiso   1.00
C332   C     0.08536   0.08023   0.37330   0.00000  Uiso   1.00
C333   C     0.12852   0.07233   0.33031   0.00000  Uiso   1.00
C334   C     0.15448   0.06075   0.47391   0.00000  Uiso   1.00
C335   C     0.20992   0.04100   0.65707   0.00000  Uiso   1.00
C336   C     0.02064   0.08676   0.56917   0.00000  Uiso   1.00
C337   C     0.01856   0.12123   0.50036   0.00000  Uiso   1.00
C338   C     0.00228   0.14713   0.59951   0.00000  Uiso   1.00
C339   C     0.00325   0.17673   0.51213   0.00000  Uiso   1.00
C340   C     0.99564   0.06683   0.42664   0.00000  Uiso   1.00
C341   C     0.96011   0.04698   0.46382   0.00000  Uiso   1.00
C342   C     0.94179   0.03079   0.31439   0.00000  Uiso   1.00
C343   C     0.06871   0.07668   0.55335   0.00000  Uiso   1.00
C344   C     0.09461   0.06511   0.69704   0.00000  Uiso   1.00
C345   C     0.13781   0.05719   0.65427   0.00000  Uiso   1.00
H346   H     0.06424   0.09605   0.09753   0.00000  Uiso   1.00
H347   H     0.04907   0.15708   0.09344   0.00000  Uiso   1.00
H348   H     0.00691   0.05695   0.95778   0.00000  Uiso   1.00
H349   H     0.14139   0.07508   0.19097   0.00000  Uiso   1.00
H350   H     0.02490   0.22319   0.16828   0.00000  Uiso   1.00
H351   H     0.93600   0.01205   0.88224   0.00000  Uiso   1.00
H352   H     0.21958   0.05026   0.37396   0.00000  Uiso   1.00
H353   H     0.00768   0.08400   0.70934   0.00000  Uiso   1.00
H354   H     0.98941   0.14437   0.73883   0.00000  Uiso   1.00
H355   H     0.94724   0.04424   0.60316   0.00000  Uiso   1.00
H356   H     0.08172   0.06236   0.83635   0.00000  Uiso   1.00
H357   H     0.97647   0.21287   0.69210   0.00000  Uiso   1.00
H358   H     0.88757   0.00173   0.40606   0.00000  Uiso   1.00
H359   H     0.17115   0.03995   0.89777   0.00000  Uiso   1.00
O360   O     0.98967   0.25796   0.43853   0.00000  Uiso   1.00
O361   O     0.87305   0.98095   0.06326   0.00000  Uiso   1.00
O362   O     0.24510   0.03109   0.70837   0.00000  Uiso   1.00
N363   N     0.01601   0.21248   0.28753   0.00000  Uiso   1.00
N364   N     0.93290   0.01508   0.02009   0.00000  Uiso   1.00
N365   N     0.19802   0.05080   0.47979   0.00000  Uiso   1.00
N366   N     0.98996   0.20692   0.56939   0.00000  Uiso   1.00
N367   N     0.90684   0.00953   0.30196   0.00000  Uiso   1.00
N368   N     0.17196   0.04524   0.76166   0.00000  Uiso   1.00
