data_job_05731
_audit_creation_date              2018-12-19
_audit_creation_method            'Materials Studio'
_symmetry_space_group_name_H-M    'P1'
_symmetry_Int_Tables_number       1
_symmetry_cell_setting            triclinic
loop_
_symmetry_equiv_pos_as_xyz
  x,y,z
_cell_length_a                    12.3237
_cell_length_b                    76.1469
_cell_length_c                    12.3193
_cell_angle_alpha                 90.0000
_cell_angle_beta                  60.0613
_cell_angle_gamma                 90.0000
loop_
_atom_site_label
_atom_site_type_symbol
_atom_site_fract_x
_atom_site_fract_y
_atom_site_fract_z
_atom_site_U_iso_or_equiv
_atom_site_adp_type
_atom_site_occupancy
C1     C     0.13617   0.69724   0.86065   0.00000  Uiso   1.00
C2     C     0.22945   0.70350   0.89944   0.00000  Uiso   1.00
C3     C     0.25052   0.69566   0.98897   0.00000  Uiso   1.00
C4     C     0.33978   0.70339   0.01097   0.00000  Uiso   1.00
C5     C     0.47458   0.71083   0.08118   0.00000  Uiso   1.00
C6     C     0.05033   0.71281   0.88077   0.00000  Uiso   1.00
C7     C     0.92080   0.71281   0.95459   0.00000  Uiso   1.00
C8     C     0.85928   0.72838   0.96087   0.00000  Uiso   1.00
C9     C     0.71598   0.75028   0.00201   0.00000  Uiso   1.00
C10    C     0.21168   0.69436   0.71941   0.00000  Uiso   1.00
C11    C     0.21779   0.67883   0.65756   0.00000  Uiso   1.00
C12    C     0.29210   0.67887   0.52797   0.00000  Uiso   1.00
C13    C     0.39932   0.67211   0.31859   0.00000  Uiso   1.00
C14    C     0.25722   0.72490   0.74051   0.00000  Uiso   1.00
C15    C     0.29520   0.71852   0.83418   0.00000  Uiso   1.00
C16    C     0.38446   0.72626   0.85605   0.00000  Uiso   1.00
C17    C     0.40566   0.71844   0.94560   0.00000  Uiso   1.00
C18    C     0.11607   0.72784   0.81552   0.00000  Uiso   1.00
C19    C     0.05473   0.74341   0.82168   0.00000  Uiso   1.00
C20    C     0.92515   0.74343   0.89550   0.00000  Uiso   1.00
C21    C     0.27744   0.70938   0.65416   0.00000  Uiso   1.00
C22    C     0.35174   0.70944   0.52464   0.00000  Uiso   1.00
C23    C     0.35797   0.69392   0.46260   0.00000  Uiso   1.00
H24    H     0.08497   0.68554   0.91145   0.00000  Uiso   1.00
H25    H     0.19961   0.68404   0.03946   0.00000  Uiso   1.00
H26    H     0.86994   0.70118   0.00507   0.00000  Uiso   1.00
H27    H     0.16690   0.66721   0.70808   0.00000  Uiso   1.00
H28    H     0.35567   0.68900   0.15263   0.00000  Uiso   1.00
H29    H     0.66054   0.72514   0.08009   0.00000  Uiso   1.00
H30    H     0.28673   0.65351   0.45384   0.00000  Uiso   1.00
H31    H     0.30841   0.73659   0.68970   0.00000  Uiso   1.00
H32    H     0.43532   0.73789   0.80554   0.00000  Uiso   1.00
H33    H     0.10565   0.75503   0.77116   0.00000  Uiso   1.00
H34    H     0.40261   0.72106   0.47418   0.00000  Uiso   1.00
H35    H     0.54698   0.73271   0.96278   0.00000  Uiso   1.00
H36    H     0.85185   0.76885   0.89024   0.00000  Uiso   1.00
H37    H     0.47804   0.69722   0.26399   0.00000  Uiso   1.00
O38    O     0.53075   0.71079   0.13794   0.00000  Uiso   1.00
O39    O     0.61877   0.75820   0.04275   0.00000  Uiso   1.00
O40    O     0.44031   0.66423   0.22113   0.00000  Uiso   1.00
N41    N     0.38330   0.69911   0.09203   0.00000  Uiso   1.00
N42    N     0.73339   0.73290   0.02423   0.00000  Uiso   1.00
N43    N     0.31880   0.66593   0.43873   0.00000  Uiso   1.00
N44    N     0.48624   0.72262   0.98988   0.00000  Uiso   1.00
N45    N     0.83634   0.75642   0.92208   0.00000  Uiso   1.00
N46    N     0.42174   0.68945   0.33658   0.00000  Uiso   1.00
C47    C     0.87543   0.36393   0.01200   0.00000  Uiso   1.00
C48    C     0.91414   0.37018   0.87995   0.00000  Uiso   1.00
C49    C     0.00356   0.36233   0.76953   0.00000  Uiso   1.00
C50    C     0.02551   0.37004   0.65825   0.00000  Uiso   1.00
C51    C     0.09557   0.37746   0.45331   0.00000  Uiso   1.00
C52    C     0.89566   0.37952   0.07765   0.00000  Uiso   1.00
C53    C     0.96954   0.37952   0.13345   0.00000  Uiso   1.00
C54    C     0.97591   0.39510   0.18860   0.00000  Uiso   1.00
C55    C     0.01721   0.41701   0.29066   0.00000  Uiso   1.00
C56    C     0.73424   0.36106   0.07754   0.00000  Uiso   1.00
C57    C     0.67237   0.34555   0.13330   0.00000  Uiso   1.00
C58    C     0.54283   0.34558   0.18839   0.00000  Uiso   1.00
C59    C     0.33350   0.33884   0.29030   0.00000  Uiso   1.00
C60    C     0.75538   0.39159   0.01073   0.00000  Uiso   1.00
C61    C     0.84894   0.38520   0.87927   0.00000  Uiso   1.00
C62    C     0.87074   0.39293   0.76812   0.00000  Uiso   1.00
C63    C     0.96018   0.38509   0.65755   0.00000  Uiso   1.00
C64    C     0.83046   0.39454   0.07696   0.00000  Uiso   1.00
C65    C     0.83672   0.41012   0.13204   0.00000  Uiso   1.00
C66    C     0.91058   0.41014   0.18791   0.00000  Uiso   1.00
C67    C     0.66903   0.37608   0.07685   0.00000  Uiso   1.00
C68    C     0.53955   0.37615   0.13188   0.00000  Uiso   1.00
C69    C     0.47750   0.36063   0.18770   0.00000  Uiso   1.00
H70    H     0.92620   0.35224   0.01255   0.00000  Uiso   1.00
H71    H     0.05401   0.35070   0.77010   0.00000  Uiso   1.00
H72    H     0.01997   0.36789   0.13398   0.00000  Uiso   1.00
H73    H     0.72286   0.33392   0.13382   0.00000  Uiso   1.00
H74    H     0.16699   0.35563   0.50100   0.00000  Uiso   1.00
H75    H     0.09519   0.39187   0.26829   0.00000  Uiso   1.00
H76    H     0.46867   0.32024   0.26796   0.00000  Uiso   1.00
H77    H     0.70462   0.40329   0.01020   0.00000  Uiso   1.00
H78    H     0.82027   0.40455   0.76762   0.00000  Uiso   1.00
H79    H     0.78624   0.42174   0.13150   0.00000  Uiso   1.00
H80    H     0.48912   0.38777   0.13133   0.00000  Uiso   1.00
H81    H     0.97728   0.39934   0.49898   0.00000  Uiso   1.00
H82    H     0.90548   0.43558   0.26628   0.00000  Uiso   1.00
H83    H     0.27896   0.36395   0.26594   0.00000  Uiso   1.00
O84    O     0.15225   0.37740   0.34046   0.00000  Uiso   1.00
O85    O     0.05803   0.42494   0.34714   0.00000  Uiso   1.00
O86    O     0.23605   0.33097   0.34669   0.00000  Uiso   1.00
N87    N     0.10645   0.36574   0.53382   0.00000  Uiso   1.00
N88    N     0.03934   0.39962   0.25117   0.00000  Uiso   1.00
N89    N     0.45359   0.33266   0.25089   0.00000  Uiso   1.00
N90    N     0.00437   0.38926   0.53273   0.00000  Uiso   1.00
N91    N     0.93726   0.42314   0.25009   0.00000  Uiso   1.00
N92    N     0.35151   0.35618   0.24980   0.00000  Uiso   1.00
C93    C     0.00167   0.03052   0.10910   0.00000  Uiso   1.00
C94    C     0.86978   0.03682   0.20201   0.00000  Uiso   1.00
C95    C     0.75926   0.02901   0.22281   0.00000  Uiso   1.00
C96    C     0.64815   0.03677   0.31175   0.00000  Uiso   1.00
C97    C     0.44341   0.04427   0.44597   0.00000  Uiso   1.00
C98    C     0.06766   0.04607   0.02312   0.00000  Uiso   1.00
C99    C     0.12354   0.04603   0.89351   0.00000  Uiso   1.00
C100   C     0.17902   0.06158   0.83187   0.00000  Uiso   1.00
C101   C     0.28159   0.08344   0.68836   0.00000  Uiso   1.00
C102   C     0.06703   0.02763   0.18506   0.00000  Uiso   1.00
C103   C     0.12241   0.01210   0.19160   0.00000  Uiso   1.00
C104   C     0.17739   0.01213   0.26628   0.00000  Uiso   1.00
C105   C     0.27898   0.00537   0.37422   0.00000  Uiso   1.00
C106   C     0.00087   0.05819   0.23008   0.00000  Uiso   1.00
C107   C     0.86934   0.05185   0.26772   0.00000  Uiso   1.00
C108   C     0.75837   0.05963   0.35666   0.00000  Uiso   1.00
C109   C     0.64770   0.05183   0.37759   0.00000  Uiso   1.00
C110   C     0.06723   0.06110   0.08883   0.00000  Uiso   1.00
C111   C     0.12265   0.07665   0.02736   0.00000  Uiso   1.00
C112   C     0.17858   0.07664   0.89770   0.00000  Uiso   1.00
C113   C     0.06659   0.04266   0.25078   0.00000  Uiso   1.00
C114   C     0.12151   0.04272   0.32546   0.00000  Uiso   1.00
C115   C     0.17696   0.02719   0.33211   0.00000  Uiso   1.00
H116   H     0.00202   0.01881   0.05793   0.00000  Uiso   1.00
H117   H     0.75964   0.01738   0.17192   0.00000  Uiso   1.00
H118   H     0.12387   0.03440   0.84268   0.00000  Uiso   1.00
H119   H     0.12274   0.00047   0.14073   0.00000  Uiso   1.00
H120   H     0.49072   0.02241   0.32725   0.00000  Uiso   1.00
H121   H     0.25877   0.05830   0.63303   0.00000  Uiso   1.00
H122   H     0.25637   0.98676   0.26152   0.00000  Uiso   1.00
H123   H     0.00053   0.06989   0.28124   0.00000  Uiso   1.00
H124   H     0.75806   0.07126   0.40750   0.00000  Uiso   1.00
H125   H     0.12229   0.08828   0.07825   0.00000  Uiso   1.00
H126   H     0.12115   0.05435   0.37630   0.00000  Uiso   1.00
H127   H     0.48944   0.06615   0.51845   0.00000  Uiso   1.00
H128   H     0.25749   0.10203   0.82421   0.00000  Uiso   1.00
H129   H     0.25509   0.03049   0.45271   0.00000  Uiso   1.00
O130   O     0.33060   0.04426   0.50184   0.00000  Uiso   1.00
O131   O     0.33827   0.09134   0.59104   0.00000  Uiso   1.00
O132   O     0.33512   0.99748   0.41561   0.00000  Uiso   1.00
N133   N     0.52369   0.03252   0.35494   0.00000  Uiso   1.00
N134   N     0.24175   0.06607   0.70588   0.00000  Uiso   1.00
N135   N     0.23955   0.99919   0.29344   0.00000  Uiso   1.00
N136   N     0.52300   0.05605   0.45782   0.00000  Uiso   1.00
N137   N     0.24106   0.08960   0.80876   0.00000  Uiso   1.00
N138   N     0.23885   0.02272   0.39632   0.00000  Uiso   1.00
C139   C     0.97940   0.96949   0.12001   0.00000  Uiso   1.00
C140   C     0.11138   0.96322   0.08114   0.00000  Uiso   1.00
C141   C     0.22179   0.97105   0.99158   0.00000  Uiso   1.00
C142   C     0.33301   0.96331   0.96950   0.00000  Uiso   1.00
C143   C     0.53784   0.95585   0.89918   0.00000  Uiso   1.00
C144   C     0.91355   0.95393   0.09990   0.00000  Uiso   1.00
C145   C     0.85763   0.95394   0.02613   0.00000  Uiso   1.00
C146   C     0.80230   0.93838   0.01985   0.00000  Uiso   1.00
C147   C     0.69993   0.91650   0.97873   0.00000  Uiso   1.00
C148   C     0.91406   0.97237   0.26124   0.00000  Uiso   1.00
C149   C     0.85852   0.98789   0.32315   0.00000  Uiso   1.00
C150   C     0.80360   0.98785   0.45273   0.00000  Uiso   1.00
C151   C     0.70201   0.99460   0.66212   0.00000  Uiso   1.00
C152   C     0.98056   0.94182   0.24005   0.00000  Uiso   1.00
C153   C     0.11201   0.94819   0.14634   0.00000  Uiso   1.00
C154   C     0.22309   0.94044   0.12439   0.00000  Uiso   1.00
C155   C     0.33364   0.94826   0.03482   0.00000  Uiso   1.00
C156   C     0.91419   0.93890   0.16509   0.00000  Uiso   1.00
C157   C     0.85892   0.92333   0.15894   0.00000  Uiso   1.00
C158   C     0.80293   0.92333   0.08517   0.00000  Uiso   1.00
C159   C     0.91470   0.95734   0.32645   0.00000  Uiso   1.00
C160   C     0.85983   0.95727   0.45596   0.00000  Uiso   1.00
C161   C     0.80423   0.97279   0.51805   0.00000  Uiso   1.00
H162   H     0.97890   0.98119   0.06925   0.00000  Uiso   1.00
H163   H     0.22126   0.98268   0.94114   0.00000  Uiso   1.00
H164   H     0.85714   0.96558   0.97569   0.00000  Uiso   1.00
H165   H     0.85805   0.99952   0.27266   0.00000  Uiso   1.00
H166   H     0.49024   0.97770   0.82782   0.00000  Uiso   1.00
H167   H     0.72244   0.94164   0.90072   0.00000  Uiso   1.00
H168   H     0.72435   0.01320   0.52694   0.00000  Uiso   1.00
H169   H     0.98106   0.93012   0.29081   0.00000  Uiso   1.00
H170   H     0.22355   0.92881   0.17486   0.00000  Uiso   1.00
H171   H     0.85942   0.91170   0.20941   0.00000  Uiso   1.00
H172   H     0.86034   0.94564   0.50638   0.00000  Uiso   1.00
H173   H     0.49210   0.93397   0.01752   0.00000  Uiso   1.00
H174   H     0.72429   0.89791   0.09041   0.00000  Uiso   1.00
H175   H     0.72621   0.96948   0.71664   0.00000  Uiso   1.00
O176   O     0.65065   0.95589   0.84237   0.00000  Uiso   1.00
O177   O     0.64330   0.90858   0.93802   0.00000  Uiso   1.00
O178   O     0.64582   0.00247   0.75961   0.00000  Uiso   1.00
N179   N     0.45740   0.96759   0.88840   0.00000  Uiso   1.00
N180   N     0.73957   0.93387   0.95653   0.00000  Uiso   1.00
N181   N     0.74133   0.00078   0.54200   0.00000  Uiso   1.00
N182   N     0.45840   0.94406   0.99047   0.00000  Uiso   1.00
N183   N     0.74057   0.91035   0.05861   0.00000  Uiso   1.00
N184   N     0.74233   0.97725   0.64408   0.00000  Uiso   1.00
C185   C     0.88601   0.30288   0.99027   0.00000  Uiso   1.00
C186   C     0.79313   0.29657   0.12219   0.00000  Uiso   1.00
C187   C     0.77231   0.30437   0.23278   0.00000  Uiso   1.00
C188   C     0.68341   0.29660   0.34390   0.00000  Uiso   1.00
C189   C     0.54924   0.28909   0.54869   0.00000  Uiso   1.00
C190   C     0.97199   0.28733   0.92422   0.00000  Uiso   1.00
C191   C     0.10155   0.28737   0.86833   0.00000  Uiso   1.00
C192   C     0.16321   0.27183   0.81279   0.00000  Uiso   1.00
C193   C     0.30672   0.24998   0.71014   0.00000  Uiso   1.00
C194   C     0.81007   0.30576   0.92488   0.00000  Uiso   1.00
C195   C     0.80351   0.32130   0.86952   0.00000  Uiso   1.00
C196   C     0.72886   0.32127   0.81451   0.00000  Uiso   1.00
C197   C     0.62097   0.32803   0.71289   0.00000  Uiso   1.00
C198   C     0.76514   0.27520   0.99098   0.00000  Uiso   1.00
C199   C     0.72749   0.28154   0.12258   0.00000  Uiso   1.00
C200   C     0.63858   0.27375   0.23357   0.00000  Uiso   1.00
C201   C     0.61764   0.28154   0.34430   0.00000  Uiso   1.00
C202   C     0.90634   0.27230   0.92461   0.00000  Uiso   1.00
C203   C     0.96782   0.25675   0.86913   0.00000  Uiso   1.00
C204   C     0.09744   0.25677   0.81318   0.00000  Uiso   1.00
C205   C     0.74442   0.29073   0.92527   0.00000  Uiso   1.00
C206   C     0.66978   0.29068   0.87032   0.00000  Uiso   1.00
C207   C     0.66310   0.30621   0.81490   0.00000  Uiso   1.00
H208   H     0.93712   0.31458   0.98996   0.00000  Uiso   1.00
H209   H     0.82315   0.31601   0.23244   0.00000  Uiso   1.00
H210   H     0.15233   0.29901   0.86804   0.00000  Uiso   1.00
H211   H     0.85433   0.33293   0.86924   0.00000  Uiso   1.00
H212   H     0.66787   0.31095   0.50143   0.00000  Uiso   1.00
H213   H     0.36197   0.27512   0.73305   0.00000  Uiso   1.00
H214   H     0.73358   0.34664   0.73557   0.00000  Uiso   1.00
H215   H     0.71402   0.26350   0.99129   0.00000  Uiso   1.00
H216   H     0.58780   0.26212   0.23384   0.00000  Uiso   1.00
H217   H     0.91699   0.24512   0.86944   0.00000  Uiso   1.00
H218   H     0.61898   0.27904   0.87064   0.00000  Uiso   1.00
H219   H     0.47685   0.26721   0.50258   0.00000  Uiso   1.00
H220   H     0.17096   0.23138   0.73418   0.00000  Uiso   1.00
H221   H     0.54256   0.30290   0.73671   0.00000  Uiso   1.00
O222   O     0.49338   0.28909   0.66154   0.00000  Uiso   1.00
O223   O     0.40402   0.24208   0.65342   0.00000  Uiso   1.00
O224   O     0.57958   0.33592   0.65675   0.00000  Uiso   1.00
N225   N     0.64021   0.30085   0.46842   0.00000  Uiso   1.00
N226   N     0.28916   0.26734   0.75003   0.00000  Uiso   1.00
N227   N     0.70169   0.33421   0.75237   0.00000  Uiso   1.00
N228   N     0.53743   0.27731   0.46903   0.00000  Uiso   1.00
N229   N     0.18637   0.24381   0.75065   0.00000  Uiso   1.00
N230   N     0.59891   0.31068   0.75298   0.00000  Uiso   1.00
C231   C     0.14642   0.63613   0.87109   0.00000  Uiso   1.00
C232   C     0.10765   0.62988   0.77775   0.00000  Uiso   1.00
C233   C     0.01818   0.63772   0.75667   0.00000  Uiso   1.00
C234   C     0.99618   0.63000   0.66735   0.00000  Uiso   1.00
C235   C     0.92602   0.62257   0.53247   0.00000  Uiso   1.00
C236   C     0.12626   0.62055   0.95694   0.00000  Uiso   1.00
C237   C     0.05245   0.62055   0.08651   0.00000  Uiso   1.00
C238   C     0.04614   0.60498   0.14803   0.00000  Uiso   1.00
C239   C     0.00494   0.58307   0.29135   0.00000  Uiso   1.00
C240   C     0.28761   0.63900   0.79558   0.00000  Uiso   1.00
C241   C     0.34947   0.65452   0.78950   0.00000  Uiso   1.00
C242   C     0.47901   0.65449   0.71518   0.00000  Uiso   1.00
C243   C     0.68833   0.66124   0.60796   0.00000  Uiso   1.00
C244   C     0.26647   0.60847   0.74995   0.00000  Uiso   1.00
C245   C     0.17286   0.61485   0.71196   0.00000  Uiso   1.00
C246   C     0.15100   0.60712   0.62264   0.00000  Uiso   1.00
C247   C     0.06151   0.61495   0.60143   0.00000  Uiso   1.00
C248   C     0.19147   0.60553   0.89115   0.00000  Uiso   1.00
C249   C     0.18527   0.58995   0.95248   0.00000  Uiso   1.00
C250   C     0.11146   0.58993   0.08211   0.00000  Uiso   1.00
C251   C     0.35282   0.62398   0.72977   0.00000  Uiso   1.00
C252   C     0.48229   0.62392   0.65546   0.00000  Uiso   1.00
C253   C     0.54433   0.63944   0.64926   0.00000  Uiso   1.00
H254   H     0.09565   0.64782   0.92232   0.00000  Uiso   1.00
H255   H     0.96772   0.64934   0.80762   0.00000  Uiso   1.00
H256   H     0.00201   0.63218   0.13741   0.00000  Uiso   1.00
H257   H     0.29898   0.66614   0.84043   0.00000  Uiso   1.00
H258   H     0.85462   0.64440   0.65146   0.00000  Uiso   1.00
H259   H     0.92694   0.60821   0.34684   0.00000  Uiso   1.00
H260   H     0.55316   0.67983   0.72061   0.00000  Uiso   1.00
H261   H     0.31724   0.59677   0.69873   0.00000  Uiso   1.00
H262   H     0.20147   0.59549   0.57174   0.00000  Uiso   1.00
H263   H     0.23575   0.57833   0.90153   0.00000  Uiso   1.00
H264   H     0.53272   0.61229   0.60456   0.00000  Uiso   1.00
H265   H     0.04433   0.60070   0.46002   0.00000  Uiso   1.00
H266   H     0.11665   0.56450   0.15540   0.00000  Uiso   1.00
H267   H     0.74287   0.63613   0.52917   0.00000  Uiso   1.00
O268   O     0.86929   0.62263   0.47627   0.00000  Uiso   1.00
O269   O     0.96419   0.57514   0.38858   0.00000  Uiso   1.00
O270   O     0.78577   0.66911   0.56698   0.00000  Uiso   1.00
N271   N     0.91517   0.63429   0.62381   0.00000  Uiso   1.00
N272   N     0.98277   0.60045   0.27395   0.00000  Uiso   1.00
N273   N     0.56823   0.66742   0.68850   0.00000  Uiso   1.00
N274   N     0.01726   0.61078   0.52080   0.00000  Uiso   1.00
N275   N     0.08486   0.57693   0.17094   0.00000  Uiso   1.00
N276   N     0.67032   0.64390   0.58549   0.00000  Uiso   1.00
C277   C     0.86383   0.19724   0.13935   0.00000  Uiso   1.00
C278   C     0.77055   0.20350   0.10056   0.00000  Uiso   1.00
C279   C     0.74948   0.19566   0.01103   0.00000  Uiso   1.00
C280   C     0.66022   0.20339   0.98903   0.00000  Uiso   1.00
C281   C     0.52542   0.21083   0.91882   0.00000  Uiso   1.00
C282   C     0.94967   0.21281   0.11923   0.00000  Uiso   1.00
C283   C     0.07920   0.21281   0.04541   0.00000  Uiso   1.00
C284   C     0.14072   0.22838   0.03913   0.00000  Uiso   1.00
C285   C     0.28402   0.25028   0.99799   0.00000  Uiso   1.00
C286   C     0.78832   0.19436   0.28059   0.00000  Uiso   1.00
C287   C     0.78221   0.17883   0.34244   0.00000  Uiso   1.00
C288   C     0.70790   0.17887   0.47203   0.00000  Uiso   1.00
C289   C     0.60068   0.17211   0.68141   0.00000  Uiso   1.00
C290   C     0.74278   0.22490   0.25949   0.00000  Uiso   1.00
C291   C     0.70480   0.21852   0.16582   0.00000  Uiso   1.00
C292   C     0.61554   0.22626   0.14395   0.00000  Uiso   1.00
C293   C     0.59434   0.21844   0.05440   0.00000  Uiso   1.00
C294   C     0.88393   0.22784   0.18448   0.00000  Uiso   1.00
C295   C     0.94527   0.24341   0.17832   0.00000  Uiso   1.00
C296   C     0.07485   0.24343   0.10450   0.00000  Uiso   1.00
C297   C     0.72256   0.20938   0.34584   0.00000  Uiso   1.00
C298   C     0.64826   0.20944   0.47536   0.00000  Uiso   1.00
C299   C     0.64203   0.19392   0.53740   0.00000  Uiso   1.00
H300   H     0.91503   0.18554   0.08855   0.00000  Uiso   1.00
H301   H     0.80039   0.18404   0.96054   0.00000  Uiso   1.00
H302   H     0.13006   0.20118   0.99493   0.00000  Uiso   1.00
H303   H     0.83310   0.16721   0.29192   0.00000  Uiso   1.00
H304   H     0.64433   0.18900   0.84737   0.00000  Uiso   1.00
H305   H     0.33946   0.22514   0.91991   0.00000  Uiso   1.00
H306   H     0.71327   0.15351   0.54616   0.00000  Uiso   1.00
H307   H     0.69159   0.23659   0.31030   0.00000  Uiso   1.00
H308   H     0.56468   0.23789   0.19446   0.00000  Uiso   1.00
H309   H     0.89435   0.25503   0.22884   0.00000  Uiso   1.00
H310   H     0.59739   0.22106   0.52582   0.00000  Uiso   1.00
H311   H     0.45302   0.23271   0.03722   0.00000  Uiso   1.00
H312   H     0.14815   0.26885   0.10976   0.00000  Uiso   1.00
H313   H     0.52196   0.19722   0.73601   0.00000  Uiso   1.00
O314   O     0.46925   0.21079   0.86206   0.00000  Uiso   1.00
O315   O     0.38123   0.25820   0.95725   0.00000  Uiso   1.00
O316   O     0.55969   0.16423   0.77887   0.00000  Uiso   1.00
N317   N     0.61670   0.19911   0.90797   0.00000  Uiso   1.00
N318   N     0.26661   0.23290   0.97577   0.00000  Uiso   1.00
N319   N     0.68120   0.16593   0.56127   0.00000  Uiso   1.00
N320   N     0.51376   0.22262   0.01012   0.00000  Uiso   1.00
N321   N     0.16366   0.25642   0.07792   0.00000  Uiso   1.00
N322   N     0.57826   0.18945   0.66342   0.00000  Uiso   1.00
C323   C     0.12457   0.86393   0.98800   0.00000  Uiso   1.00
C324   C     0.08586   0.87018   0.12005   0.00000  Uiso   1.00
C325   C     0.99644   0.86233   0.23047   0.00000  Uiso   1.00
C326   C     0.97449   0.87004   0.34175   0.00000  Uiso   1.00
C327   C     0.90443   0.87746   0.54669   0.00000  Uiso   1.00
C328   C     0.10434   0.87952   0.92235   0.00000  Uiso   1.00
C329   C     0.03046   0.87952   0.86655   0.00000  Uiso   1.00
C330   C     0.02409   0.89510   0.81140   0.00000  Uiso   1.00
C331   C     0.98279   0.91701   0.70934   0.00000  Uiso   1.00
C332   C     0.26576   0.86106   0.92246   0.00000  Uiso   1.00
C333   C     0.32763   0.84555   0.86670   0.00000  Uiso   1.00
C334   C     0.45717   0.84558   0.81161   0.00000  Uiso   1.00
C335   C     0.66650   0.83884   0.70970   0.00000  Uiso   1.00
C336   C     0.24462   0.89159   0.98927   0.00000  Uiso   1.00
C337   C     0.15106   0.88520   0.12073   0.00000  Uiso   1.00
C338   C     0.12926   0.89293   0.23188   0.00000  Uiso   1.00
C339   C     0.03982   0.88509   0.34245   0.00000  Uiso   1.00
C340   C     0.16954   0.89454   0.92304   0.00000  Uiso   1.00
C341   C     0.16328   0.91012   0.86796   0.00000  Uiso   1.00
C342   C     0.08942   0.91014   0.81209   0.00000  Uiso   1.00
C343   C     0.33097   0.87608   0.92315   0.00000  Uiso   1.00
C344   C     0.46045   0.87615   0.86812   0.00000  Uiso   1.00
C345   C     0.52250   0.86063   0.81230   0.00000  Uiso   1.00
H346   H     0.07380   0.85224   0.98745   0.00000  Uiso   1.00
H347   H     0.94599   0.85070   0.22990   0.00000  Uiso   1.00
H348   H     0.98003   0.86789   0.86602   0.00000  Uiso   1.00
H349   H     0.27714   0.83392   0.86618   0.00000  Uiso   1.00
H350   H     0.83301   0.85563   0.49900   0.00000  Uiso   1.00
H351   H     0.90481   0.89187   0.73171   0.00000  Uiso   1.00
H352   H     0.53133   0.82024   0.73204   0.00000  Uiso   1.00
H353   H     0.29538   0.90329   0.98980   0.00000  Uiso   1.00
H354   H     0.17973   0.90455   0.23238   0.00000  Uiso   1.00
H355   H     0.21376   0.92174   0.86850   0.00000  Uiso   1.00
H356   H     0.51088   0.88777   0.86867   0.00000  Uiso   1.00
H357   H     0.02272   0.89934   0.50102   0.00000  Uiso   1.00
H358   H     0.09452   0.93558   0.73372   0.00000  Uiso   1.00
H359   H     0.72104   0.86395   0.73406   0.00000  Uiso   1.00
O360   O     0.84775   0.87740   0.65954   0.00000  Uiso   1.00
O361   O     0.94197   0.92494   0.65286   0.00000  Uiso   1.00
O362   O     0.76395   0.83097   0.65331   0.00000  Uiso   1.00
N363   N     0.89355   0.86574   0.46618   0.00000  Uiso   1.00
N364   N     0.96066   0.89962   0.74883   0.00000  Uiso   1.00
N365   N     0.54641   0.83266   0.74911   0.00000  Uiso   1.00
N366   N     0.99563   0.88926   0.46727   0.00000  Uiso   1.00
N367   N     0.06274   0.92314   0.74991   0.00000  Uiso   1.00
N368   N     0.64849   0.85618   0.75020   0.00000  Uiso   1.00
C369   C     0.99833   0.53052   0.89090   0.00000  Uiso   1.00
C370   C     0.13022   0.53682   0.79799   0.00000  Uiso   1.00
C371   C     0.24074   0.52901   0.77719   0.00000  Uiso   1.00
C372   C     0.35185   0.53677   0.68825   0.00000  Uiso   1.00
C373   C     0.55659   0.54427   0.55403   0.00000  Uiso   1.00
C374   C     0.93234   0.54607   0.97688   0.00000  Uiso   1.00
C375   C     0.87646   0.54603   0.10649   0.00000  Uiso   1.00
C376   C     0.82098   0.56158   0.16813   0.00000  Uiso   1.00
C377   C     0.71841   0.58344   0.31164   0.00000  Uiso   1.00
C378   C     0.93297   0.52763   0.81494   0.00000  Uiso   1.00
C379   C     0.87759   0.51210   0.80840   0.00000  Uiso   1.00
C380   C     0.82261   0.51213   0.73372   0.00000  Uiso   1.00
C381   C     0.72102   0.50537   0.62578   0.00000  Uiso   1.00
C382   C     0.99913   0.55819   0.76992   0.00000  Uiso   1.00
C383   C     0.13066   0.55185   0.73228   0.00000  Uiso   1.00
C384   C     0.24163   0.55963   0.64334   0.00000  Uiso   1.00
C385   C     0.35230   0.55183   0.62241   0.00000  Uiso   1.00
C386   C     0.93277   0.56110   0.91117   0.00000  Uiso   1.00
C387   C     0.87735   0.57665   0.97264   0.00000  Uiso   1.00
C388   C     0.82142   0.57664   0.10230   0.00000  Uiso   1.00
C389   C     0.93341   0.54266   0.74922   0.00000  Uiso   1.00
C390   C     0.87849   0.54272   0.67454   0.00000  Uiso   1.00
C391   C     0.82304   0.52719   0.66789   0.00000  Uiso   1.00
H392   H     0.99798   0.51881   0.94207   0.00000  Uiso   1.00
H393   H     0.24036   0.51738   0.82808   0.00000  Uiso   1.00
H394   H     0.87613   0.53440   0.15732   0.00000  Uiso   1.00
H395   H     0.87726   0.50047   0.85927   0.00000  Uiso   1.00
H396   H     0.50928   0.52241   0.67275   0.00000  Uiso   1.00
H397   H     0.74123   0.55830   0.36697   0.00000  Uiso   1.00
H398   H     0.74363   0.48676   0.73848   0.00000  Uiso   1.00
H399   H     0.99947   0.56989   0.71876   0.00000  Uiso   1.00
H400   H     0.24194   0.57126   0.59250   0.00000  Uiso   1.00
H401   H     0.87771   0.58828   0.92175   0.00000  Uiso   1.00
H402   H     0.87885   0.55435   0.62370   0.00000  Uiso   1.00
H403   H     0.51056   0.56615   0.48155   0.00000  Uiso   1.00
H404   H     0.74251   0.60203   0.17579   0.00000  Uiso   1.00
H405   H     0.74491   0.53049   0.54729   0.00000  Uiso   1.00
O406   O     0.66940   0.54426   0.49816   0.00000  Uiso   1.00
O407   O     0.66173   0.59134   0.40896   0.00000  Uiso   1.00
O408   O     0.66488   0.49748   0.58439   0.00000  Uiso   1.00
N409   N     0.47631   0.53252   0.64506   0.00000  Uiso   1.00
N410   N     0.75825   0.56607   0.29412   0.00000  Uiso   1.00
N411   N     0.76045   0.49919   0.70656   0.00000  Uiso   1.00
N412   N     0.47700   0.55605   0.54218   0.00000  Uiso   1.00
N413   N     0.75894   0.58960   0.19124   0.00000  Uiso   1.00
N414   N     0.76115   0.52272   0.60368   0.00000  Uiso   1.00
C415   C     0.02060   0.46949   0.87999   0.00000  Uiso   1.00
C416   C     0.88862   0.46322   0.91886   0.00000  Uiso   1.00
C417   C     0.77821   0.47105   0.00842   0.00000  Uiso   1.00
C418   C     0.66699   0.46331   0.03050   0.00000  Uiso   1.00
C419   C     0.46216   0.45585   0.10082   0.00000  Uiso   1.00
C420   C     0.08645   0.45393   0.90010   0.00000  Uiso   1.00
C421   C     0.14237   0.45394   0.97387   0.00000  Uiso   1.00
C422   C     0.19770   0.43838   0.98015   0.00000  Uiso   1.00
C423   C     0.30007   0.41650   0.02127   0.00000  Uiso   1.00
C424   C     0.08594   0.47237   0.73876   0.00000  Uiso   1.00
C425   C     0.14148   0.48789   0.67685   0.00000  Uiso   1.00
C426   C     0.19640   0.48785   0.54727   0.00000  Uiso   1.00
C427   C     0.29799   0.49460   0.33788   0.00000  Uiso   1.00
C428   C     0.01944   0.44182   0.75995   0.00000  Uiso   1.00
C429   C     0.88799   0.44819   0.85366   0.00000  Uiso   1.00
C430   C     0.77691   0.44044   0.87561   0.00000  Uiso   1.00
C431   C     0.66636   0.44826   0.96518   0.00000  Uiso   1.00
C432   C     0.08581   0.43890   0.83491   0.00000  Uiso   1.00
C433   C     0.14108   0.42333   0.84106   0.00000  Uiso   1.00
C434   C     0.19707   0.42333   0.91483   0.00000  Uiso   1.00
C435   C     0.08530   0.45734   0.67355   0.00000  Uiso   1.00
C436   C     0.14017   0.45727   0.54404   0.00000  Uiso   1.00
C437   C     0.19577   0.47279   0.48195   0.00000  Uiso   1.00
H438   H     0.02110   0.48119   0.93075   0.00000  Uiso   1.00
H439   H     0.77874   0.48268   0.05886   0.00000  Uiso   1.00
H440   H     0.14286   0.46558   0.02431   0.00000  Uiso   1.00
H441   H     0.14195   0.49952   0.72734   0.00000  Uiso   1.00
H442   H     0.50976   0.47770   0.17218   0.00000  Uiso   1.00
H443   H     0.27756   0.44164   0.09928   0.00000  Uiso   1.00
H444   H     0.27565   0.51320   0.47306   0.00000  Uiso   1.00
H445   H     0.01894   0.43012   0.70919   0.00000  Uiso   1.00
H446   H     0.77645   0.42881   0.82514   0.00000  Uiso   1.00
H447   H     0.14058   0.41170   0.79059   0.00000  Uiso   1.00
H448   H     0.13966   0.44564   0.49362   0.00000  Uiso   1.00
H449   H     0.50790   0.43397   0.98248   0.00000  Uiso   1.00
H450   H     0.27571   0.39791   0.90959   0.00000  Uiso   1.00
H451   H     0.27379   0.46948   0.28336   0.00000  Uiso   1.00
O452   O     0.34935   0.45589   0.15763   0.00000  Uiso   1.00
O453   O     0.35670   0.40858   0.06198   0.00000  Uiso   1.00
O454   O     0.35418   0.50247   0.24039   0.00000  Uiso   1.00
N455   N     0.54260   0.46759   0.11160   0.00000  Uiso   1.00
N456   N     0.26043   0.43387   0.04347   0.00000  Uiso   1.00
N457   N     0.25867   0.50078   0.45800   0.00000  Uiso   1.00
N458   N     0.54160   0.44406   0.00953   0.00000  Uiso   1.00
N459   N     0.25943   0.41035   0.94139   0.00000  Uiso   1.00
N460   N     0.25767   0.47725   0.35592   0.00000  Uiso   1.00
C461   C     0.11399   0.80288   0.00973   0.00000  Uiso   1.00
C462   C     0.20687   0.79657   0.87781   0.00000  Uiso   1.00
C463   C     0.22769   0.80437   0.76722   0.00000  Uiso   1.00
C464   C     0.31659   0.79660   0.65610   0.00000  Uiso   1.00
C465   C     0.45076   0.78909   0.45131   0.00000  Uiso   1.00
C466   C     0.02801   0.78733   0.07578   0.00000  Uiso   1.00
C467   C     0.89845   0.78737   0.13167   0.00000  Uiso   1.00
C468   C     0.83679   0.77183   0.18721   0.00000  Uiso   1.00
C469   C     0.69328   0.74998   0.28986   0.00000  Uiso   1.00
C470   C     0.18993   0.80576   0.07512   0.00000  Uiso   1.00
C471   C     0.19649   0.82130   0.13048   0.00000  Uiso   1.00
C472   C     0.27114   0.82127   0.18549   0.00000  Uiso   1.00
C473   C     0.37903   0.82803   0.28711   0.00000  Uiso   1.00
C474   C     0.23486   0.77520   0.00902   0.00000  Uiso   1.00
C475   C     0.27251   0.78154   0.87742   0.00000  Uiso   1.00
C476   C     0.36142   0.77375   0.76643   0.00000  Uiso   1.00
C477   C     0.38236   0.78154   0.65570   0.00000  Uiso   1.00
C478   C     0.09366   0.77230   0.07539   0.00000  Uiso   1.00
C479   C     0.03218   0.75675   0.13087   0.00000  Uiso   1.00
C480   C     0.90256   0.75677   0.18682   0.00000  Uiso   1.00
C481   C     0.25558   0.79073   0.07473   0.00000  Uiso   1.00
C482   C     0.33022   0.79068   0.12968   0.00000  Uiso   1.00
C483   C     0.33690   0.80621   0.18510   0.00000  Uiso   1.00
H484   H     0.06288   0.81458   0.01004   0.00000  Uiso   1.00
H485   H     0.17685   0.81601   0.76756   0.00000  Uiso   1.00
H486   H     0.84767   0.79901   0.13196   0.00000  Uiso   1.00
H487   H     0.14567   0.83293   0.13076   0.00000  Uiso   1.00
H488   H     0.33213   0.81095   0.49857   0.00000  Uiso   1.00
H489   H     0.63803   0.77512   0.26695   0.00000  Uiso   1.00
H490   H     0.26642   0.84664   0.26443   0.00000  Uiso   1.00
H491   H     0.28598   0.76350   0.00871   0.00000  Uiso   1.00
H492   H     0.41220   0.76212   0.76616   0.00000  Uiso   1.00
H493   H     0.08301   0.74512   0.13056   0.00000  Uiso   1.00
H494   H     0.38102   0.77904   0.12936   0.00000  Uiso   1.00
H495   H     0.52315   0.76721   0.49742   0.00000  Uiso   1.00
H496   H     0.82904   0.73138   0.26582   0.00000  Uiso   1.00
H497   H     0.45744   0.80290   0.26329   0.00000  Uiso   1.00
O498   O     0.50662   0.78909   0.33846   0.00000  Uiso   1.00
O499   O     0.59598   0.74208   0.34658   0.00000  Uiso   1.00
O500   O     0.42042   0.83592   0.34325   0.00000  Uiso   1.00
N501   N     0.35979   0.80085   0.53158   0.00000  Uiso   1.00
N502   N     0.71084   0.76734   0.24997   0.00000  Uiso   1.00
N503   N     0.29831   0.83421   0.24763   0.00000  Uiso   1.00
N504   N     0.46257   0.77731   0.53097   0.00000  Uiso   1.00
N505   N     0.81363   0.74381   0.24935   0.00000  Uiso   1.00
N506   N     0.40109   0.81068   0.24702   0.00000  Uiso   1.00
C507   C     0.85358   0.13613   0.12891   0.00000  Uiso   1.00
C508   C     0.89235   0.12988   0.22225   0.00000  Uiso   1.00
C509   C     0.98182   0.13772   0.24333   0.00000  Uiso   1.00
C510   C     0.00382   0.13000   0.33265   0.00000  Uiso   1.00
C511   C     0.07398   0.12257   0.46753   0.00000  Uiso   1.00
C512   C     0.87374   0.12055   0.04306   0.00000  Uiso   1.00
C513   C     0.94755   0.12055   0.91349   0.00000  Uiso   1.00
C514   C     0.95386   0.10498   0.85197   0.00000  Uiso   1.00
C515   C     0.99506   0.08307   0.70865   0.00000  Uiso   1.00
C516   C     0.71239   0.13900   0.20442   0.00000  Uiso   1.00
C517   C     0.65053   0.15452   0.21050   0.00000  Uiso   1.00
C518   C     0.52099   0.15449   0.28482   0.00000  Uiso   1.00
C519   C     0.31167   0.16124   0.39204   0.00000  Uiso   1.00
C520   C     0.73353   0.10847   0.25005   0.00000  Uiso   1.00
C521   C     0.82714   0.11485   0.28804   0.00000  Uiso   1.00
C522   C     0.84900   0.10712   0.37736   0.00000  Uiso   1.00
C523   C     0.93849   0.11495   0.39857   0.00000  Uiso   1.00
C524   C     0.80853   0.10553   0.10885   0.00000  Uiso   1.00
C525   C     0.81473   0.08995   0.04752   0.00000  Uiso   1.00
C526   C     0.88854   0.08993   0.91789   0.00000  Uiso   1.00
C527   C     0.64718   0.12398   0.27023   0.00000  Uiso   1.00
C528   C     0.51771   0.12392   0.34454   0.00000  Uiso   1.00
C529   C     0.45567   0.13944   0.35074   0.00000  Uiso   1.00
H530   H     0.90435   0.14782   0.07768   0.00000  Uiso   1.00
H531   H     0.03228   0.14934   0.19238   0.00000  Uiso   1.00
H532   H     0.99799   0.13218   0.86259   0.00000  Uiso   1.00
H533   H     0.70102   0.16614   0.15957   0.00000  Uiso   1.00
H534   H     0.14538   0.14440   0.34854   0.00000  Uiso   1.00
H535   H     0.07306   0.10821   0.65316   0.00000  Uiso   1.00
H536   H     0.44684   0.17983   0.27939   0.00000  Uiso   1.00
H537   H     0.68276   0.09677   0.30127   0.00000  Uiso   1.00
H538   H     0.79853   0.09549   0.42826   0.00000  Uiso   1.00
H539   H     0.76425   0.07833   0.09847   0.00000  Uiso   1.00
H540   H     0.46728   0.11229   0.39544   0.00000  Uiso   1.00
H541   H     0.95567   0.10070   0.53998   0.00000  Uiso   1.00
H542   H     0.88335   0.06450   0.84460   0.00000  Uiso   1.00
H543   H     0.25713   0.13613   0.47083   0.00000  Uiso   1.00
O544   O     0.13071   0.12263   0.52373   0.00000  Uiso   1.00
O545   O     0.03581   0.07514   0.61142   0.00000  Uiso   1.00
O546   O     0.21423   0.16911   0.43302   0.00000  Uiso   1.00
N547   N     0.08483   0.13429   0.37619   0.00000  Uiso   1.00
N548   N     0.01723   0.10045   0.72605   0.00000  Uiso   1.00
N549   N     0.43177   0.16742   0.31150   0.00000  Uiso   1.00
N550   N     0.98274   0.11078   0.47920   0.00000  Uiso   1.00
N551   N     0.91514   0.07693   0.82906   0.00000  Uiso   1.00
N552   N     0.32968   0.14390   0.41451   0.00000  Uiso   1.00
