data_job_02953
_audit_creation_date              2018-12-19
_audit_creation_method            'Materials Studio'
_symmetry_space_group_name_H-M    'P1'
_symmetry_Int_Tables_number       1
_symmetry_cell_setting            triclinic
loop_
_symmetry_equiv_pos_as_xyz
  x,y,z
_cell_length_a                    16.7658
_cell_length_b                    21.9364
_cell_length_c                    7.2778
_cell_angle_alpha                 90.0000
_cell_angle_beta                  90.0000
_cell_angle_gamma                 90.0000
loop_
_atom_site_label
_atom_site_type_symbol
_atom_site_fract_x
_atom_site_fract_y
_atom_site_fract_z
_atom_site_U_iso_or_equiv
_atom_site_adp_type
_atom_site_occupancy
C1     C     0.13382   0.82632   0.77679   0.00000  Uiso   1.00
C2     C     0.14941   0.76006   0.72454   0.00000  Uiso   1.00
C3     C     0.13961   0.71002   0.83899   0.00000  Uiso   1.00
C4     C     0.15704   0.65318   0.76533   0.00000  Uiso   1.00
C5     C     0.17728   0.55129   0.71187   0.00000  Uiso   1.00
C6     C     0.21146   0.86036   0.73959   0.00000  Uiso   1.00
C7     C     0.25383   0.89466   0.86669   0.00000  Uiso   1.00
C8     C     0.32350   0.92225   0.80568   0.00000  Uiso   1.00
C9     C     0.44005   0.97611   0.77554   0.00000  Uiso   1.00
C10    C     0.07376   0.85034   0.63711   0.00000  Uiso   1.00
C11    C     0.00034   0.87623   0.67804   0.00000  Uiso   1.00
C12    C     0.95407   0.89540   0.53074   0.00000  Uiso   1.00
C13    C     0.85681   0.93371   0.34149   0.00000  Uiso   1.00
C14    C     0.18220   0.81436   0.44244   0.00000  Uiso   1.00
C15    C     0.17569   0.75357   0.54294   0.00000  Uiso   1.00
C16    C     0.19313   0.69679   0.46908   0.00000  Uiso   1.00
C17    C     0.18336   0.64667   0.58340   0.00000  Uiso   1.00
C18    C     0.23774   0.85387   0.55799   0.00000  Uiso   1.00
C19    C     0.30736   0.88142   0.49678   0.00000  Uiso   1.00
C20    C     0.34982   0.91575   0.62375   0.00000  Uiso   1.00
C21    C     0.10003   0.84385   0.45550   0.00000  Uiso   1.00
C22    C     0.05387   0.86299   0.30812   0.00000  Uiso   1.00
C23    C     0.98040   0.88890   0.34881   0.00000  Uiso   1.00
H24    H     0.11337   0.83138   0.91817   0.00000  Uiso   1.00
H25    H     0.11928   0.71507   0.97953   0.00000  Uiso   1.00
H26    H     0.23348   0.89968   0.00721   0.00000  Uiso   1.00
H27    H     0.98003   0.88125   0.81858   0.00000  Uiso   1.00
H28    H     0.13745   0.58325   0.96749   0.00000  Uiso   1.00
H29    H     0.37823   0.97253   0.02584   0.00000  Uiso   1.00
H30    H     0.84378   0.93367   0.62809   0.00000  Uiso   1.00
H31    H     0.20266   0.80930   0.30105   0.00000  Uiso   1.00
H32    H     0.21347   0.69177   0.32854   0.00000  Uiso   1.00
H33    H     0.32767   0.87639   0.35623   0.00000  Uiso   1.00
H34    H     0.07422   0.85796   0.16760   0.00000  Uiso   1.00
H35    H     0.21390   0.56434   0.43913   0.00000  Uiso   1.00
H36    H     0.45468   0.95363   0.49748   0.00000  Uiso   1.00
H37    H     0.92023   0.91476   0.09973   0.00000  Uiso   1.00
O38    O     0.18120   0.49688   0.73255   0.00000  Uiso   1.00
O39    O     0.49708   0.00761   0.80909   0.00000  Uiso   1.00
O40    O     0.79590   0.95662   0.28726   0.00000  Uiso   1.00
N41    N     0.15394   0.59493   0.83936   0.00000  Uiso   1.00
N42    N     0.37907   0.95887   0.89392   0.00000  Uiso   1.00
N43    N     0.87941   0.92256   0.52206   0.00000  Uiso   1.00
N44    N     0.19508   0.58475   0.55505   0.00000  Uiso   1.00
N45    N     0.42020   0.94870   0.60961   0.00000  Uiso   1.00
N46    N     0.92055   0.91238   0.23775   0.00000  Uiso   1.00
C47    C     0.86618   0.17368   0.27679   0.00000  Uiso   1.00
C48    C     0.85059   0.23994   0.22454   0.00000  Uiso   1.00
C49    C     0.86039   0.28998   0.33899   0.00000  Uiso   1.00
C50    C     0.84296   0.34682   0.26533   0.00000  Uiso   1.00
C51    C     0.82272   0.44871   0.21187   0.00000  Uiso   1.00
C52    C     0.78854   0.13964   0.23959   0.00000  Uiso   1.00
C53    C     0.74617   0.10534   0.36669   0.00000  Uiso   1.00
C54    C     0.67650   0.07775   0.30568   0.00000  Uiso   1.00
C55    C     0.55995   0.02389   0.27554   0.00000  Uiso   1.00
C56    C     0.92624   0.14966   0.13711   0.00000  Uiso   1.00
C57    C     0.99966   0.12377   0.17804   0.00000  Uiso   1.00
C58    C     0.04593   0.10460   0.03074   0.00000  Uiso   1.00
C59    C     0.14319   0.06629   0.84149   0.00000  Uiso   1.00
C60    C     0.81780   0.18564   0.94244   0.00000  Uiso   1.00
C61    C     0.82431   0.24643   0.04294   0.00000  Uiso   1.00
C62    C     0.80687   0.30321   0.96908   0.00000  Uiso   1.00
C63    C     0.81664   0.35333   0.08340   0.00000  Uiso   1.00
C64    C     0.76226   0.14613   0.05799   0.00000  Uiso   1.00
C65    C     0.69264   0.11858   0.99678   0.00000  Uiso   1.00
C66    C     0.65018   0.08425   0.12375   0.00000  Uiso   1.00
C67    C     0.89997   0.15615   0.95550   0.00000  Uiso   1.00
C68    C     0.94613   0.13701   0.80812   0.00000  Uiso   1.00
C69    C     0.01960   0.11110   0.84881   0.00000  Uiso   1.00
H70    H     0.88663   0.16862   0.41817   0.00000  Uiso   1.00
H71    H     0.88072   0.28493   0.47953   0.00000  Uiso   1.00
H72    H     0.76652   0.10032   0.50721   0.00000  Uiso   1.00
H73    H     0.01997   0.11875   0.31858   0.00000  Uiso   1.00
H74    H     0.86255   0.41675   0.46749   0.00000  Uiso   1.00
H75    H     0.62177   0.02747   0.52584   0.00000  Uiso   1.00
H76    H     0.15622   0.06633   0.12809   0.00000  Uiso   1.00
H77    H     0.79734   0.19070   0.80105   0.00000  Uiso   1.00
H78    H     0.78653   0.30823   0.82854   0.00000  Uiso   1.00
H79    H     0.67233   0.12361   0.85623   0.00000  Uiso   1.00
H80    H     0.92578   0.14204   0.66760   0.00000  Uiso   1.00
H81    H     0.78610   0.43566   0.93913   0.00000  Uiso   1.00
H82    H     0.54532   0.04637   0.99748   0.00000  Uiso   1.00
H83    H     0.07977   0.08524   0.59973   0.00000  Uiso   1.00
O84    O     0.81880   0.50312   0.23255   0.00000  Uiso   1.00
O85    O     0.50292   0.99239   0.30909   0.00000  Uiso   1.00
O86    O     0.20410   0.04338   0.78726   0.00000  Uiso   1.00
N87    N     0.84606   0.40507   0.33936   0.00000  Uiso   1.00
N88    N     0.62093   0.04113   0.39392   0.00000  Uiso   1.00
N89    N     0.12059   0.07744   0.02206   0.00000  Uiso   1.00
N90    N     0.80492   0.41525   0.05505   0.00000  Uiso   1.00
N91    N     0.57980   0.05130   0.10961   0.00000  Uiso   1.00
N92    N     0.07945   0.08762   0.73775   0.00000  Uiso   1.00
C93    C     0.63382   0.67368   0.77679   0.00000  Uiso   1.00
C94    C     0.64941   0.73994   0.72454   0.00000  Uiso   1.00
C95    C     0.63961   0.78998   0.83899   0.00000  Uiso   1.00
C96    C     0.65704   0.84682   0.76533   0.00000  Uiso   1.00
C97    C     0.67728   0.94871   0.71187   0.00000  Uiso   1.00
C98    C     0.71146   0.63964   0.73959   0.00000  Uiso   1.00
C99    C     0.75383   0.60534   0.86669   0.00000  Uiso   1.00
C100   C     0.82350   0.57775   0.80568   0.00000  Uiso   1.00
C101   C     0.94005   0.52389   0.77554   0.00000  Uiso   1.00
C102   C     0.57376   0.64966   0.63711   0.00000  Uiso   1.00
C103   C     0.50034   0.62377   0.67804   0.00000  Uiso   1.00
C104   C     0.45407   0.60460   0.53074   0.00000  Uiso   1.00
C105   C     0.35681   0.56629   0.34149   0.00000  Uiso   1.00
C106   C     0.68220   0.68564   0.44244   0.00000  Uiso   1.00
C107   C     0.67569   0.74643   0.54294   0.00000  Uiso   1.00
C108   C     0.69313   0.80321   0.46908   0.00000  Uiso   1.00
C109   C     0.68336   0.85333   0.58340   0.00000  Uiso   1.00
C110   C     0.73774   0.64613   0.55799   0.00000  Uiso   1.00
C111   C     0.80736   0.61858   0.49678   0.00000  Uiso   1.00
C112   C     0.84982   0.58425   0.62375   0.00000  Uiso   1.00
C113   C     0.60003   0.65615   0.45550   0.00000  Uiso   1.00
C114   C     0.55387   0.63701   0.30812   0.00000  Uiso   1.00
C115   C     0.48040   0.61110   0.34881   0.00000  Uiso   1.00
H116   H     0.61337   0.66862   0.91817   0.00000  Uiso   1.00
H117   H     0.61928   0.78493   0.97953   0.00000  Uiso   1.00
H118   H     0.73348   0.60032   0.00721   0.00000  Uiso   1.00
H119   H     0.48003   0.61875   0.81858   0.00000  Uiso   1.00
H120   H     0.63745   0.91675   0.96749   0.00000  Uiso   1.00
H121   H     0.87823   0.52747   0.02584   0.00000  Uiso   1.00
H122   H     0.34378   0.56633   0.62809   0.00000  Uiso   1.00
H123   H     0.70266   0.69070   0.30105   0.00000  Uiso   1.00
H124   H     0.71347   0.80823   0.32854   0.00000  Uiso   1.00
H125   H     0.82767   0.62361   0.35623   0.00000  Uiso   1.00
H126   H     0.57422   0.64204   0.16760   0.00000  Uiso   1.00
H127   H     0.71390   0.93566   0.43913   0.00000  Uiso   1.00
H128   H     0.95468   0.54637   0.49748   0.00000  Uiso   1.00
H129   H     0.42023   0.58524   0.09973   0.00000  Uiso   1.00
O130   O     0.68120   0.00312   0.73255   0.00000  Uiso   1.00
O131   O     0.99708   0.49239   0.80909   0.00000  Uiso   1.00
O132   O     0.29590   0.54338   0.28726   0.00000  Uiso   1.00
N133   N     0.65394   0.90507   0.83936   0.00000  Uiso   1.00
N134   N     0.87907   0.54113   0.89392   0.00000  Uiso   1.00
N135   N     0.37941   0.57744   0.52206   0.00000  Uiso   1.00
N136   N     0.69508   0.91525   0.55505   0.00000  Uiso   1.00
N137   N     0.92020   0.55130   0.60961   0.00000  Uiso   1.00
N138   N     0.42055   0.58762   0.23775   0.00000  Uiso   1.00
C139   C     0.36618   0.32632   0.27679   0.00000  Uiso   1.00
C140   C     0.35059   0.26006   0.22454   0.00000  Uiso   1.00
C141   C     0.36039   0.21002   0.33899   0.00000  Uiso   1.00
C142   C     0.34296   0.15318   0.26533   0.00000  Uiso   1.00
C143   C     0.32272   0.05129   0.21187   0.00000  Uiso   1.00
C144   C     0.28854   0.36036   0.23959   0.00000  Uiso   1.00
C145   C     0.24617   0.39466   0.36669   0.00000  Uiso   1.00
C146   C     0.17650   0.42225   0.30568   0.00000  Uiso   1.00
C147   C     0.05995   0.47611   0.27554   0.00000  Uiso   1.00
C148   C     0.42624   0.35034   0.13711   0.00000  Uiso   1.00
C149   C     0.49966   0.37623   0.17804   0.00000  Uiso   1.00
C150   C     0.54593   0.39540   0.03074   0.00000  Uiso   1.00
C151   C     0.64319   0.43371   0.84149   0.00000  Uiso   1.00
C152   C     0.31780   0.31436   0.94244   0.00000  Uiso   1.00
C153   C     0.32431   0.25357   0.04294   0.00000  Uiso   1.00
C154   C     0.30687   0.19679   0.96908   0.00000  Uiso   1.00
C155   C     0.31664   0.14667   0.08340   0.00000  Uiso   1.00
C156   C     0.26226   0.35387   0.05799   0.00000  Uiso   1.00
C157   C     0.19264   0.38142   0.99678   0.00000  Uiso   1.00
C158   C     0.15018   0.41575   0.12375   0.00000  Uiso   1.00
C159   C     0.39997   0.34385   0.95550   0.00000  Uiso   1.00
C160   C     0.44613   0.36299   0.80812   0.00000  Uiso   1.00
C161   C     0.51960   0.38890   0.84881   0.00000  Uiso   1.00
H162   H     0.38663   0.33138   0.41817   0.00000  Uiso   1.00
H163   H     0.38072   0.21507   0.47953   0.00000  Uiso   1.00
H164   H     0.26652   0.39968   0.50721   0.00000  Uiso   1.00
H165   H     0.51997   0.38125   0.31858   0.00000  Uiso   1.00
H166   H     0.36255   0.08325   0.46749   0.00000  Uiso   1.00
H167   H     0.12177   0.47253   0.52584   0.00000  Uiso   1.00
H168   H     0.65622   0.43367   0.12809   0.00000  Uiso   1.00
H169   H     0.29734   0.30930   0.80105   0.00000  Uiso   1.00
H170   H     0.28653   0.19177   0.82854   0.00000  Uiso   1.00
H171   H     0.17233   0.37639   0.85623   0.00000  Uiso   1.00
H172   H     0.42578   0.35796   0.66760   0.00000  Uiso   1.00
H173   H     0.28610   0.06434   0.93913   0.00000  Uiso   1.00
H174   H     0.04532   0.45363   0.99748   0.00000  Uiso   1.00
H175   H     0.57977   0.41476   0.59973   0.00000  Uiso   1.00
O176   O     0.31880   0.99688   0.23255   0.00000  Uiso   1.00
O177   O     0.00292   0.50761   0.30909   0.00000  Uiso   1.00
O178   O     0.70410   0.45662   0.78726   0.00000  Uiso   1.00
N179   N     0.34606   0.09493   0.33936   0.00000  Uiso   1.00
N180   N     0.12093   0.45887   0.39392   0.00000  Uiso   1.00
N181   N     0.62059   0.42256   0.02206   0.00000  Uiso   1.00
N182   N     0.30492   0.08475   0.05505   0.00000  Uiso   1.00
N183   N     0.07980   0.44870   0.10961   0.00000  Uiso   1.00
N184   N     0.57945   0.41238   0.73775   0.00000  Uiso   1.00
