data_job_06682
_audit_creation_date              2018-12-19
_audit_creation_method            'Materials Studio'
_symmetry_space_group_name_H-M    'P1'
_symmetry_Int_Tables_number       1
_symmetry_cell_setting            triclinic
loop_
_symmetry_equiv_pos_as_xyz
  x,y,z
_cell_length_a                    24.3247
_cell_length_b                    24.3535
_cell_length_c                    24.0332
_cell_angle_alpha                 109.4630
_cell_angle_beta                  109.3760
_cell_angle_gamma                 101.0610
loop_
_atom_site_label
_atom_site_type_symbol
_atom_site_fract_x
_atom_site_fract_y
_atom_site_fract_z
_atom_site_U_iso_or_equiv
_atom_site_adp_type
_atom_site_occupancy
C1     C     0.75722   0.04702   0.02682   0.00000  Uiso   1.00
C2     C     0.70996   0.07861   0.00927   0.00000  Uiso   1.00
C3     C     0.72103   0.14187   0.03645   0.00000  Uiso   1.00
C4     C     0.67171   0.16158   0.01383   0.00000  Uiso   1.00
C5     C     0.60718   0.21703   0.99393   0.00000  Uiso   1.00
C6     C     0.72897   0.00014   0.04748   0.00000  Uiso   1.00
C7     C     0.75603   0.99742   0.10678   0.00000  Uiso   1.00
C8     C     0.72271   0.95108   0.11632   0.00000  Uiso   1.00
C9     C     0.68771   0.88468   0.15571   0.00000  Uiso   1.00
C10    C     0.75922   0.00921   0.96305   0.00000  Uiso   1.00
C11    C     0.81173   0.01410   0.95136   0.00000  Uiso   1.00
C12    C     0.80389   0.97538   0.88981   0.00000  Uiso   1.00
C13    C     0.81586   0.92307   0.79812   0.00000  Uiso   1.00
C14    C     0.64994   0.96955   0.93831   0.00000  Uiso   1.00
C15    C     0.65169   0.03653   0.96120   0.00000  Uiso   1.00
C16    C     0.60234   0.05615   0.93852   0.00000  Uiso   1.00
C17    C     0.61334   0.11943   0.96567   0.00000  Uiso   1.00
C18    C     0.67070   0.95806   0.99941   0.00000  Uiso   1.00
C19    C     0.63734   0.91171   0.00885   0.00000  Uiso   1.00
C20    C     0.66434   0.90892   0.06816   0.00000  Uiso   1.00
C21    C     0.70095   0.96713   0.91497   0.00000  Uiso   1.00
C22    C     0.69303   0.92839   0.85343   0.00000  Uiso   1.00
C23    C     0.74551   0.93323   0.84165   0.00000  Uiso   1.00
H24    H     0.80259   0.07978   0.06425   0.00000  Uiso   1.00
H25    H     0.76613   0.17442   0.07366   0.00000  Uiso   1.00
H26    H     0.80113   0.02999   0.14398   0.00000  Uiso   1.00
H27    H     0.85681   0.04667   0.98858   0.00000  Uiso   1.00
H28    H     0.70001   0.26078   0.06291   0.00000  Uiso   1.00
H29    H     0.77381   0.95623   0.21117   0.00000  Uiso   1.00
H30    H     0.89123   0.99141   0.88348   0.00000  Uiso   1.00
H31    H     0.60458   0.93678   0.90088   0.00000  Uiso   1.00
H32    H     0.55725   0.02358   0.90132   0.00000  Uiso   1.00
H33    H     0.59225   0.87915   0.97164   0.00000  Uiso   1.00
H34    H     0.64793   0.89584   0.81624   0.00000  Uiso   1.00
H35    H     0.53047   0.13836   0.92304   0.00000  Uiso   1.00
H36    H     0.60427   0.83381   0.07129   0.00000  Uiso   1.00
H37    H     0.72170   0.86899   0.74360   0.00000  Uiso   1.00
O38    O     0.58768   0.25924   0.99623   0.00000  Uiso   1.00
O39    O     0.68450   0.85968   0.19073   0.00000  Uiso   1.00
O40    O     0.83856   0.90584   0.76081   0.00000  Uiso   1.00
N41    N     0.66661   0.22006   0.02992   0.00000  Uiso   1.00
N42    N     0.73560   0.93533   0.16853   0.00000  Uiso   1.00
N43    N     0.84538   0.96821   0.86218   0.00000  Uiso   1.00
N44    N     0.57538   0.15418   0.95466   0.00000  Uiso   1.00
N45    N     0.64437   0.86946   0.09327   0.00000  Uiso   1.00
N46    N     0.75416   0.90233   0.78691   0.00000  Uiso   1.00
C47    C     0.16619   0.91290   0.06653   0.00000  Uiso   1.00
C48    C     0.14797   0.85493   0.07704   0.00000  Uiso   1.00
C49    C     0.18109   0.84532   0.13023   0.00000  Uiso   1.00
C50    C     0.15668   0.78917   0.13076   0.00000  Uiso   1.00
C51    C     0.13686   0.70597   0.15480   0.00000  Uiso   1.00
C52    C     0.16912   0.89096   0.00062   0.00000  Uiso   1.00
C53    C     0.22002   0.91165   0.98956   0.00000  Uiso   1.00
C54    C     0.21341   0.88584   0.92575   0.00000  Uiso   1.00
C55    C     0.22641   0.85860   0.83114   0.00000  Uiso   1.00
C56    C     0.11140   0.93619   0.05776   0.00000  Uiso   1.00
C57    C     0.11377   0.99493   0.09472   0.00000  Uiso   1.00
C58    C     0.05857   0.00720   0.07902   0.00000  Uiso   1.00
C59    C     0.98195   0.05020   0.07312   0.00000  Uiso   1.00
C60    C     0.06394   0.83027   0.97290   0.00000  Uiso   1.00
C61    C     0.09244   0.81005   0.02618   0.00000  Uiso   1.00
C62    C     0.06797   0.75390   0.02663   0.00000  Uiso   1.00
C63    C     0.10105   0.74421   0.07981   0.00000  Uiso   1.00
C64    C     0.11359   0.84608   0.94976   0.00000  Uiso   1.00
C65    C     0.10690   0.82023   0.88596   0.00000  Uiso   1.00
C66    C     0.15778   0.84087   0.87480   0.00000  Uiso   1.00
C67    C     0.05587   0.89131   0.00690   0.00000  Uiso   1.00
C68    C     0.00065   0.90350   0.99113   0.00000  Uiso   1.00
C69    C     0.00293   0.96224   0.02806   0.00000  Uiso   1.00
H70    H     0.20942   0.94785   0.10613   0.00000  Uiso   1.00
H71    H     0.22407   0.88007   0.16958   0.00000  Uiso   1.00
H72    H     0.26299   0.94639   0.02892   0.00000  Uiso   1.00
H73    H     0.15676   0.02965   0.13408   0.00000  Uiso   1.00
H74    H     0.21583   0.78511   0.21748   0.00000  Uiso   1.00
H75    H     0.29789   0.92498   0.92090   0.00000  Uiso   1.00
H76    H     0.07387   0.10055   0.14264   0.00000  Uiso   1.00
H77    H     0.02070   0.79532   0.93330   0.00000  Uiso   1.00
H78    H     0.02499   0.71917   0.98727   0.00000  Uiso   1.00
H79    H     0.06392   0.78550   0.84661   0.00000  Uiso   1.00
H80    H     0.95768   0.86875   0.95177   0.00000  Uiso   1.00
H81    H     0.05425   0.65453   0.06951   0.00000  Uiso   1.00
H82    H     0.13631   0.79439   0.77293   0.00000  Uiso   1.00
H83    H     0.91230   0.96996   0.99467   0.00000  Uiso   1.00
O84    O     0.14128   0.67247   0.18210   0.00000  Uiso   1.00
O85    O     0.24893   0.85597   0.79301   0.00000  Uiso   1.00
O86    O     0.95503   0.08631   0.08393   0.00000  Uiso   1.00
N87    N     0.17721   0.76484   0.17526   0.00000  Uiso   1.00
N88    N     0.25393   0.89559   0.89797   0.00000  Uiso   1.00
N89    N     0.04450   0.05974   0.10527   0.00000  Uiso   1.00
N90    N     0.09026   0.69457   0.09564   0.00000  Uiso   1.00
N91    N     0.16699   0.82532   0.81835   0.00000  Uiso   1.00
N92    N     0.95756   0.98947   0.02565   0.00000  Uiso   1.00
C93    C     0.02611   0.18436   0.71113   0.00000  Uiso   1.00
C94    C     0.04615   0.14975   0.65995   0.00000  Uiso   1.00
C95    C     0.10432   0.16779   0.66101   0.00000  Uiso   1.00
C96    C     0.11343   0.12982   0.60965   0.00000  Uiso   1.00
C97    C     0.15174   0.08432   0.53786   0.00000  Uiso   1.00
C98    C     0.96920   0.19698   0.67431   0.00000  Uiso   1.00
C99    C     0.96268   0.25474   0.68747   0.00000  Uiso   1.00
C100   C     0.90702   0.25652   0.64820   0.00000  Uiso   1.00
C101   C     0.82585   0.28434   0.59874   0.00000  Uiso   1.00
C102   C     0.00319   0.13815   0.73531   0.00000  Uiso   1.00
C103   C     0.02523   0.14645   0.79976   0.00000  Uiso   1.00
C104   C     0.99818   0.09871   0.81186   0.00000  Uiso   1.00
C105   C     0.96978   0.03520   0.85711   0.00000  Uiso   1.00
C106   C     0.93886   0.08483   0.61802   0.00000  Uiso   1.00
C107   C     0.99875   0.09569   0.60937   0.00000  Uiso   1.00
C108   C     0.00778   0.05768   0.55800   0.00000  Uiso   1.00
C109   C     0.06596   0.07567   0.55899   0.00000  Uiso   1.00
C110   C     0.92181   0.14292   0.62374   0.00000  Uiso   1.00
C111   C     0.86614   0.14462   0.58445   0.00000  Uiso   1.00
C112   C     0.85954   0.20236   0.59753   0.00000  Uiso   1.00
C113   C     0.95580   0.08409   0.68474   0.00000  Uiso   1.00
C114   C     0.92870   0.03634   0.69674   0.00000  Uiso   1.00
C115   C     0.95070   0.04456   0.76119   0.00000  Uiso   1.00
H116   H     0.06301   0.22645   0.75050   0.00000  Uiso   1.00
H117   H     0.14098   0.20964   0.70016   0.00000  Uiso   1.00
H118   H     0.99936   0.29656   0.72661   0.00000  Uiso   1.00
H119   H     0.06191   0.18829   0.83889   0.00000  Uiso   1.00
H120   H     0.20652   0.16717   0.62203   0.00000  Uiso   1.00
H121   H     0.90790   0.35045   0.67782   0.00000  Uiso   1.00
H122   H     0.03979   0.12215   0.91457   0.00000  Uiso   1.00
H123   H     0.90195   0.04275   0.57864   0.00000  Uiso   1.00
H124   H     0.97109   0.01585   0.51887   0.00000  Uiso   1.00
H125   H     0.82947   0.10278   0.54532   0.00000  Uiso   1.00
H126   H     0.89202   0.99451   0.65759   0.00000  Uiso   1.00
H127   H     0.06864   0.00989   0.47488   0.00000  Uiso   1.00
H128   H     0.77001   0.19317   0.53067   0.00000  Uiso   1.00
H129   H     0.90191   0.96487   0.76743   0.00000  Uiso   1.00
O130   O     0.18596   0.07416   0.51222   0.00000  Uiso   1.00
O131   O     0.79418   0.31462   0.58542   0.00000  Uiso   1.00
O132   O     0.96722   0.01509   0.89604   0.00000  Uiso   1.00
N133   N     0.16459   0.13384   0.59561   0.00000  Uiso   1.00
N134   N     0.88540   0.30520   0.64776   0.00000  Uiso   1.00
N135   N     0.00869   0.09176   0.86911   0.00000  Uiso   1.00
N136   N     0.09039   0.04920   0.51643   0.00000  Uiso   1.00
N137   N     0.81120   0.22056   0.56858   0.00000  Uiso   1.00
N138   N     0.93450   0.00713   0.78993   0.00000  Uiso   1.00
C139   C     0.33730   0.73449   0.56251   0.00000  Uiso   1.00
C140   C     0.28087   0.71982   0.57657   0.00000  Uiso   1.00
C141   C     0.27455   0.75544   0.63119   0.00000  Uiso   1.00
C142   C     0.21934   0.73410   0.63499   0.00000  Uiso   1.00
C143   C     0.13889   0.71970   0.66426   0.00000  Uiso   1.00
C144   C     0.31341   0.73612   0.49605   0.00000  Uiso   1.00
C145   C     0.33445   0.78545   0.48298   0.00000  Uiso   1.00
C146   C     0.30663   0.77782   0.41900   0.00000  Uiso   1.00
C147   C     0.27672   0.78871   0.32327   0.00000  Uiso   1.00
C148   C     0.35812   0.67816   0.55297   0.00000  Uiso   1.00
C149   C     0.41675   0.67875   0.58775   0.00000  Uiso   1.00
C150   C     0.42657   0.62233   0.57169   0.00000  Uiso   1.00
C151   C     0.46608   0.54323   0.56433   0.00000  Uiso   1.00
C152   C     0.25048   0.63324   0.47213   0.00000  Uiso   1.00
C153   C     0.23372   0.66482   0.52747   0.00000  Uiso   1.00
C154   C     0.17850   0.64342   0.53119   0.00000  Uiso   1.00
C155   C     0.17210   0.67900   0.58581   0.00000  Uiso   1.00
C156   C     0.26626   0.68112   0.44696   0.00000  Uiso   1.00
C157   C     0.23840   0.67342   0.38299   0.00000  Uiso   1.00
C158   C     0.25939   0.72273   0.36982   0.00000  Uiso   1.00
C159   C     0.31096   0.62316   0.50388   0.00000  Uiso   1.00
C160   C     0.32070   0.56673   0.48776   0.00000  Uiso   1.00
C161   C     0.37933   0.56723   0.52251   0.00000  Uiso   1.00
H162   H     0.37401   0.77731   0.60073   0.00000  Uiso   1.00
H163   H     0.31105   0.79801   0.66917   0.00000  Uiso   1.00
H164   H     0.37095   0.82800   0.52098   0.00000  Uiso   1.00
H165   H     0.45323   0.72132   0.62574   0.00000  Uiso   1.00
H166   H     0.22045   0.79671   0.72338   0.00000  Uiso   1.00
H167   H     0.34675   0.85995   0.41092   0.00000  Uiso   1.00
H168   H     0.52027   0.63500   0.63182   0.00000  Uiso   1.00
H169   H     0.21377   0.59042   0.43391   0.00000  Uiso   1.00
H170   H     0.14202   0.60085   0.49320   0.00000  Uiso   1.00
H171   H     0.20191   0.63085   0.34501   0.00000  Uiso   1.00
H172   H     0.28419   0.52417   0.44977   0.00000  Uiso   1.00
H173   H     0.08325   0.63669   0.58056   0.00000  Uiso   1.00
H174   H     0.20955   0.69993   0.26809   0.00000  Uiso   1.00
H175   H     0.38307   0.47498   0.48899   0.00000  Uiso   1.00
O176   O     0.10753   0.72695   0.69397   0.00000  Uiso   1.00
O177   O     0.27324   0.80991   0.28403   0.00000  Uiso   1.00
O178   O     0.50089   0.51478   0.57385   0.00000  Uiso   1.00
N179   N     0.19801   0.75761   0.68164   0.00000  Uiso   1.00
N180   N     0.31609   0.81674   0.38951   0.00000  Uiso   1.00
N181   N     0.47832   0.60643   0.59602   0.00000  Uiso   1.00
N182   N     0.12419   0.67151   0.60478   0.00000  Uiso   1.00
N183   N     0.24226   0.73063   0.31266   0.00000  Uiso   1.00
N184   N     0.40449   0.52033   0.51916   0.00000  Uiso   1.00
C185   C     0.62728   0.59520   0.23488   0.00000  Uiso   1.00
C186   C     0.59790   0.61887   0.18509   0.00000  Uiso   1.00
C187   C     0.62097   0.67748   0.18912   0.00000  Uiso   1.00
C188   C     0.58729   0.69015   0.13859   0.00000  Uiso   1.00
C189   C     0.55003   0.73365   0.06927   0.00000  Uiso   1.00
C190   C     0.63720   0.53673   0.19713   0.00000  Uiso   1.00
C191   C     0.69330   0.52626   0.21128   0.00000  Uiso   1.00
C192   C     0.69270   0.46978   0.17089   0.00000  Uiso   1.00
C193   C     0.71644   0.38573   0.12029   0.00000  Uiso   1.00
C194   C     0.57764   0.57399   0.25602   0.00000  Uiso   1.00
C195   C     0.58367   0.59486   0.31970   0.00000  Uiso   1.00
C196   C     0.53293   0.56974   0.32890   0.00000  Uiso   1.00
C197   C     0.46419   0.54356   0.36973   0.00000  Uiso   1.00
C198   C     0.52645   0.51348   0.13799   0.00000  Uiso   1.00
C199   C     0.54314   0.57449   0.13246   0.00000  Uiso   1.00
C200   C     0.50942   0.58707   0.08191   0.00000  Uiso   1.00
C201   C     0.53243   0.64569   0.08587   0.00000  Uiso   1.00
C202   C     0.58244   0.49234   0.14450   0.00000  Uiso   1.00
C203   C     0.58175   0.43586   0.10408   0.00000  Uiso   1.00
C204   C     0.63784   0.42532   0.11817   0.00000  Uiso   1.00
C205   C     0.52288   0.52961   0.20339   0.00000  Uiso   1.00
C206   C     0.47212   0.50445   0.21249   0.00000  Uiso   1.00
C207   C     0.47807   0.52527   0.27617   0.00000  Uiso   1.00
H208   H     0.66992   0.62975   0.27585   0.00000  Uiso   1.00
H209   H     0.66336   0.71181   0.22985   0.00000  Uiso   1.00
H210   H     0.73567   0.56062   0.25202   0.00000  Uiso   1.00
H211   H     0.62606   0.62920   0.36041   0.00000  Uiso   1.00
H212   H     0.63194   0.78321   0.15563   0.00000  Uiso   1.00
H213   H     0.78443   0.46440   0.20238   0.00000  Uiso   1.00
H214   H     0.55328   0.60903   0.43096   0.00000  Uiso   1.00
H215   H     0.48382   0.47893   0.09701   0.00000  Uiso   1.00
H216   H     0.46704   0.55272   0.04119   0.00000  Uiso   1.00
H217   H     0.53936   0.40152   0.06336   0.00000  Uiso   1.00
H218   H     0.42975   0.47011   0.17175   0.00000  Uiso   1.00
H219   H     0.47261   0.65409   0.00250   0.00000  Uiso   1.00
H220   H     0.62510   0.33527   0.04926   0.00000  Uiso   1.00
H221   H     0.39395   0.47990   0.27783   0.00000  Uiso   1.00
O222   O     0.54461   0.76990   0.04556   0.00000  Uiso   1.00
O223   O     0.74466   0.35164   0.10691   0.00000  Uiso   1.00
O224   O     0.44140   0.54138   0.40679   0.00000  Uiso   1.00
N225   N     0.59674   0.74270   0.12726   0.00000  Uiso   1.00
N226   N     0.73931   0.44464   0.17096   0.00000  Uiso   1.00
N227   N     0.52321   0.57983   0.38466   0.00000  Uiso   1.00
N228   N     0.51100   0.67322   0.04486   0.00000  Uiso   1.00
N229   N     0.65357   0.37515   0.08857   0.00000  Uiso   1.00
N230   N     0.43747   0.51035   0.30227   0.00000  Uiso   1.00
C231   C     0.47715   0.31028   0.51058   0.00000  Uiso   1.00
C232   C     0.51164   0.26727   0.48940   0.00000  Uiso   1.00
C233   C     0.57531   0.28073   0.51748   0.00000  Uiso   1.00
C234   C     0.59785   0.23521   0.49105   0.00000  Uiso   1.00
C235   C     0.65745   0.17707   0.46619   0.00000  Uiso   1.00
C236   C     0.42999   0.27446   0.52595   0.00000  Uiso   1.00
C237   C     0.42501   0.29396   0.58476   0.00000  Uiso   1.00
C238   C     0.37881   0.25450   0.58909   0.00000  Uiso   1.00
C239   C     0.31162   0.20754   0.62096   0.00000  Uiso   1.00
C240   C     0.43965   0.31732   0.45001   0.00000  Uiso   1.00
C241   C     0.44278   0.37286   0.44497   0.00000  Uiso   1.00
C242   C     0.40470   0.36948   0.38538   0.00000  Uiso   1.00
C243   C     0.35251   0.38907   0.29935   0.00000  Uiso   1.00
C244   C     0.40395   0.20551   0.41372   0.00000  Uiso   1.00
C245   C     0.47188   0.21036   0.43679   0.00000  Uiso   1.00
C246   C     0.49433   0.16482   0.41031   0.00000  Uiso   1.00
C247   C     0.55802   0.17820   0.43835   0.00000  Uiso   1.00
C248   C     0.39023   0.21755   0.47334   0.00000  Uiso   1.00
C249   C     0.34402   0.17805   0.47759   0.00000  Uiso   1.00
C250   C     0.33898   0.19749   0.53639   0.00000  Uiso   1.00
C251   C     0.39989   0.26041   0.39740   0.00000  Uiso   1.00
C252   C     0.36180   0.25695   0.33781   0.00000  Uiso   1.00
C253   C     0.36487   0.31248   0.33268   0.00000  Uiso   1.00
H254   H     0.50810   0.35458   0.55154   0.00000  Uiso   1.00
H255   H     0.60607   0.32477   0.55819   0.00000  Uiso   1.00
H256   H     0.45578   0.33800   0.62546   0.00000  Uiso   1.00
H257   H     0.47355   0.41689   0.48570   0.00000  Uiso   1.00
H258   H     0.69714   0.26661   0.54239   0.00000  Uiso   1.00
H259   H     0.38024   0.29453   0.68421   0.00000  Uiso   1.00
H260   H     0.41771   0.46087   0.38950   0.00000  Uiso   1.00
H261   H     0.37300   0.16121   0.37276   0.00000  Uiso   1.00
H262   H     0.46355   0.12079   0.36960   0.00000  Uiso   1.00
H263   H     0.31326   0.13402   0.43687   0.00000  Uiso   1.00
H264   H     0.33104   0.21291   0.29711   0.00000  Uiso   1.00
H265   H     0.58147   0.10105   0.38932   0.00000  Uiso   1.00
H266   H     0.26457   0.12897   0.53115   0.00000  Uiso   1.00
H267   H     0.30204   0.29531   0.23643   0.00000  Uiso   1.00
O268   O     0.70131   0.16072   0.46702   0.00000  Uiso   1.00
O269   O     0.28555   0.19735   0.65308   0.00000  Uiso   1.00
O270   O     0.33471   0.41559   0.26643   0.00000  Uiso   1.00
N271   N     0.65749   0.23320   0.50679   0.00000  Uiso   1.00
N272   N     0.36122   0.25930   0.63939   0.00000  Uiso   1.00
N273   N     0.39624   0.41481   0.36386   0.00000  Uiso   1.00
N274   N     0.59525   0.14411   0.42442   0.00000  Uiso   1.00
N275   N     0.29898   0.17021   0.55702   0.00000  Uiso   1.00
N276   N     0.33400   0.32573   0.28150   0.00000  Uiso   1.00
C277   C     0.29966   0.07910   0.86294   0.00000  Uiso   1.00
C278   C     0.34996   0.05543   0.89351   0.00000  Uiso   1.00
C279   C     0.35348   0.99718   0.86511   0.00000  Uiso   1.00
C280   C     0.40309   0.98444   0.90098   0.00000  Uiso   1.00
C281   C     0.47444   0.94100   0.93900   0.00000  Uiso   1.00
C282   C     0.33326   0.13832   0.86212   0.00000  Uiso   1.00
C283   C     0.32274   0.14976   0.80732   0.00000  Uiso   1.00
C284   C     0.35830   0.20681   0.81677   0.00000  Uiso   1.00
C285   C     0.40369   0.29207   0.80606   0.00000  Uiso   1.00
C286   C     0.27186   0.09904   0.91147   0.00000  Uiso   1.00
C287   C     0.20971   0.07748   0.89815   0.00000  Uiso   1.00
C288   C     0.19357   0.10147   0.94915   0.00000  Uiso   1.00
C289   C     0.14363   0.12576   0.01506   0.00000  Uiso   1.00
C290   C     0.38150   0.16006   0.97717   0.00000  Uiso   1.00
C291   C     0.39441   0.09940   0.95556   0.00000  Uiso   1.00
C292   C     0.44403   0.08674   0.99149   0.00000  Uiso   1.00
C293   C     0.44763   0.02849   0.96314   0.00000  Uiso   1.00
C294   C     0.37771   0.18229   0.92416   0.00000  Uiso   1.00
C295   C     0.41329   0.23933   0.93370   0.00000  Uiso   1.00
C296   C     0.40283   0.25086   0.87893   0.00000  Uiso   1.00
C297   C     0.31631   0.14301   0.97351   0.00000  Uiso   1.00
C298   C     0.30026   0.16705   0.02454   0.00000  Uiso   1.00
C299   C     0.23810   0.14552   0.01131   0.00000  Uiso   1.00
H300   H     0.26506   0.04487   0.81463   0.00000  Uiso   1.00
H301   H     0.31907   0.96316   0.81709   0.00000  Uiso   1.00
H302   H     0.28834   0.11573   0.75931   0.00000  Uiso   1.00
H303   H     0.17533   0.04345   0.85014   0.00000  Uiso   1.00
H304   H     0.39858   0.89197   0.84716   0.00000  Uiso   1.00
H305   H     0.33375   0.21367   0.72534   0.00000  Uiso   1.00
H306   H     0.09545   0.06127   0.91686   0.00000  Uiso   1.00
H307   H     0.41611   0.19429   0.02547   0.00000  Uiso   1.00
H308   H     0.47842   0.12078   0.03950   0.00000  Uiso   1.00
H309   H     0.44768   0.27335   0.98172   0.00000  Uiso   1.00
H310   H     0.33467   0.20107   0.07254   0.00000  Uiso   1.00
H311   H     0.52791   0.01990   0.02767   0.00000  Uiso   1.00
H312   H     0.46308   0.34160   0.90585   0.00000  Uiso   1.00
H313   H     0.22478   0.18920   0.09737   0.00000  Uiso   1.00
O314   O     0.50152   0.90489   0.94283   0.00000  Uiso   1.00
O315   O     0.41646   0.32695   0.78300   0.00000  Uiso   1.00
O316   O     0.10381   0.12700   0.03427   0.00000  Uiso   1.00
N317   N     0.42046   0.93217   0.88772   0.00000  Uiso   1.00
N318   N     0.35986   0.23293   0.77383   0.00000  Uiso   1.00
N319   N     0.13706   0.09046   0.95288   0.00000  Uiso   1.00
N320   N     0.49005   0.00100   0.98486   0.00000  Uiso   1.00
N321   N     0.42945   0.30177   0.87096   0.00000  Uiso   1.00
N322   N     0.20665   0.15930   0.05001   0.00000  Uiso   1.00
C323   C     0.00415   0.38909   0.03842   0.00000  Uiso   1.00
C324   C     0.02534   0.43390   0.01195   0.00000  Uiso   1.00
C325   C     0.00092   0.42432   0.94711   0.00000  Uiso   1.00
C326   C     0.02667   0.47091   0.93282   0.00000  Uiso   1.00
C327   C     0.05219   0.53226   0.88430   0.00000  Uiso   1.00
C328   C     0.98655   0.42529   0.09112   0.00000  Uiso   1.00
C329   C     0.92951   0.40847   0.09284   0.00000  Uiso   1.00
C330   C     0.92261   0.44782   0.14520   0.00000  Uiso   1.00
C331   C     0.88791   0.49578   0.21961   0.00000  Uiso   1.00
C332   C     0.06166   0.37645   0.07380   0.00000  Uiso   1.00
C333   C     0.06777   0.31856   0.06098   0.00000  Uiso   1.00
C334   C     0.12411   0.31678   0.09876   0.00000  Uiso   1.00
C335   C     0.20604   0.28891   0.14628   0.00000  Uiso   1.00
C336   C     0.09332   0.48886   0.12833   0.00000  Uiso   1.00
C337   C     0.07378   0.48809   0.06079   0.00000  Uiso   1.00
C338   C     0.09958   0.53471   0.04659   0.00000  Uiso   1.00
C339   C     0.07519   0.52520   0.98174   0.00000  Uiso   1.00
C340   C     0.03498   0.47949   0.13996   0.00000  Uiso   1.00
C341   C     0.02817   0.51886   0.19232   0.00000  Uiso   1.00
C342   C     0.97113   0.50211   0.19413   0.00000  Uiso   1.00
C343   C     0.11010   0.43065   0.12264   0.00000  Uiso   1.00
C344   C     0.16644   0.42895   0.16045   0.00000  Uiso   1.00
C345   C     0.17264   0.37107   0.14769   0.00000  Uiso   1.00
H346   H     0.96644   0.34690   0.00040   0.00000  Uiso   1.00
H347   H     0.96343   0.38237   0.90933   0.00000  Uiso   1.00
H348   H     0.89203   0.36653   0.05505   0.00000  Uiso   1.00
H349   H     0.03028   0.27663   0.02318   0.00000  Uiso   1.00
H350   H     0.98144   0.44562   0.82991   0.00000  Uiso   1.00
H351   H     0.83090   0.41219   0.13717   0.00000  Uiso   1.00
H352   H     0.12243   0.22263   0.06997   0.00000  Uiso   1.00
H353   H     0.13103   0.53106   0.16636   0.00000  Uiso   1.00
H354   H     0.13706   0.57664   0.08440   0.00000  Uiso   1.00
H355   H     0.06566   0.56080   0.23011   0.00000  Uiso   1.00
H356   H     0.20391   0.47090   0.19824   0.00000  Uiso   1.00
H357   H     0.12236   0.60329   0.97200   0.00000  Uiso   1.00
H358   H     0.97183   0.56987   0.27926   0.00000  Uiso   1.00
H359   H     0.26335   0.38031   0.21206   0.00000  Uiso   1.00
O360   O     0.05288   0.55113   0.84405   0.00000  Uiso   1.00
O361   O     0.85539   0.50727   0.24716   0.00000  Uiso   1.00
O362   O     0.23786   0.25857   0.15900   0.00000  Uiso   1.00
N363   N     0.01379   0.47646   0.87460   0.00000  Uiso   1.00
N364   N     0.87304   0.44522   0.16186   0.00000  Uiso   1.00
N365   N     0.14559   0.26799   0.09905   0.00000  Uiso   1.00
N366   N     0.08962   0.56131   0.95106   0.00000  Uiso   1.00
N367   N     0.94887   0.53006   0.23831   0.00000  Uiso   1.00
N368   N     0.22142   0.35284   0.17550   0.00000  Uiso   1.00
C369   C     0.01721   0.13427   0.27653   0.00000  Uiso   1.00
C370   C     0.98728   0.13886   0.32375   0.00000  Uiso   1.00
C371   C     0.92419   0.11704   0.30637   0.00000  Uiso   1.00
C372   C     0.90610   0.12571   0.35683   0.00000  Uiso   1.00
C373   C     0.85301   0.12833   0.42019   0.00000  Uiso   1.00
C374   C     0.06298   0.10074   0.29232   0.00000  Uiso   1.00
C375   C     0.06354   0.04687   0.24850   0.00000  Uiso   1.00
C376   C     0.10919   0.02346   0.27249   0.00000  Uiso   1.00
C377   C     0.17366   0.96692   0.28704   0.00000  Uiso   1.00
C378   C     0.05624   0.20035   0.29611   0.00000  Uiso   1.00
C379   C     0.05114   0.23023   0.25549   0.00000  Uiso   1.00
C380   C     0.09112   0.29068   0.28267   0.00000  Uiso   1.00
C381   C     0.14512   0.38880   0.30311   0.00000  Uiso   1.00
C382   C     0.09728   0.18848   0.39705   0.00000  Uiso   1.00
C383   C     0.03077   0.16831   0.38921   0.00000  Uiso   1.00
C384   C     0.01277   0.17701   0.43971   0.00000  Uiso   1.00
C385   C     0.94967   0.15521   0.42241   0.00000  Uiso   1.00
C386   C     0.10647   0.13018   0.35777   0.00000  Uiso   1.00
C387   C     0.15213   0.10684   0.38184   0.00000  Uiso   1.00
C388   C     0.15276   0.05295   0.33807   0.00000  Uiso   1.00
C389   C     0.09973   0.22980   0.36157   0.00000  Uiso   1.00
C390   C     0.13973   0.29021   0.38882   0.00000  Uiso   1.00
C391   C     0.13469   0.32017   0.34825   0.00000  Uiso   1.00
H392   H     0.98335   0.11134   0.22557   0.00000  Uiso   1.00
H393   H     0.89054   0.09425   0.25571   0.00000  Uiso   1.00
H394   H     0.02989   0.02410   0.19785   0.00000  Uiso   1.00
H395   H     0.01748   0.20743   0.20483   0.00000  Uiso   1.00
H396   H     0.80683   0.08826   0.31799   0.00000  Uiso   1.00
H397   H     0.10065   0.94035   0.19598   0.00000  Uiso   1.00
H398   H     0.07450   0.32694   0.21071   0.00000  Uiso   1.00
H399   H     0.13114   0.21140   0.44801   0.00000  Uiso   1.00
H400   H     0.04644   0.19980   0.49036   0.00000  Uiso   1.00
H401   H     0.18578   0.12964   0.43250   0.00000  Uiso   1.00
H402   H     0.17338   0.31298   0.43948   0.00000  Uiso   1.00
H403   H     0.93336   0.17393   0.50844   0.00000  Uiso   1.00
H404   H     0.22719   0.02602   0.38643   0.00000  Uiso   1.00
H405   H     0.20103   0.41261   0.40116   0.00000  Uiso   1.00
O406   O     0.81172   0.12164   0.43706   0.00000  Uiso   1.00
O407   O     0.19720   0.92759   0.27698   0.00000  Uiso   1.00
O408   O     0.16289   0.43479   0.29631   0.00000  Uiso   1.00
N409   N     0.84823   0.11003   0.35700   0.00000  Uiso   1.00
N410   N     0.12293   0.97173   0.24293   0.00000  Uiso   1.00
N411   N     0.09849   0.33316   0.25670   0.00000  Uiso   1.00
N412   N     0.91632   0.15612   0.45948   0.00000  Uiso   1.00
N413   N     0.19102   0.01783   0.34541   0.00000  Uiso   1.00
N414   N     0.16658   0.37926   0.35918   0.00000  Uiso   1.00
C415   C     0.82434   0.57718   0.53116   0.00000  Uiso   1.00
C416   C     0.87144   0.59963   0.50766   0.00000  Uiso   1.00
C417   C     0.86432   0.57676   0.44358   0.00000  Uiso   1.00
C418   C     0.91274   0.60347   0.43210   0.00000  Uiso   1.00
C419   C     0.97774   0.63103   0.38789   0.00000  Uiso   1.00
C420   C     0.85830   0.55814   0.58350   0.00000  Uiso   1.00
C421   C     0.84011   0.50039   0.58319   0.00000  Uiso   1.00
C422   C     0.87746   0.49219   0.63557   0.00000  Uiso   1.00
C423   C     0.92201   0.45535   0.70911   0.00000  Uiso   1.00
C424   C     0.81090   0.63415   0.56644   0.00000  Uiso   1.00
C425   C     0.75286   0.64031   0.55180   0.00000  Uiso   1.00
C426   C     0.75030   0.69610   0.58982   0.00000  Uiso   1.00
C427   C     0.72126   0.77728   0.63688   0.00000  Uiso   1.00
C428   C     0.92299   0.66531   0.62471   0.00000  Uiso   1.00
C429   C     0.92502   0.64749   0.55847   0.00000  Uiso   1.00
C430   C     0.97346   0.67426   0.54709   0.00000  Uiso   1.00
C431   C     0.96642   0.65143   0.48301   0.00000  Uiso   1.00
C432   C     0.91187   0.60601   0.63431   0.00000  Uiso   1.00
C433   C     0.94925   0.59789   0.68670   0.00000  Uiso   1.00
C434   C     0.93113   0.54014   0.68647   0.00000  Uiso   1.00
C435   C     0.86448   0.68202   0.61725   0.00000  Uiso   1.00
C436   C     0.86200   0.73781   0.65530   0.00000  Uiso   1.00
C437   C     0.80397   0.74405   0.64073   0.00000  Uiso   1.00
H438   H     0.78263   0.53991   0.49160   0.00000  Uiso   1.00
H439   H     0.82286   0.53971   0.40427   0.00000  Uiso   1.00
H440   H     0.79864   0.46336   0.54387   0.00000  Uiso   1.00
H441   H     0.71141   0.60326   0.51247   0.00000  Uiso   1.00
H442   H     0.89109   0.56058   0.32987   0.00000  Uiso   1.00
H443   H     0.84003   0.39960   0.62422   0.00000  Uiso   1.00
H444   H     0.65607   0.69460   0.55802   0.00000  Uiso   1.00
H445   H     0.96470   0.70257   0.66428   0.00000  Uiso   1.00
H446   H     0.01492   0.71130   0.58642   0.00000  Uiso   1.00
H447   H     0.99071   0.63494   0.72601   0.00000  Uiso   1.00
H448   H     0.90347   0.77484   0.69462   0.00000  Uiso   1.00
H449   H     0.04698   0.69984   0.47770   0.00000  Uiso   1.00
H450   H     0.99591   0.53886   0.77206   0.00000  Uiso   1.00
H451   H     0.81196   0.83386   0.70586   0.00000  Uiso   1.00
O452   O     0.99879   0.63300   0.34946   0.00000  Uiso   1.00
O453   O     0.93179   0.42180   0.73564   0.00000  Uiso   1.00
O454   O     0.69045   0.80884   0.64879   0.00000  Uiso   1.00
N455   N     0.92088   0.59217   0.37534   0.00000  Uiso   1.00
N456   N     0.87315   0.44165   0.65054   0.00000  Uiso   1.00
N457   N     0.70116   0.71745   0.58866   0.00000  Uiso   1.00
N458   N     0.00476   0.66710   0.45489   0.00000  Uiso   1.00
N459   N     0.95703   0.51659   0.73009   0.00000  Uiso   1.00
N460   N     0.78504   0.79239   0.66821   0.00000  Uiso   1.00
C461   C     0.53687   0.59011   0.76809   0.00000  Uiso   1.00
C462   C     0.54072   0.56634   0.82001   0.00000  Uiso   1.00
C463   C     0.51040   0.50649   0.80836   0.00000  Uiso   1.00
C464   C     0.51992   0.49395   0.86244   0.00000  Uiso   1.00
C465   C     0.52003   0.45009   0.93341   0.00000  Uiso   1.00
C466   C     0.51504   0.64547   0.78615   0.00000  Uiso   1.00
C467   C     0.46313   0.65215   0.74604   0.00000  Uiso   1.00
C468   C     0.45105   0.70623   0.77161   0.00000  Uiso   1.00
C469   C     0.41131   0.78524   0.79001   0.00000  Uiso   1.00
C470   C     0.60339   0.61621   0.77811   0.00000  Uiso   1.00
C471   C     0.62576   0.59830   0.73123   0.00000  Uiso   1.00
C472   C     0.68806   0.62776   0.75003   0.00000  Uiso   1.00
C473   C     0.78550   0.66134   0.75594   0.00000  Uiso   1.00
C474   C     0.60773   0.67428   0.88483   0.00000  Uiso   1.00
C475   C     0.57921   0.61206   0.88342   0.00000  Uiso   1.00
C476   C     0.58879   0.59961   0.93752   0.00000  Uiso   1.00
C477   C     0.55848   0.53975   0.92596   0.00000  Uiso   1.00
C478   C     0.55353   0.69119   0.84956   0.00000  Uiso   1.00
C479   C     0.54152   0.74527   0.87520   0.00000  Uiso   1.00
C480   C     0.48960   0.75203   0.83514   0.00000  Uiso   1.00
C481   C     0.64188   0.66193   0.84152   0.00000  Uiso   1.00
C482   C     0.70416   0.69142   0.86039   0.00000  Uiso   1.00
C483   C     0.72662   0.67356   0.81355   0.00000  Uiso   1.00
H484   H     0.50691   0.55452   0.71872   0.00000  Uiso   1.00
H485   H     0.48061   0.47112   0.75928   0.00000  Uiso   1.00
H486   H     0.43336   0.61676   0.69697   0.00000  Uiso   1.00
H487   H     0.59597   0.56292   0.68217   0.00000  Uiso   1.00
H488   H     0.46841   0.39882   0.83222   0.00000  Uiso   1.00
H489   H     0.36879   0.70593   0.70082   0.00000  Uiso   1.00
H490   H     0.71168   0.59239   0.66960   0.00000  Uiso   1.00
H491   H     0.63769   0.70988   0.93420   0.00000  Uiso   1.00
H492   H     0.61858   0.63500   0.98659   0.00000  Uiso   1.00
H493   H     0.57132   0.78064   0.92427   0.00000  Uiso   1.00
H494   H     0.73393   0.72680   0.90947   0.00000  Uiso   1.00
H495   H     0.58039   0.53183   0.01671   0.00000  Uiso   1.00
H496   H     0.48076   0.83894   0.88530   0.00000  Uiso   1.00
H497   H     0.82366   0.72540   0.85409   0.00000  Uiso   1.00
O498   O     0.50945   0.41327   0.95504   0.00000  Uiso   1.00
O499   O     0.37875   0.81619   0.78264   0.00000  Uiso   1.00
O500   O     0.82862   0.66723   0.74168   0.00000  Uiso   1.00
N501   N     0.49740   0.44040   0.86845   0.00000  Uiso   1.00
N502   N     0.40425   0.72752   0.74560   0.00000  Uiso   1.00
N503   N     0.72482   0.62138   0.71641   0.00000  Uiso   1.00
N504   N     0.55765   0.51197   0.96772   0.00000  Uiso   1.00
N505   N     0.46450   0.79909   0.84487   0.00000  Uiso   1.00
N506   N     0.78508   0.69296   0.81568   0.00000  Uiso   1.00
C507   C     0.49322   0.88062   0.34656   0.00000  Uiso   1.00
C508   C     0.46388   0.92239   0.38061   0.00000  Uiso   1.00
C509   C     0.40239   0.91865   0.35451   0.00000  Uiso   1.00
C510   C     0.38459   0.96111   0.39343   0.00000  Uiso   1.00
C511   C     0.33262   0.01921   0.43674   0.00000  Uiso   1.00
C512   C     0.54772   0.92364   0.34648   0.00000  Uiso   1.00
C513   C     0.55672   0.92095   0.29168   0.00000  Uiso   1.00
C514   C     0.60950   0.96447   0.30187   0.00000  Uiso   1.00
C515   C     0.68771   0.02449   0.29219   0.00000  Uiso   1.00
C516   C     0.52134   0.85205   0.39177   0.00000  Uiso   1.00
C517   C     0.50819   0.78916   0.37505   0.00000  Uiso   1.00
C518   C     0.53877   0.77240   0.42337   0.00000  Uiso   1.00
C519   C     0.57603   0.72127   0.48401   0.00000  Uiso   1.00
C520   C     0.57095   0.96268   0.46209   0.00000  Uiso   1.00
C521   C     0.50610   0.96696   0.44336   0.00000  Uiso   1.00
C522   C     0.48839   0.00944   0.48233   0.00000  Uiso   1.00
C523   C     0.42689   0.00576   0.45629   0.00000  Uiso   1.00
C524   C     0.58994   0.96822   0.40923   0.00000  Uiso   1.00
C525   C     0.64272   0.01174   0.41950   0.00000  Uiso   1.00
C526   C     0.65180   0.00912   0.36473   0.00000  Uiso   1.00
C527   C     0.56356   0.89662   0.45452   0.00000  Uiso   1.00
C528   C     0.59418   0.87996   0.50287   0.00000  Uiso   1.00
C529   C     0.58107   0.81706   0.48623   0.00000  Uiso   1.00
H530   H     0.46036   0.84592   0.29770   0.00000  Uiso   1.00
H531   H     0.36974   0.88415   0.30594   0.00000  Uiso   1.00
H532   H     0.52404   0.88645   0.24312   0.00000  Uiso   1.00
H533   H     0.47551   0.75469   0.32648   0.00000  Uiso   1.00
H534   H     0.28789   0.94621   0.34273   0.00000  Uiso   1.00
H535   H     0.61327   0.95105   0.21028   0.00000  Uiso   1.00
H536   H     0.51093   0.67319   0.38606   0.00000  Uiso   1.00
H537   H     0.60383   0.99738   0.51095   0.00000  Uiso   1.00
H538   H     0.52107   0.04392   0.53089   0.00000  Uiso   1.00
H539   H     0.67538   0.04623   0.46807   0.00000  Uiso   1.00
H540   H     0.62685   0.91446   0.55143   0.00000  Uiso   1.00
H541   H     0.41072   0.07589   0.52531   0.00000  Uiso   1.00
H542   H     0.73610   0.08073   0.39286   0.00000  Uiso   1.00
H543   H     0.63376   0.80288   0.56864   0.00000  Uiso   1.00
O544   O     0.29228   0.03895   0.44329   0.00000  Uiso   1.00
O545   O     0.71917   0.04529   0.26951   0.00000  Uiso   1.00
O546   O     0.58491   0.68075   0.50013   0.00000  Uiso   1.00
N547   N     0.32815   0.97033   0.38297   0.00000  Uiso   1.00
N548   N     0.63236   0.97486   0.25913   0.00000  Uiso   1.00
N549   N     0.53669   0.71509   0.42347   0.00000  Uiso   1.00
N550   N     0.39425   0.04011   0.48122   0.00000  Uiso   1.00
N551   N     0.69845   0.04464   0.35738   0.00000  Uiso   1.00
N552   N     0.60279   0.78487   0.52171   0.00000  Uiso   1.00
