data_job_06431
_audit_creation_date              2018-12-19
_audit_creation_method            'Materials Studio'
_symmetry_space_group_name_H-M    'P1'
_symmetry_Int_Tables_number       1
_symmetry_cell_setting            triclinic
loop_
_symmetry_equiv_pos_as_xyz
  x,y,z
_cell_length_a                    17.2959
_cell_length_b                    16.6853
_cell_length_c                    16.5014
_cell_angle_alpha                 106.5590
_cell_angle_beta                  105.9360
_cell_angle_gamma                 106.4700
loop_
_atom_site_label
_atom_site_type_symbol
_atom_site_fract_x
_atom_site_fract_y
_atom_site_fract_z
_atom_site_U_iso_or_equiv
_atom_site_adp_type
_atom_site_occupancy
C1     C     0.90040   0.14154   0.89471   0.00000  Uiso   1.00
C2     C     0.88564   0.06011   0.81211   0.00000  Uiso   1.00
C3     C     0.91642   0.99232   0.81534   0.00000  Uiso   1.00
C4     C     0.89592   0.92364   0.73219   0.00000  Uiso   1.00
C5     C     0.88057   0.79734   0.61662   0.00000  Uiso   1.00
C6     C     0.94333   0.22563   0.87843   0.00000  Uiso   1.00
C7     C     0.02260   0.29701   0.93741   0.00000  Uiso   1.00
C8     C     0.05065   0.36767   0.91009   0.00000  Uiso   1.00
C9     C     0.12483   0.49837   0.89750   0.00000  Uiso   1.00
C10    C     0.80978   0.13793   0.88844   0.00000  Uiso   1.00
C11    C     0.77676   0.13560   0.95586   0.00000  Uiso   1.00
C12    C     0.69237   0.13245   0.93697   0.00000  Uiso   1.00
C13    C     0.55918   0.12698   0.93994   0.00000  Uiso   1.00
C14    C     0.80925   0.14014   0.74130   0.00000  Uiso   1.00
C15    C     0.83613   0.05935   0.72879   0.00000  Uiso   1.00
C16    C     0.81557   0.99076   0.64561   0.00000  Uiso   1.00
C17    C     0.84631   0.92287   0.64871   0.00000  Uiso   1.00
C18    C     0.89382   0.22487   0.79511   0.00000  Uiso   1.00
C19    C     0.92175   0.29545   0.76769   0.00000  Uiso   1.00
C20    C     0.00105   0.36691   0.82661   0.00000  Uiso   1.00
C21    C     0.76026   0.13717   0.80512   0.00000  Uiso   1.00
C22    C     0.67591   0.13403   0.78613   0.00000  Uiso   1.00
C23    C     0.64277   0.13168   0.85350   0.00000  Uiso   1.00
H24    H     0.93895   0.14215   0.95958   0.00000  Uiso   1.00
H25    H     0.95474   0.99294   0.87983   0.00000  Uiso   1.00
H26    H     0.06090   0.29759   0.00189   0.00000  Uiso   1.00
H27    H     0.81509   0.13619   0.02033   0.00000  Uiso   1.00
H28    H     0.95044   0.82720   0.75468   0.00000  Uiso   1.00
H29    H     0.17427   0.46957   0.01206   0.00000  Uiso   1.00
H30    H     0.65594   0.12925   0.05094   0.00000  Uiso   1.00
H31    H     0.77070   0.13954   0.67643   0.00000  Uiso   1.00
H32    H     0.77726   0.99019   0.58114   0.00000  Uiso   1.00
H33    H     0.88342   0.29483   0.70320   0.00000  Uiso   1.00
H34    H     0.63761   0.13344   0.72164   0.00000  Uiso   1.00
H35    H     0.80639   0.82496   0.51225   0.00000  Uiso   1.00
H36    H     0.03022   0.46734   0.76964   0.00000  Uiso   1.00
H37    H     0.51189   0.12701   0.80851   0.00000  Uiso   1.00
O38    O     0.88579   0.72789   0.57589   0.00000  Uiso   1.00
O39    O     0.17943   0.57067   0.91358   0.00000  Uiso   1.00
O40    O     0.49939   0.12417   0.96458   0.00000  Uiso   1.00
N41    N     0.91563   0.84716   0.71070   0.00000  Uiso   1.00
N42    N     0.12490   0.44773   0.95133   0.00000  Uiso   1.00
N43    N     0.64031   0.12958   0.98769   0.00000  Uiso   1.00
N44    N     0.83811   0.84596   0.58025   0.00000  Uiso   1.00
N45    N     0.04738   0.44653   0.82088   0.00000  Uiso   1.00
N46    N     0.56279   0.12838   0.85724   0.00000  Uiso   1.00
C47    C     0.89649   0.90238   0.14387   0.00000  Uiso   1.00
C48    C     0.81800   0.88887   0.06331   0.00000  Uiso   1.00
C49    C     0.82163   0.92129   0.99520   0.00000  Uiso   1.00
C50    C     0.74250   0.90172   0.92745   0.00000  Uiso   1.00
C51    C     0.63277   0.88841   0.80232   0.00000  Uiso   1.00
C52    C     0.88270   0.94753   0.23007   0.00000  Uiso   1.00
C53    C     0.94072   0.02927   0.30218   0.00000  Uiso   1.00
C54    C     0.91605   0.05907   0.37482   0.00000  Uiso   1.00
C55    C     0.90679   0.13680   0.50863   0.00000  Uiso   1.00
C56    C     0.88806   0.80742   0.13878   0.00000  Uiso   1.00
C57    C     0.95060   0.77136   0.13416   0.00000  Uiso   1.00
C58    C     0.93045   0.68321   0.12997   0.00000  Uiso   1.00
C59    C     0.92951   0.54340   0.12204   0.00000  Uiso   1.00
C60    C     0.74952   0.80996   0.14468   0.00000  Uiso   1.00
C61    C     0.73818   0.83867   0.06375   0.00000  Uiso   1.00
C62    C     0.65902   0.81904   0.99610   0.00000  Uiso   1.00
C63    C     0.66253   0.85143   0.92789   0.00000  Uiso   1.00
C64    C     0.80287   0.89733   0.23052   0.00000  Uiso   1.00
C65    C     0.77811   0.92702   0.30308   0.00000  Uiso   1.00
C66    C     0.83608   0.00878   0.37527   0.00000  Uiso   1.00
C67    C     0.80823   0.75722   0.13922   0.00000  Uiso   1.00
C68    C     0.78799   0.66911   0.13505   0.00000  Uiso   1.00
C69    C     0.85048   0.63292   0.13042   0.00000  Uiso   1.00
H70    H     0.95864   0.94146   0.14353   0.00000  Uiso   1.00
H71    H     0.88342   0.96014   0.99488   0.00000  Uiso   1.00
H72    H     0.00249   0.06810   0.30182   0.00000  Uiso   1.00
H73    H     0.01237   0.81023   0.13382   0.00000  Uiso   1.00
H74    H     0.76481   0.95874   0.83030   0.00000  Uiso   1.00
H75    H     0.01590   0.18635   0.47750   0.00000  Uiso   1.00
H76    H     0.03673   0.64259   0.12325   0.00000  Uiso   1.00
H77    H     0.68737   0.77088   0.14503   0.00000  Uiso   1.00
H78    H     0.59725   0.78019   0.99646   0.00000  Uiso   1.00
H79    H     0.71633   0.88815   0.30340   0.00000  Uiso   1.00
H80    H     0.72621   0.63028   0.13540   0.00000  Uiso   1.00
H81    H     0.53255   0.81269   0.83157   0.00000  Uiso   1.00
H82    H     0.78365   0.04030   0.47879   0.00000  Uiso   1.00
H83    H     0.80446   0.49654   0.12453   0.00000  Uiso   1.00
O84    O     0.59430   0.89495   0.73319   0.00000  Uiso   1.00
O85    O     0.92373   0.19356   0.58231   0.00000  Uiso   1.00
O86    O     0.95104   0.48015   0.11753   0.00000  Uiso   1.00
N87    N     0.72252   0.92307   0.85097   0.00000  Uiso   1.00
N88    N     0.95727   0.13589   0.45607   0.00000  Uiso   1.00
N89    N     0.97674   0.62752   0.12490   0.00000  Uiso   1.00
N90    N     0.59754   0.84448   0.85166   0.00000  Uiso   1.00
N91    N     0.83229   0.05730   0.45675   0.00000  Uiso   1.00
N92    N     0.85177   0.54893   0.12559   0.00000  Uiso   1.00
C93    C     0.13792   0.89389   0.89966   0.00000  Uiso   1.00
C94    C     0.05984   0.81326   0.88664   0.00000  Uiso   1.00
C95    C     0.99594   0.81840   0.92120   0.00000  Uiso   1.00
C96    C     0.92988   0.73685   0.90171   0.00000  Uiso   1.00
C97    C     0.80897   0.62438   0.88946   0.00000  Uiso   1.00
C98    C     0.21887   0.87746   0.94293   0.00000  Uiso   1.00
C99    C     0.28870   0.93660   0.02482   0.00000  Uiso   1.00
C100   C     0.35652   0.90909   0.05272   0.00000  Uiso   1.00
C101   C     0.48254   0.89633   0.12784   0.00000  Uiso   1.00
C102   C     0.13253   0.88541   0.80360   0.00000  Uiso   1.00
C103   C     0.12977   0.95124   0.76833   0.00000  Uiso   1.00
C104   C     0.12492   0.93044   0.67892   0.00000  Uiso   1.00
C105   C     0.11688   0.93003   0.53770   0.00000  Uiso   1.00
C106   C     0.13423   0.73991   0.80360   0.00000  Uiso   1.00
C107   C     0.05784   0.72962   0.83446   0.00000  Uiso   1.00
C108   C     0.99186   0.64804   0.81491   0.00000  Uiso   1.00
C109   C     0.92787   0.65306   0.84943   0.00000  Uiso   1.00
C110   C     0.21687   0.79383   0.89076   0.00000  Uiso   1.00
C111   C     0.28461   0.76624   0.91854   0.00000  Uiso   1.00
C112   C     0.35452   0.82531   0.00045   0.00000  Uiso   1.00
C113   C     0.13052   0.80178   0.75142   0.00000  Uiso   1.00
C114   C     0.12568   0.78088   0.66205   0.00000  Uiso   1.00
C115   C     0.12291   0.84666   0.62665   0.00000  Uiso   1.00
H116   H     0.13949   0.95900   0.94029   0.00000  Uiso   1.00
H117   H     0.99752   0.88314   0.96158   0.00000  Uiso   1.00
H118   H     0.29023   0.00132   0.06518   0.00000  Uiso   1.00
H119   H     0.13133   0.01595   0.80873   0.00000  Uiso   1.00
H120   H     0.83926   0.76215   0.96220   0.00000  Uiso   1.00
H121   H     0.45647   0.01135   0.18064   0.00000  Uiso   1.00
H122   H     0.12139   0.04222   0.63987   0.00000  Uiso   1.00
H123   H     0.13267   0.67479   0.76297   0.00000  Uiso   1.00
H124   H     0.99032   0.58333   0.77453   0.00000  Uiso   1.00
H125   H     0.28304   0.70151   0.87814   0.00000  Uiso   1.00
H126   H     0.12413   0.71615   0.62169   0.00000  Uiso   1.00
H127   H     0.83342   0.51881   0.81039   0.00000  Uiso   1.00
H128   H     0.45064   0.76802   0.02883   0.00000  Uiso   1.00
H129   H     0.11555   0.79888   0.48805   0.00000  Uiso   1.00
O130   O     0.74284   0.58544   0.89712   0.00000  Uiso   1.00
O131   O     0.55261   0.91240   0.18369   0.00000  Uiso   1.00
O132   O     0.11298   0.95289   0.47421   0.00000  Uiso   1.00
N133   N     0.85741   0.71743   0.92487   0.00000  Uiso   1.00
N134   N     0.43446   0.95041   0.12910   0.00000  Uiso   1.00
N135   N     0.12121   0.97929   0.62354   0.00000  Uiso   1.00
N136   N     0.85427   0.58649   0.84318   0.00000  Uiso   1.00
N137   N     0.43132   0.81948   0.04741   0.00000  Uiso   1.00
N138   N     0.11807   0.84835   0.54184   0.00000  Uiso   1.00
C139   C     0.40036   0.39515   0.64252   0.00000  Uiso   1.00
C140   C     0.38560   0.31317   0.56048   0.00000  Uiso   1.00
C141   C     0.41650   0.31629   0.49174   0.00000  Uiso   1.00
C142   C     0.39597   0.23377   0.42264   0.00000  Uiso   1.00
C143   C     0.38064   0.11904   0.29532   0.00000  Uiso   1.00
C144   C     0.44311   0.37954   0.72741   0.00000  Uiso   1.00
C145   C     0.52237   0.43847   0.79903   0.00000  Uiso   1.00
C146   C     0.55025   0.41182   0.87046   0.00000  Uiso   1.00
C147   C     0.62418   0.40017   0.00233   0.00000  Uiso   1.00
C148   C     0.30972   0.38850   0.63934   0.00000  Uiso   1.00
C149   C     0.27683   0.45497   0.63693   0.00000  Uiso   1.00
C150   C     0.19240   0.43586   0.63423   0.00000  Uiso   1.00
C151   C     0.05924   0.43812   0.62936   0.00000  Uiso   1.00
C152   C     0.30895   0.24304   0.64205   0.00000  Uiso   1.00
C153   C     0.33595   0.23055   0.56023   0.00000  Uiso   1.00
C154   C     0.31536   0.14800   0.49122   0.00000  Uiso   1.00
C155   C     0.34622   0.15100   0.42238   0.00000  Uiso   1.00
C156   C     0.39347   0.29692   0.72716   0.00000  Uiso   1.00
C157   C     0.42123   0.27018   0.79850   0.00000  Uiso   1.00
C158   C     0.50051   0.32906   0.87020   0.00000  Uiso   1.00
C159   C     0.26007   0.30587   0.63908   0.00000  Uiso   1.00
C160   C     0.17569   0.28667   0.63640   0.00000  Uiso   1.00
C161   C     0.14267   0.35310   0.63398   0.00000  Uiso   1.00
H162   H     0.43901   0.45947   0.64272   0.00000  Uiso   1.00
H163   H     0.45493   0.38024   0.49197   0.00000  Uiso   1.00
H164   H     0.56077   0.50241   0.79921   0.00000  Uiso   1.00
H165   H     0.31527   0.51889   0.63713   0.00000  Uiso   1.00
H166   H     0.45069   0.25596   0.32473   0.00000  Uiso   1.00
H167   H     0.67386   0.51357   0.97258   0.00000  Uiso   1.00
H168   H     0.15617   0.54834   0.63081   0.00000  Uiso   1.00
H169   H     0.27029   0.17872   0.64185   0.00000  Uiso   1.00
H170   H     0.27694   0.08407   0.49104   0.00000  Uiso   1.00
H171   H     0.38279   0.20624   0.79828   0.00000  Uiso   1.00
H172   H     0.13729   0.22273   0.63620   0.00000  Uiso   1.00
H173   H     0.30624   0.01558   0.32398   0.00000  Uiso   1.00
H174   H     0.52941   0.27320   0.97183   0.00000  Uiso   1.00
H175   H     0.01172   0.30796   0.63006   0.00000  Uiso   1.00
O176   O     0.38591   0.07858   0.22518   0.00000  Uiso   1.00
O177   O     0.67869   0.41657   0.07514   0.00000  Uiso   1.00
O178   O     0.99949   0.46218   0.62674   0.00000  Uiso   1.00
N179   N     0.41577   0.21238   0.34524   0.00000  Uiso   1.00
N180   N     0.62443   0.45322   0.95094   0.00000  Uiso   1.00
N181   N     0.14044   0.48574   0.63143   0.00000  Uiso   1.00
N182   N     0.33804   0.08303   0.34483   0.00000  Uiso   1.00
N183   N     0.54669   0.32388   0.95053   0.00000  Uiso   1.00
N184   N     0.06270   0.35639   0.63103   0.00000  Uiso   1.00
C185   C     0.39660   0.64295   0.40238   0.00000  Uiso   1.00
C186   C     0.31799   0.56288   0.38936   0.00000  Uiso   1.00
C187   C     0.32145   0.49567   0.42236   0.00000  Uiso   1.00
C188   C     0.24224   0.42825   0.40318   0.00000  Uiso   1.00
C189   C     0.13232   0.30396   0.39067   0.00000  Uiso   1.00
C190   C     0.38287   0.72825   0.44784   0.00000  Uiso   1.00
C191   C     0.44087   0.80008   0.53000   0.00000  Uiso   1.00
C192   C     0.41628   0.87186   0.56004   0.00000  Uiso   1.00
C193   C     0.40711   0.00434   0.63829   0.00000  Uiso   1.00
C194   C     0.38831   0.63758   0.30638   0.00000  Uiso   1.00
C195   C     0.45091   0.63321   0.26960   0.00000  Uiso   1.00
C196   C     0.43091   0.62869   0.18054   0.00000  Uiso   1.00
C197   C     0.43019   0.62039   0.03915   0.00000  Uiso   1.00
C198   C     0.24978   0.64273   0.30963   0.00000  Uiso   1.00
C199   C     0.23825   0.56276   0.33899   0.00000  Uiso   1.00
C200   C     0.15901   0.49542   0.31975   0.00000  Uiso   1.00
C201   C     0.16235   0.42812   0.35271   0.00000  Uiso   1.00
C202   C     0.30313   0.72813   0.39747   0.00000  Uiso   1.00
C203   C     0.27844   0.79983   0.42739   0.00000  Uiso   1.00
C204   C     0.33639   0.87175   0.50958   0.00000  Uiso   1.00
C205   C     0.30857   0.63746   0.25600   0.00000  Uiso   1.00
C206   C     0.28847   0.63295   0.16698   0.00000  Uiso   1.00
C207   C     0.35102   0.62857   0.13007   0.00000  Uiso   1.00
H208   H     0.45868   0.64305   0.44160   0.00000  Uiso   1.00
H209   H     0.38317   0.49579   0.46135   0.00000  Uiso   1.00
H210   H     0.50258   0.80015   0.56897   0.00000  Uiso   1.00
H211   H     0.51261   0.63330   0.30861   0.00000  Uiso   1.00
H212   H     0.26429   0.33249   0.46106   0.00000  Uiso   1.00
H213   H     0.51609   0.97427   0.68796   0.00000  Uiso   1.00
H214   H     0.53724   0.62244   0.13894   0.00000  Uiso   1.00
H215   H     0.18770   0.64264   0.27041   0.00000  Uiso   1.00
H216   H     0.09732   0.49535   0.28076   0.00000  Uiso   1.00
H217   H     0.21673   0.79972   0.38838   0.00000  Uiso   1.00
H218   H     0.22676   0.63286   0.12802   0.00000  Uiso   1.00
H219   H     0.03228   0.33214   0.31449   0.00000  Uiso   1.00
H220   H     0.28408   0.97392   0.54139   0.00000  Uiso   1.00
H221   H     0.30522   0.62208   0.99237   0.00000  Uiso   1.00
O222   O     0.09372   0.23545   0.39770   0.00000  Uiso   1.00
O223   O     0.42408   0.07744   0.69538   0.00000  Uiso   1.00
O224   O     0.45182   0.61584   0.97507   0.00000  Uiso   1.00
N225   N     0.22209   0.35261   0.42513   0.00000  Uiso   1.00
N226   N     0.45750   0.95263   0.63728   0.00000  Uiso   1.00
N227   N     0.47728   0.62372   0.12399   0.00000  Uiso   1.00
N228   N     0.09725   0.35242   0.34626   0.00000  Uiso   1.00
N229   N     0.33266   0.95244   0.55841   0.00000  Uiso   1.00
N230   N     0.35244   0.62353   0.04512   0.00000  Uiso   1.00
C231   C     0.63786   0.39971   0.39334   0.00000  Uiso   1.00
C232   C     0.55989   0.38619   0.31221   0.00000  Uiso   1.00
C233   C     0.49605   0.42005   0.31763   0.00000  Uiso   1.00
C234   C     0.43010   0.40020   0.23553   0.00000  Uiso   1.00
C235   C     0.30935   0.38712   0.12240   0.00000  Uiso   1.00
C236   C     0.71892   0.44284   0.37618   0.00000  Uiso   1.00
C237   C     0.78878   0.52433   0.43538   0.00000  Uiso   1.00
C238   C     0.85670   0.55215   0.40713   0.00000  Uiso   1.00
C239   C     0.98287   0.62699   0.39334   0.00000  Uiso   1.00
C240   C     0.63232   0.30469   0.38510   0.00000  Uiso   1.00
C241   C     0.62940   0.27003   0.45182   0.00000  Uiso   1.00
C242   C     0.62443   0.18155   0.43109   0.00000  Uiso   1.00
C243   C     0.61615   0.04190   0.43117   0.00000  Uiso   1.00
C244   C     0.63427   0.30423   0.23790   0.00000  Uiso   1.00
C245   C     0.55795   0.33433   0.22779   0.00000  Uiso   1.00
C246   C     0.49207   0.31441   0.14566   0.00000  Uiso   1.00
C247   C     0.42814   0.34824   0.15095   0.00000  Uiso   1.00
C248   C     0.71697   0.39098   0.29176   0.00000  Uiso   1.00
C249   C     0.78480   0.41869   0.26341   0.00000  Uiso   1.00
C250   C     0.85475   0.50020   0.32255   0.00000  Uiso   1.00
C251   C     0.63037   0.25283   0.30068   0.00000  Uiso   1.00
C252   C     0.62542   0.16439   0.27985   0.00000  Uiso   1.00
C253   C     0.62248   0.12960   0.34652   0.00000  Uiso   1.00
H254   H     0.63939   0.44009   0.45907   0.00000  Uiso   1.00
H255   H     0.49758   0.46019   0.38298   0.00000  Uiso   1.00
H256   H     0.79027   0.56444   0.50071   0.00000  Uiso   1.00
H257   H     0.63091   0.31018   0.51715   0.00000  Uiso   1.00
H258   H     0.33953   0.45963   0.26138   0.00000  Uiso   1.00
H259   H     0.95669   0.67943   0.50965   0.00000  Uiso   1.00
H260   H     0.62064   0.14328   0.54431   0.00000  Uiso   1.00
H261   H     0.63275   0.26386   0.17217   0.00000  Uiso   1.00
H262   H     0.49058   0.27428   0.08033   0.00000  Uiso   1.00
H263   H     0.78327   0.37854   0.19808   0.00000  Uiso   1.00
H264   H     0.62391   0.12428   0.21451   0.00000  Uiso   1.00
H265   H     0.33384   0.30874   0.01575   0.00000  Uiso   1.00
H266   H     0.95101   0.52855   0.26402   0.00000  Uiso   1.00
H267   H     0.61496   0.99239   0.29867   0.00000  Uiso   1.00
O268   O     0.24330   0.39425   0.08333   0.00000  Uiso   1.00
O269   O     0.05300   0.68261   0.40906   0.00000  Uiso   1.00
O270   O     0.61211   0.97919   0.45452   0.00000  Uiso   1.00
N271   N     0.35769   0.42267   0.21618   0.00000  Uiso   1.00
N272   N     0.93470   0.62818   0.44829   0.00000  Uiso   1.00
N273   N     0.62054   0.12693   0.48070   0.00000  Uiso   1.00
N274   N     0.35463   0.34148   0.08400   0.00000  Uiso   1.00
N275   N     0.93164   0.54699   0.31611   0.00000  Uiso   1.00
N276   N     0.61748   0.04574   0.34852   0.00000  Uiso   1.00
