data_job_05161
_audit_creation_date              2018-12-19
_audit_creation_method            'Materials Studio'
_symmetry_space_group_name_H-M    'P1'
_symmetry_Int_Tables_number       1
_symmetry_cell_setting            triclinic
loop_
_symmetry_equiv_pos_as_xyz
  x,y,z
_cell_length_a                    17.3594
_cell_length_b                    17.3594
_cell_length_c                    15.9513
_cell_angle_alpha                 90.0000
_cell_angle_beta                  90.0000
_cell_angle_gamma                 90.0000
loop_
_atom_site_label
_atom_site_type_symbol
_atom_site_fract_x
_atom_site_fract_y
_atom_site_fract_z
_atom_site_U_iso_or_equiv
_atom_site_adp_type
_atom_site_occupancy
C1     C     0.18578   0.73565   0.80525   0.00000  Uiso   1.00
C2     C     0.23236   0.67093   0.84535   0.00000  Uiso   1.00
C3     C     0.23758   0.65592   0.93062   0.00000  Uiso   1.00
C4     C     0.28317   0.59406   0.95472   0.00000  Uiso   1.00
C5     C     0.34961   0.50046   0.02598   0.00000  Uiso   1.00
C6     C     0.24267   0.78207   0.75277   0.00000  Uiso   1.00
C7     C     0.25654   0.86052   0.76019   0.00000  Uiso   1.00
C8     C     0.31080   0.89221   0.70634   0.00000  Uiso   1.00
C9     C     0.39320   0.97118   0.63383   0.00000  Uiso   1.00
C10    C     0.13145   0.69695   0.74305   0.00000  Uiso   1.00
C11    C     0.05180   0.70383   0.74227   0.00000  Uiso   1.00
C12    C     0.01243   0.66387   0.68022   0.00000  Uiso   1.00
C13    C     0.92215   0.61067   0.59262   0.00000  Uiso   1.00
C14    C     0.25748   0.65247   0.69642   0.00000  Uiso   1.00
C15    C     0.27131   0.62575   0.78624   0.00000  Uiso   1.00
C16    C     0.31691   0.56389   0.81022   0.00000  Uiso   1.00
C17    C     0.32219   0.54879   0.89551   0.00000  Uiso   1.00
C18    C     0.28162   0.73690   0.69366   0.00000  Uiso   1.00
C19    C     0.33587   0.76848   0.63979   0.00000  Uiso   1.00
C20    C     0.34982   0.84695   0.64713   0.00000  Uiso   1.00
C21    C     0.17040   0.65177   0.68394   0.00000  Uiso   1.00
C22    C     0.13114   0.61180   0.62188   0.00000  Uiso   1.00
C23    C     0.05145   0.61861   0.62101   0.00000  Uiso   1.00
H24    H     0.15546   0.77083   0.85126   0.00000  Uiso   1.00
H25    H     0.20743   0.69091   0.97634   0.00000  Uiso   1.00
H26    H     0.22638   0.89547   0.80593   0.00000  Uiso   1.00
H27    H     0.02169   0.73880   0.78802   0.00000  Uiso   1.00
H28    H     0.28225   0.58239   0.08895   0.00000  Uiso   1.00
H29    H     0.32219   0.01372   0.72961   0.00000  Uiso   1.00
H30    H     0.89054   0.68337   0.69184   0.00000  Uiso   1.00
H31    H     0.28781   0.61729   0.65040   0.00000  Uiso   1.00
H32    H     0.34704   0.52894   0.76446   0.00000  Uiso   1.00
H33    H     0.36599   0.73350   0.59405   0.00000  Uiso   1.00
H34    H     0.16130   0.57684   0.57615   0.00000  Uiso   1.00
H35    H     0.39557   0.45093   0.91698   0.00000  Uiso   1.00
H36    H     0.43550   0.88226   0.55764   0.00000  Uiso   1.00
H37    H     0.00386   0.55191   0.51988   0.00000  Uiso   1.00
O38    O     0.37551   0.46132   0.08162   0.00000  Uiso   1.00
O39    O     0.42789   0.02721   0.61017   0.00000  Uiso   1.00
O40    O     0.86159   0.59380   0.56063   0.00000  Uiso   1.00
N41    N     0.30078   0.56357   0.03282   0.00000  Uiso   1.00
N42    N     0.33813   0.96683   0.69687   0.00000  Uiso   1.00
N43    N     0.93458   0.65800   0.66155   0.00000  Uiso   1.00
N44    N     0.36175   0.49283   0.94029   0.00000  Uiso   1.00
N45    N     0.39910   0.89609   0.60433   0.00000  Uiso   1.00
N46    N     0.99555   0.58726   0.56902   0.00000  Uiso   1.00
C47    C     0.81422   0.26435   0.80525   0.00000  Uiso   1.00
C48    C     0.76764   0.32907   0.84535   0.00000  Uiso   1.00
C49    C     0.76242   0.34408   0.93062   0.00000  Uiso   1.00
C50    C     0.71683   0.40594   0.95472   0.00000  Uiso   1.00
C51    C     0.65039   0.49954   0.02598   0.00000  Uiso   1.00
C52    C     0.75733   0.21793   0.75277   0.00000  Uiso   1.00
C53    C     0.74346   0.13948   0.76019   0.00000  Uiso   1.00
C54    C     0.68920   0.10779   0.70634   0.00000  Uiso   1.00
C55    C     0.60680   0.02882   0.63383   0.00000  Uiso   1.00
C56    C     0.86855   0.30305   0.74305   0.00000  Uiso   1.00
C57    C     0.94820   0.29617   0.74227   0.00000  Uiso   1.00
C58    C     0.98757   0.33613   0.68022   0.00000  Uiso   1.00
C59    C     0.07785   0.38933   0.59262   0.00000  Uiso   1.00
C60    C     0.74252   0.34753   0.69642   0.00000  Uiso   1.00
C61    C     0.72869   0.37425   0.78624   0.00000  Uiso   1.00
C62    C     0.68309   0.43611   0.81022   0.00000  Uiso   1.00
C63    C     0.67781   0.45121   0.89551   0.00000  Uiso   1.00
C64    C     0.71838   0.26310   0.69366   0.00000  Uiso   1.00
C65    C     0.66413   0.23152   0.63979   0.00000  Uiso   1.00
C66    C     0.65018   0.15305   0.64713   0.00000  Uiso   1.00
C67    C     0.82960   0.34823   0.68394   0.00000  Uiso   1.00
C68    C     0.86886   0.38820   0.62188   0.00000  Uiso   1.00
C69    C     0.94855   0.38139   0.62101   0.00000  Uiso   1.00
H70    H     0.84454   0.22917   0.85126   0.00000  Uiso   1.00
H71    H     0.79257   0.30909   0.97634   0.00000  Uiso   1.00
H72    H     0.77362   0.10453   0.80593   0.00000  Uiso   1.00
H73    H     0.97831   0.26120   0.78802   0.00000  Uiso   1.00
H74    H     0.71775   0.41761   0.08895   0.00000  Uiso   1.00
H75    H     0.67781   0.98628   0.72961   0.00000  Uiso   1.00
H76    H     0.10946   0.31663   0.69184   0.00000  Uiso   1.00
H77    H     0.71219   0.38271   0.65040   0.00000  Uiso   1.00
H78    H     0.65296   0.47106   0.76446   0.00000  Uiso   1.00
H79    H     0.63401   0.26650   0.59405   0.00000  Uiso   1.00
H80    H     0.83870   0.42316   0.57615   0.00000  Uiso   1.00
H81    H     0.60443   0.54907   0.91698   0.00000  Uiso   1.00
H82    H     0.56450   0.11774   0.55764   0.00000  Uiso   1.00
H83    H     0.99614   0.44809   0.51988   0.00000  Uiso   1.00
O84    O     0.62449   0.53868   0.08162   0.00000  Uiso   1.00
O85    O     0.57211   0.97279   0.61017   0.00000  Uiso   1.00
O86    O     0.13841   0.40620   0.56063   0.00000  Uiso   1.00
N87    N     0.69922   0.43643   0.03282   0.00000  Uiso   1.00
N88    N     0.66187   0.03317   0.69687   0.00000  Uiso   1.00
N89    N     0.06542   0.34200   0.66155   0.00000  Uiso   1.00
N90    N     0.63825   0.50717   0.94029   0.00000  Uiso   1.00
N91    N     0.60090   0.10391   0.60433   0.00000  Uiso   1.00
N92    N     0.00445   0.41274   0.56902   0.00000  Uiso   1.00
C93    C     0.76435   0.68578   0.30525   0.00000  Uiso   1.00
C94    C     0.82907   0.73236   0.34535   0.00000  Uiso   1.00
C95    C     0.84408   0.73758   0.43062   0.00000  Uiso   1.00
C96    C     0.90594   0.78317   0.45472   0.00000  Uiso   1.00
C97    C     0.99954   0.84961   0.52598   0.00000  Uiso   1.00
C98    C     0.71793   0.74267   0.25277   0.00000  Uiso   1.00
C99    C     0.63948   0.75654   0.26019   0.00000  Uiso   1.00
C100   C     0.60779   0.81080   0.20634   0.00000  Uiso   1.00
C101   C     0.52882   0.89320   0.13383   0.00000  Uiso   1.00
C102   C     0.80305   0.63145   0.24305   0.00000  Uiso   1.00
C103   C     0.79617   0.55180   0.24227   0.00000  Uiso   1.00
C104   C     0.83613   0.51243   0.18022   0.00000  Uiso   1.00
C105   C     0.88933   0.42215   0.09262   0.00000  Uiso   1.00
C106   C     0.84753   0.75748   0.19642   0.00000  Uiso   1.00
C107   C     0.87425   0.77131   0.28624   0.00000  Uiso   1.00
C108   C     0.93611   0.81691   0.31022   0.00000  Uiso   1.00
C109   C     0.95121   0.82219   0.39551   0.00000  Uiso   1.00
C110   C     0.76310   0.78162   0.19366   0.00000  Uiso   1.00
C111   C     0.73152   0.83587   0.13979   0.00000  Uiso   1.00
C112   C     0.65305   0.84982   0.14713   0.00000  Uiso   1.00
C113   C     0.84823   0.67040   0.18394   0.00000  Uiso   1.00
C114   C     0.88820   0.63114   0.12188   0.00000  Uiso   1.00
C115   C     0.88139   0.55145   0.12101   0.00000  Uiso   1.00
H116   H     0.72917   0.65546   0.35126   0.00000  Uiso   1.00
H117   H     0.80909   0.70743   0.47634   0.00000  Uiso   1.00
H118   H     0.60453   0.72638   0.30593   0.00000  Uiso   1.00
H119   H     0.76120   0.52169   0.28802   0.00000  Uiso   1.00
H120   H     0.91761   0.78225   0.58895   0.00000  Uiso   1.00
H121   H     0.48628   0.82219   0.22961   0.00000  Uiso   1.00
H122   H     0.81663   0.39054   0.19184   0.00000  Uiso   1.00
H123   H     0.88271   0.78781   0.15040   0.00000  Uiso   1.00
H124   H     0.97106   0.84704   0.26446   0.00000  Uiso   1.00
H125   H     0.76650   0.86599   0.09405   0.00000  Uiso   1.00
H126   H     0.92316   0.66130   0.07615   0.00000  Uiso   1.00
H127   H     0.04907   0.89557   0.41698   0.00000  Uiso   1.00
H128   H     0.61774   0.93550   0.05764   0.00000  Uiso   1.00
H129   H     0.94809   0.50386   0.01988   0.00000  Uiso   1.00
O130   O     0.03868   0.87551   0.58162   0.00000  Uiso   1.00
O131   O     0.47279   0.92789   0.11017   0.00000  Uiso   1.00
O132   O     0.90620   0.36159   0.06063   0.00000  Uiso   1.00
N133   N     0.93643   0.80078   0.53282   0.00000  Uiso   1.00
N134   N     0.53317   0.83813   0.19687   0.00000  Uiso   1.00
N135   N     0.84200   0.43458   0.16155   0.00000  Uiso   1.00
N136   N     0.00717   0.86175   0.44029   0.00000  Uiso   1.00
N137   N     0.60391   0.89910   0.10433   0.00000  Uiso   1.00
N138   N     0.91274   0.49555   0.06902   0.00000  Uiso   1.00
C139   C     0.23565   0.31422   0.30525   0.00000  Uiso   1.00
C140   C     0.17093   0.26764   0.34535   0.00000  Uiso   1.00
C141   C     0.15592   0.26242   0.43062   0.00000  Uiso   1.00
C142   C     0.09406   0.21683   0.45472   0.00000  Uiso   1.00
C143   C     0.00046   0.15039   0.52598   0.00000  Uiso   1.00
C144   C     0.28207   0.25733   0.25277   0.00000  Uiso   1.00
C145   C     0.36052   0.24346   0.26019   0.00000  Uiso   1.00
C146   C     0.39221   0.18920   0.20634   0.00000  Uiso   1.00
C147   C     0.47118   0.10680   0.13383   0.00000  Uiso   1.00
C148   C     0.19695   0.36855   0.24305   0.00000  Uiso   1.00
C149   C     0.20383   0.44820   0.24227   0.00000  Uiso   1.00
C150   C     0.16387   0.48757   0.18022   0.00000  Uiso   1.00
C151   C     0.11067   0.57785   0.09262   0.00000  Uiso   1.00
C152   C     0.15247   0.24252   0.19642   0.00000  Uiso   1.00
C153   C     0.12575   0.22869   0.28624   0.00000  Uiso   1.00
C154   C     0.06389   0.18309   0.31022   0.00000  Uiso   1.00
C155   C     0.04879   0.17781   0.39551   0.00000  Uiso   1.00
C156   C     0.23690   0.21838   0.19366   0.00000  Uiso   1.00
C157   C     0.26848   0.16413   0.13979   0.00000  Uiso   1.00
C158   C     0.34695   0.15018   0.14713   0.00000  Uiso   1.00
C159   C     0.15177   0.32960   0.18394   0.00000  Uiso   1.00
C160   C     0.11180   0.36886   0.12188   0.00000  Uiso   1.00
C161   C     0.11861   0.44855   0.12101   0.00000  Uiso   1.00
H162   H     0.27083   0.34454   0.35126   0.00000  Uiso   1.00
H163   H     0.19091   0.29257   0.47634   0.00000  Uiso   1.00
H164   H     0.39547   0.27362   0.30593   0.00000  Uiso   1.00
H165   H     0.23880   0.47831   0.28802   0.00000  Uiso   1.00
H166   H     0.08239   0.21775   0.58895   0.00000  Uiso   1.00
H167   H     0.51372   0.17781   0.22961   0.00000  Uiso   1.00
H168   H     0.18337   0.60946   0.19184   0.00000  Uiso   1.00
H169   H     0.11729   0.21219   0.15040   0.00000  Uiso   1.00
H170   H     0.02894   0.15296   0.26446   0.00000  Uiso   1.00
H171   H     0.23350   0.13401   0.09405   0.00000  Uiso   1.00
H172   H     0.07684   0.33870   0.07615   0.00000  Uiso   1.00
H173   H     0.95093   0.10443   0.41698   0.00000  Uiso   1.00
H174   H     0.38226   0.06450   0.05764   0.00000  Uiso   1.00
H175   H     0.05191   0.49614   0.01988   0.00000  Uiso   1.00
O176   O     0.96132   0.12449   0.58162   0.00000  Uiso   1.00
O177   O     0.52721   0.07211   0.11017   0.00000  Uiso   1.00
O178   O     0.09380   0.63841   0.06063   0.00000  Uiso   1.00
N179   N     0.06357   0.19922   0.53282   0.00000  Uiso   1.00
N180   N     0.46683   0.16187   0.19687   0.00000  Uiso   1.00
N181   N     0.15800   0.56542   0.16155   0.00000  Uiso   1.00
N182   N     0.99283   0.13825   0.44029   0.00000  Uiso   1.00
N183   N     0.39609   0.10090   0.10433   0.00000  Uiso   1.00
N184   N     0.08726   0.50445   0.06902   0.00000  Uiso   1.00
C185   C     0.31422   0.23565   0.69475   0.00000  Uiso   1.00
C186   C     0.26764   0.17093   0.65465   0.00000  Uiso   1.00
C187   C     0.26242   0.15592   0.56938   0.00000  Uiso   1.00
C188   C     0.21683   0.09406   0.54528   0.00000  Uiso   1.00
C189   C     0.15039   0.00046   0.47402   0.00000  Uiso   1.00
C190   C     0.25733   0.28207   0.74723   0.00000  Uiso   1.00
C191   C     0.24346   0.36052   0.73981   0.00000  Uiso   1.00
C192   C     0.18920   0.39221   0.79366   0.00000  Uiso   1.00
C193   C     0.10680   0.47118   0.86617   0.00000  Uiso   1.00
C194   C     0.36855   0.19695   0.75695   0.00000  Uiso   1.00
C195   C     0.44820   0.20383   0.75773   0.00000  Uiso   1.00
C196   C     0.48757   0.16387   0.81978   0.00000  Uiso   1.00
C197   C     0.57785   0.11067   0.90738   0.00000  Uiso   1.00
C198   C     0.24252   0.15247   0.80358   0.00000  Uiso   1.00
C199   C     0.22869   0.12575   0.71376   0.00000  Uiso   1.00
C200   C     0.18309   0.06389   0.68978   0.00000  Uiso   1.00
C201   C     0.17781   0.04879   0.60449   0.00000  Uiso   1.00
C202   C     0.21838   0.23690   0.80634   0.00000  Uiso   1.00
C203   C     0.16413   0.26848   0.86021   0.00000  Uiso   1.00
C204   C     0.15018   0.34695   0.85287   0.00000  Uiso   1.00
C205   C     0.32960   0.15177   0.81606   0.00000  Uiso   1.00
C206   C     0.36886   0.11180   0.87812   0.00000  Uiso   1.00
C207   C     0.44855   0.11861   0.87899   0.00000  Uiso   1.00
H208   H     0.34454   0.27083   0.64874   0.00000  Uiso   1.00
H209   H     0.29257   0.19091   0.52366   0.00000  Uiso   1.00
H210   H     0.27362   0.39547   0.69407   0.00000  Uiso   1.00
H211   H     0.47831   0.23880   0.71198   0.00000  Uiso   1.00
H212   H     0.21775   0.08239   0.41105   0.00000  Uiso   1.00
H213   H     0.17781   0.51372   0.77039   0.00000  Uiso   1.00
H214   H     0.60946   0.18337   0.80816   0.00000  Uiso   1.00
H215   H     0.21219   0.11729   0.84960   0.00000  Uiso   1.00
H216   H     0.15296   0.02894   0.73554   0.00000  Uiso   1.00
H217   H     0.13401   0.23350   0.90595   0.00000  Uiso   1.00
H218   H     0.33870   0.07684   0.92385   0.00000  Uiso   1.00
H219   H     0.10443   0.95093   0.58302   0.00000  Uiso   1.00
H220   H     0.06450   0.38226   0.94236   0.00000  Uiso   1.00
H221   H     0.49614   0.05191   0.98012   0.00000  Uiso   1.00
O222   O     0.12449   0.96132   0.41838   0.00000  Uiso   1.00
O223   O     0.07211   0.52721   0.88983   0.00000  Uiso   1.00
O224   O     0.63841   0.09380   0.93937   0.00000  Uiso   1.00
N225   N     0.19922   0.06357   0.46718   0.00000  Uiso   1.00
N226   N     0.16187   0.46683   0.80313   0.00000  Uiso   1.00
N227   N     0.56542   0.15800   0.83845   0.00000  Uiso   1.00
N228   N     0.13825   0.99283   0.55971   0.00000  Uiso   1.00
N229   N     0.10090   0.39609   0.89567   0.00000  Uiso   1.00
N230   N     0.50445   0.08726   0.93098   0.00000  Uiso   1.00
C231   C     0.68578   0.76435   0.69475   0.00000  Uiso   1.00
C232   C     0.73236   0.82907   0.65465   0.00000  Uiso   1.00
C233   C     0.73758   0.84408   0.56938   0.00000  Uiso   1.00
C234   C     0.78317   0.90594   0.54528   0.00000  Uiso   1.00
C235   C     0.84961   0.99954   0.47402   0.00000  Uiso   1.00
C236   C     0.74267   0.71793   0.74723   0.00000  Uiso   1.00
C237   C     0.75654   0.63948   0.73981   0.00000  Uiso   1.00
C238   C     0.81080   0.60779   0.79366   0.00000  Uiso   1.00
C239   C     0.89320   0.52882   0.86617   0.00000  Uiso   1.00
C240   C     0.63145   0.80305   0.75695   0.00000  Uiso   1.00
C241   C     0.55180   0.79617   0.75773   0.00000  Uiso   1.00
C242   C     0.51243   0.83613   0.81978   0.00000  Uiso   1.00
C243   C     0.42215   0.88933   0.90738   0.00000  Uiso   1.00
C244   C     0.75748   0.84753   0.80358   0.00000  Uiso   1.00
C245   C     0.77131   0.87425   0.71376   0.00000  Uiso   1.00
C246   C     0.81691   0.93611   0.68978   0.00000  Uiso   1.00
C247   C     0.82219   0.95121   0.60449   0.00000  Uiso   1.00
C248   C     0.78162   0.76310   0.80634   0.00000  Uiso   1.00
C249   C     0.83587   0.73152   0.86021   0.00000  Uiso   1.00
C250   C     0.84982   0.65305   0.85287   0.00000  Uiso   1.00
C251   C     0.67040   0.84823   0.81606   0.00000  Uiso   1.00
C252   C     0.63114   0.88820   0.87812   0.00000  Uiso   1.00
C253   C     0.55145   0.88139   0.87899   0.00000  Uiso   1.00
H254   H     0.65546   0.72917   0.64874   0.00000  Uiso   1.00
H255   H     0.70743   0.80909   0.52366   0.00000  Uiso   1.00
H256   H     0.72638   0.60453   0.69407   0.00000  Uiso   1.00
H257   H     0.52169   0.76120   0.71198   0.00000  Uiso   1.00
H258   H     0.78225   0.91761   0.41105   0.00000  Uiso   1.00
H259   H     0.82219   0.48628   0.77039   0.00000  Uiso   1.00
H260   H     0.39054   0.81663   0.80816   0.00000  Uiso   1.00
H261   H     0.78781   0.88271   0.84960   0.00000  Uiso   1.00
H262   H     0.84704   0.97106   0.73554   0.00000  Uiso   1.00
H263   H     0.86599   0.76650   0.90595   0.00000  Uiso   1.00
H264   H     0.66130   0.92316   0.92385   0.00000  Uiso   1.00
H265   H     0.89557   0.04907   0.58302   0.00000  Uiso   1.00
H266   H     0.93550   0.61774   0.94236   0.00000  Uiso   1.00
H267   H     0.50386   0.94809   0.98012   0.00000  Uiso   1.00
O268   O     0.87551   0.03868   0.41838   0.00000  Uiso   1.00
O269   O     0.92789   0.47279   0.88983   0.00000  Uiso   1.00
O270   O     0.36159   0.90620   0.93937   0.00000  Uiso   1.00
N271   N     0.80078   0.93643   0.46718   0.00000  Uiso   1.00
N272   N     0.83813   0.53317   0.80313   0.00000  Uiso   1.00
N273   N     0.43458   0.84200   0.83845   0.00000  Uiso   1.00
N274   N     0.86175   0.00717   0.55971   0.00000  Uiso   1.00
N275   N     0.89910   0.60391   0.89567   0.00000  Uiso   1.00
N276   N     0.49555   0.91274   0.93098   0.00000  Uiso   1.00
C277   C     0.73565   0.18578   0.19475   0.00000  Uiso   1.00
C278   C     0.67093   0.23236   0.15465   0.00000  Uiso   1.00
C279   C     0.65592   0.23758   0.06938   0.00000  Uiso   1.00
C280   C     0.59406   0.28317   0.04528   0.00000  Uiso   1.00
C281   C     0.50046   0.34961   0.97402   0.00000  Uiso   1.00
C282   C     0.78207   0.24267   0.24723   0.00000  Uiso   1.00
C283   C     0.86052   0.25654   0.23981   0.00000  Uiso   1.00
C284   C     0.89221   0.31080   0.29366   0.00000  Uiso   1.00
C285   C     0.97118   0.39320   0.36617   0.00000  Uiso   1.00
C286   C     0.69695   0.13145   0.25695   0.00000  Uiso   1.00
C287   C     0.70383   0.05180   0.25773   0.00000  Uiso   1.00
C288   C     0.66387   0.01243   0.31978   0.00000  Uiso   1.00
C289   C     0.61067   0.92215   0.40738   0.00000  Uiso   1.00
C290   C     0.65247   0.25748   0.30358   0.00000  Uiso   1.00
C291   C     0.62575   0.27131   0.21376   0.00000  Uiso   1.00
C292   C     0.56389   0.31691   0.18978   0.00000  Uiso   1.00
C293   C     0.54879   0.32219   0.10449   0.00000  Uiso   1.00
C294   C     0.73690   0.28162   0.30634   0.00000  Uiso   1.00
C295   C     0.76848   0.33587   0.36021   0.00000  Uiso   1.00
C296   C     0.84695   0.34982   0.35287   0.00000  Uiso   1.00
C297   C     0.65177   0.17040   0.31606   0.00000  Uiso   1.00
C298   C     0.61180   0.13114   0.37812   0.00000  Uiso   1.00
C299   C     0.61861   0.05145   0.37899   0.00000  Uiso   1.00
H300   H     0.77083   0.15546   0.14874   0.00000  Uiso   1.00
H301   H     0.69091   0.20743   0.02366   0.00000  Uiso   1.00
H302   H     0.89547   0.22638   0.19407   0.00000  Uiso   1.00
H303   H     0.73880   0.02169   0.21198   0.00000  Uiso   1.00
H304   H     0.58239   0.28225   0.91105   0.00000  Uiso   1.00
H305   H     0.01372   0.32219   0.27039   0.00000  Uiso   1.00
H306   H     0.68337   0.89054   0.30816   0.00000  Uiso   1.00
H307   H     0.61729   0.28781   0.34960   0.00000  Uiso   1.00
H308   H     0.52894   0.34704   0.23554   0.00000  Uiso   1.00
H309   H     0.73350   0.36599   0.40595   0.00000  Uiso   1.00
H310   H     0.57684   0.16130   0.42385   0.00000  Uiso   1.00
H311   H     0.45093   0.39557   0.08302   0.00000  Uiso   1.00
H312   H     0.88226   0.43550   0.44236   0.00000  Uiso   1.00
H313   H     0.55191   0.00386   0.48012   0.00000  Uiso   1.00
O314   O     0.46132   0.37551   0.91838   0.00000  Uiso   1.00
O315   O     0.02721   0.42789   0.38983   0.00000  Uiso   1.00
O316   O     0.59380   0.86159   0.43937   0.00000  Uiso   1.00
N317   N     0.56357   0.30078   0.96718   0.00000  Uiso   1.00
N318   N     0.96683   0.33813   0.30313   0.00000  Uiso   1.00
N319   N     0.65800   0.93458   0.33845   0.00000  Uiso   1.00
N320   N     0.49283   0.36175   0.05971   0.00000  Uiso   1.00
N321   N     0.89609   0.39910   0.39567   0.00000  Uiso   1.00
N322   N     0.58726   0.99555   0.43098   0.00000  Uiso   1.00
C323   C     0.26435   0.81422   0.19475   0.00000  Uiso   1.00
C324   C     0.32907   0.76764   0.15465   0.00000  Uiso   1.00
C325   C     0.34408   0.76242   0.06938   0.00000  Uiso   1.00
C326   C     0.40594   0.71683   0.04528   0.00000  Uiso   1.00
C327   C     0.49954   0.65039   0.97402   0.00000  Uiso   1.00
C328   C     0.21793   0.75733   0.24723   0.00000  Uiso   1.00
C329   C     0.13948   0.74346   0.23981   0.00000  Uiso   1.00
C330   C     0.10779   0.68920   0.29366   0.00000  Uiso   1.00
C331   C     0.02882   0.60680   0.36617   0.00000  Uiso   1.00
C332   C     0.30305   0.86855   0.25695   0.00000  Uiso   1.00
C333   C     0.29617   0.94820   0.25773   0.00000  Uiso   1.00
C334   C     0.33613   0.98757   0.31978   0.00000  Uiso   1.00
C335   C     0.38933   0.07785   0.40738   0.00000  Uiso   1.00
C336   C     0.34753   0.74252   0.30358   0.00000  Uiso   1.00
C337   C     0.37425   0.72869   0.21376   0.00000  Uiso   1.00
C338   C     0.43611   0.68309   0.18978   0.00000  Uiso   1.00
C339   C     0.45121   0.67781   0.10449   0.00000  Uiso   1.00
C340   C     0.26310   0.71838   0.30634   0.00000  Uiso   1.00
C341   C     0.23152   0.66413   0.36021   0.00000  Uiso   1.00
C342   C     0.15305   0.65018   0.35287   0.00000  Uiso   1.00
C343   C     0.34823   0.82960   0.31606   0.00000  Uiso   1.00
C344   C     0.38820   0.86886   0.37812   0.00000  Uiso   1.00
C345   C     0.38139   0.94855   0.37899   0.00000  Uiso   1.00
H346   H     0.22917   0.84454   0.14874   0.00000  Uiso   1.00
H347   H     0.30909   0.79257   0.02366   0.00000  Uiso   1.00
H348   H     0.10453   0.77362   0.19407   0.00000  Uiso   1.00
H349   H     0.26120   0.97831   0.21198   0.00000  Uiso   1.00
H350   H     0.41761   0.71775   0.91105   0.00000  Uiso   1.00
H351   H     0.98628   0.67781   0.27039   0.00000  Uiso   1.00
H352   H     0.31663   0.10946   0.30816   0.00000  Uiso   1.00
H353   H     0.38271   0.71219   0.34960   0.00000  Uiso   1.00
H354   H     0.47106   0.65296   0.23554   0.00000  Uiso   1.00
H355   H     0.26650   0.63401   0.40595   0.00000  Uiso   1.00
H356   H     0.42316   0.83870   0.42385   0.00000  Uiso   1.00
H357   H     0.54907   0.60443   0.08302   0.00000  Uiso   1.00
H358   H     0.11774   0.56450   0.44236   0.00000  Uiso   1.00
H359   H     0.44809   0.99614   0.48012   0.00000  Uiso   1.00
O360   O     0.53868   0.62449   0.91838   0.00000  Uiso   1.00
O361   O     0.97279   0.57211   0.38983   0.00000  Uiso   1.00
O362   O     0.40620   0.13841   0.43937   0.00000  Uiso   1.00
N363   N     0.43643   0.69922   0.96718   0.00000  Uiso   1.00
N364   N     0.03317   0.66187   0.30313   0.00000  Uiso   1.00
N365   N     0.34200   0.06542   0.33845   0.00000  Uiso   1.00
N366   N     0.50717   0.63825   0.05971   0.00000  Uiso   1.00
N367   N     0.10391   0.60090   0.39567   0.00000  Uiso   1.00
N368   N     0.41274   0.00445   0.43098   0.00000  Uiso   1.00
