data_job_02176
_audit_creation_date              2018-12-19
_audit_creation_method            'Materials Studio'
_symmetry_space_group_name_H-M    'P1'
_symmetry_Int_Tables_number       1
_symmetry_cell_setting            triclinic
loop_
_symmetry_equiv_pos_as_xyz
  x,y,z
_cell_length_a                    40.6359
_cell_length_b                    7.1133
_cell_length_c                    33.9350
_cell_angle_alpha                 90.0000
_cell_angle_beta                  90.0000
_cell_angle_gamma                 90.0000
loop_
_atom_site_label
_atom_site_type_symbol
_atom_site_fract_x
_atom_site_fract_y
_atom_site_fract_z
_atom_site_U_iso_or_equiv
_atom_site_adp_type
_atom_site_occupancy
C1     C     0.91213   0.80882   0.82425   0.00000  Uiso   1.00
C2     C     0.87992   0.69897   0.82561   0.00000  Uiso   1.00
C3     C     0.84858   0.77615   0.82428   0.00000  Uiso   1.00
C4     C     0.82227   0.65189   0.82590   0.00000  Uiso   1.00
C5     C     0.77151   0.51090   0.82760   0.00000  Uiso   1.00
C6     C     0.93115   0.75285   0.86117   0.00000  Uiso   1.00
C7     C     0.94287   0.87534   0.88974   0.00000  Uiso   1.00
C8     C     0.95968   0.79644   0.92129   0.00000  Uiso   1.00
C9     C     0.98847   0.73912   0.97818   0.00000  Uiso   1.00
C10    C     0.93150   0.72936   0.78955   0.00000  Uiso   1.00
C11    C     0.94352   0.83209   0.75790   0.00000  Uiso   1.00
C12    C     0.96063   0.73341   0.72916   0.00000  Uiso   1.00
C13    C     0.98997   0.63961   0.67485   0.00000  Uiso   1.00
C14    C     0.92114   0.45090   0.82947   0.00000  Uiso   1.00
C15    C     0.88482   0.50456   0.82845   0.00000  Uiso   1.00
C16    C     0.85855   0.38015   0.83006   0.00000  Uiso   1.00
C17    C     0.82717   0.45713   0.82874   0.00000  Uiso   1.00
C18    C     0.93604   0.55845   0.86401   0.00000  Uiso   1.00
C19    C     0.95284   0.47934   0.89552   0.00000  Uiso   1.00
C20    C     0.96458   0.60168   0.92413   0.00000  Uiso   1.00
C21    C     0.93639   0.53494   0.79238   0.00000  Uiso   1.00
C22    C     0.95349   0.43609   0.76368   0.00000  Uiso   1.00
C23    C     0.96554   0.53865   0.73200   0.00000  Uiso   1.00
H24    H     0.90832   0.96017   0.82204   0.00000  Uiso   1.00
H25    H     0.84480   0.92661   0.82209   0.00000  Uiso   1.00
H26    H     0.93908   0.02578   0.88753   0.00000  Uiso   1.00
H27    H     0.93973   0.98253   0.75572   0.00000  Uiso   1.00
H28    H     0.77654   0.80366   0.82342   0.00000  Uiso   1.00
H29    H     0.97534   0.01279   0.96140   0.00000  Uiso   1.00
H30    H     0.97671   0.92159   0.68344   0.00000  Uiso   1.00
H31    H     0.92495   0.29954   0.83168   0.00000  Uiso   1.00
H32    H     0.86234   0.22971   0.83226   0.00000  Uiso   1.00
H33    H     0.95662   0.32889   0.89770   0.00000  Uiso   1.00
H34    H     0.95727   0.28564   0.76589   0.00000  Uiso   1.00
H35    H     0.79077   0.23803   0.83167   0.00000  Uiso   1.00
H36    H     0.98958   0.44717   0.96965   0.00000  Uiso   1.00
H37    H     0.99095   0.35597   0.69169   0.00000  Uiso   1.00
O38    O     0.74217   0.48684   0.82776   0.00000  Uiso   1.00
O39    O     0.00299   0.76121   0.00878   0.00000  Uiso   1.00
O40    O     0.00479   0.64157   0.64411   0.00000  Uiso   1.00
N41    N     0.78848   0.68012   0.82527   0.00000  Uiso   1.00
N42    N     0.97434   0.87564   0.95428   0.00000  Uiso   1.00
N43    N     0.97563   0.79039   0.69442   0.00000  Uiso   1.00
N44    N     0.79614   0.37576   0.82971   0.00000  Uiso   1.00
N45    N     0.98200   0.57128   0.95872   0.00000  Uiso   1.00
N46    N     0.98329   0.48603   0.69886   0.00000  Uiso   1.00
C47    C     0.58787   0.69118   0.82425   0.00000  Uiso   1.00
C48    C     0.62008   0.80103   0.82561   0.00000  Uiso   1.00
C49    C     0.65142   0.72385   0.82428   0.00000  Uiso   1.00
C50    C     0.67773   0.84811   0.82590   0.00000  Uiso   1.00
C51    C     0.72849   0.98910   0.82760   0.00000  Uiso   1.00
C52    C     0.56885   0.74715   0.86117   0.00000  Uiso   1.00
C53    C     0.55713   0.62466   0.88974   0.00000  Uiso   1.00
C54    C     0.54032   0.70356   0.92129   0.00000  Uiso   1.00
C55    C     0.51153   0.76088   0.97818   0.00000  Uiso   1.00
C56    C     0.56850   0.77064   0.78955   0.00000  Uiso   1.00
C57    C     0.55648   0.66791   0.75790   0.00000  Uiso   1.00
C58    C     0.53937   0.76659   0.72916   0.00000  Uiso   1.00
C59    C     0.51003   0.86039   0.67485   0.00000  Uiso   1.00
C60    C     0.57886   0.04910   0.82947   0.00000  Uiso   1.00
C61    C     0.61518   0.99544   0.82845   0.00000  Uiso   1.00
C62    C     0.64145   0.11985   0.83006   0.00000  Uiso   1.00
C63    C     0.67283   0.04287   0.82874   0.00000  Uiso   1.00
C64    C     0.56396   0.94155   0.86401   0.00000  Uiso   1.00
C65    C     0.54716   0.02066   0.89552   0.00000  Uiso   1.00
C66    C     0.53542   0.89832   0.92413   0.00000  Uiso   1.00
C67    C     0.56361   0.96506   0.79238   0.00000  Uiso   1.00
C68    C     0.54651   0.06391   0.76368   0.00000  Uiso   1.00
C69    C     0.53446   0.96135   0.73200   0.00000  Uiso   1.00
H70    H     0.59168   0.53983   0.82204   0.00000  Uiso   1.00
H71    H     0.65520   0.57339   0.82209   0.00000  Uiso   1.00
H72    H     0.56092   0.47422   0.88753   0.00000  Uiso   1.00
H73    H     0.56027   0.51747   0.75572   0.00000  Uiso   1.00
H74    H     0.72346   0.69634   0.82342   0.00000  Uiso   1.00
H75    H     0.52466   0.48721   0.96140   0.00000  Uiso   1.00
H76    H     0.52329   0.57841   0.68344   0.00000  Uiso   1.00
H77    H     0.57505   0.20046   0.83168   0.00000  Uiso   1.00
H78    H     0.63766   0.27029   0.83226   0.00000  Uiso   1.00
H79    H     0.54338   0.17111   0.89770   0.00000  Uiso   1.00
H80    H     0.54273   0.21436   0.76589   0.00000  Uiso   1.00
H81    H     0.70923   0.26197   0.83167   0.00000  Uiso   1.00
H82    H     0.51042   0.05283   0.96965   0.00000  Uiso   1.00
H83    H     0.50905   0.14403   0.69169   0.00000  Uiso   1.00
O84    O     0.75783   0.01316   0.82776   0.00000  Uiso   1.00
O85    O     0.49701   0.73879   0.00878   0.00000  Uiso   1.00
O86    O     0.49521   0.85843   0.64411   0.00000  Uiso   1.00
N87    N     0.71152   0.81988   0.82527   0.00000  Uiso   1.00
N88    N     0.52566   0.62436   0.95428   0.00000  Uiso   1.00
N89    N     0.52437   0.70961   0.69442   0.00000  Uiso   1.00
N90    N     0.70386   0.12424   0.82971   0.00000  Uiso   1.00
N91    N     0.51800   0.92872   0.95872   0.00000  Uiso   1.00
N92    N     0.51671   0.01397   0.69886   0.00000  Uiso   1.00
C93    C     0.08787   0.30882   0.67575   0.00000  Uiso   1.00
C94    C     0.12008   0.19897   0.67439   0.00000  Uiso   1.00
C95    C     0.15142   0.27615   0.67572   0.00000  Uiso   1.00
C96    C     0.17773   0.15189   0.67410   0.00000  Uiso   1.00
C97    C     0.22849   0.01090   0.67240   0.00000  Uiso   1.00
C98    C     0.06885   0.25285   0.63883   0.00000  Uiso   1.00
C99    C     0.05713   0.37534   0.61026   0.00000  Uiso   1.00
C100   C     0.04032   0.29644   0.57871   0.00000  Uiso   1.00
C101   C     0.01153   0.23912   0.52182   0.00000  Uiso   1.00
C102   C     0.06850   0.22936   0.71045   0.00000  Uiso   1.00
C103   C     0.05648   0.33209   0.74210   0.00000  Uiso   1.00
C104   C     0.03937   0.23341   0.77084   0.00000  Uiso   1.00
C105   C     0.01003   0.13961   0.82515   0.00000  Uiso   1.00
C106   C     0.07886   0.95090   0.67053   0.00000  Uiso   1.00
C107   C     0.11518   0.00456   0.67155   0.00000  Uiso   1.00
C108   C     0.14145   0.88015   0.66994   0.00000  Uiso   1.00
C109   C     0.17283   0.95713   0.67126   0.00000  Uiso   1.00
C110   C     0.06396   0.05845   0.63599   0.00000  Uiso   1.00
C111   C     0.04716   0.97934   0.60448   0.00000  Uiso   1.00
C112   C     0.03542   0.10168   0.57587   0.00000  Uiso   1.00
C113   C     0.06361   0.03494   0.70762   0.00000  Uiso   1.00
C114   C     0.04651   0.93609   0.73632   0.00000  Uiso   1.00
C115   C     0.03446   0.03865   0.76800   0.00000  Uiso   1.00
H116   H     0.09168   0.46017   0.67796   0.00000  Uiso   1.00
H117   H     0.15520   0.42661   0.67791   0.00000  Uiso   1.00
H118   H     0.06092   0.52578   0.61247   0.00000  Uiso   1.00
H119   H     0.06027   0.48253   0.74428   0.00000  Uiso   1.00
H120   H     0.22346   0.30366   0.67658   0.00000  Uiso   1.00
H121   H     0.02466   0.51279   0.53860   0.00000  Uiso   1.00
H122   H     0.02329   0.42159   0.81656   0.00000  Uiso   1.00
H123   H     0.07505   0.79954   0.66832   0.00000  Uiso   1.00
H124   H     0.13766   0.72971   0.66774   0.00000  Uiso   1.00
H125   H     0.04338   0.82889   0.60230   0.00000  Uiso   1.00
H126   H     0.04273   0.78564   0.73411   0.00000  Uiso   1.00
H127   H     0.20923   0.73803   0.66833   0.00000  Uiso   1.00
H128   H     0.01042   0.94717   0.53035   0.00000  Uiso   1.00
H129   H     0.00905   0.85597   0.80831   0.00000  Uiso   1.00
O130   O     0.25783   0.98684   0.67224   0.00000  Uiso   1.00
O131   O     0.99701   0.26121   0.49122   0.00000  Uiso   1.00
O132   O     0.99521   0.14157   0.85589   0.00000  Uiso   1.00
N133   N     0.21152   0.18012   0.67473   0.00000  Uiso   1.00
N134   N     0.02566   0.37564   0.54572   0.00000  Uiso   1.00
N135   N     0.02437   0.29039   0.80558   0.00000  Uiso   1.00
N136   N     0.20386   0.87576   0.67029   0.00000  Uiso   1.00
N137   N     0.01800   0.07128   0.54128   0.00000  Uiso   1.00
N138   N     0.01671   0.98603   0.80114   0.00000  Uiso   1.00
C139   C     0.41213   0.19118   0.67575   0.00000  Uiso   1.00
C140   C     0.37992   0.30103   0.67439   0.00000  Uiso   1.00
C141   C     0.34858   0.22385   0.67572   0.00000  Uiso   1.00
C142   C     0.32227   0.34811   0.67410   0.00000  Uiso   1.00
C143   C     0.27151   0.48910   0.67240   0.00000  Uiso   1.00
C144   C     0.43115   0.24715   0.63883   0.00000  Uiso   1.00
C145   C     0.44287   0.12466   0.61026   0.00000  Uiso   1.00
C146   C     0.45968   0.20356   0.57871   0.00000  Uiso   1.00
C147   C     0.48847   0.26088   0.52182   0.00000  Uiso   1.00
C148   C     0.43150   0.27064   0.71045   0.00000  Uiso   1.00
C149   C     0.44352   0.16791   0.74210   0.00000  Uiso   1.00
C150   C     0.46063   0.26659   0.77084   0.00000  Uiso   1.00
C151   C     0.48997   0.36039   0.82515   0.00000  Uiso   1.00
C152   C     0.42114   0.54910   0.67053   0.00000  Uiso   1.00
C153   C     0.38482   0.49544   0.67155   0.00000  Uiso   1.00
C154   C     0.35855   0.61985   0.66994   0.00000  Uiso   1.00
C155   C     0.32717   0.54287   0.67126   0.00000  Uiso   1.00
C156   C     0.43604   0.44155   0.63599   0.00000  Uiso   1.00
C157   C     0.45284   0.52066   0.60448   0.00000  Uiso   1.00
C158   C     0.46458   0.39832   0.57587   0.00000  Uiso   1.00
C159   C     0.43639   0.46506   0.70762   0.00000  Uiso   1.00
C160   C     0.45349   0.56391   0.73632   0.00000  Uiso   1.00
C161   C     0.46554   0.46135   0.76800   0.00000  Uiso   1.00
H162   H     0.40832   0.03983   0.67796   0.00000  Uiso   1.00
H163   H     0.34480   0.07339   0.67791   0.00000  Uiso   1.00
H164   H     0.43908   0.97422   0.61247   0.00000  Uiso   1.00
H165   H     0.43973   0.01747   0.74428   0.00000  Uiso   1.00
H166   H     0.27654   0.19634   0.67658   0.00000  Uiso   1.00
H167   H     0.47534   0.98721   0.53860   0.00000  Uiso   1.00
H168   H     0.47671   0.07841   0.81656   0.00000  Uiso   1.00
H169   H     0.42495   0.70046   0.66832   0.00000  Uiso   1.00
H170   H     0.36234   0.77029   0.66774   0.00000  Uiso   1.00
H171   H     0.45662   0.67111   0.60230   0.00000  Uiso   1.00
H172   H     0.45727   0.71436   0.73411   0.00000  Uiso   1.00
H173   H     0.29077   0.76197   0.66833   0.00000  Uiso   1.00
H174   H     0.48958   0.55283   0.53035   0.00000  Uiso   1.00
H175   H     0.49095   0.64403   0.80831   0.00000  Uiso   1.00
O176   O     0.24217   0.51316   0.67224   0.00000  Uiso   1.00
O177   O     0.50299   0.23879   0.49122   0.00000  Uiso   1.00
O178   O     0.50479   0.35843   0.85589   0.00000  Uiso   1.00
N179   N     0.28848   0.31988   0.67473   0.00000  Uiso   1.00
N180   N     0.47434   0.12436   0.54572   0.00000  Uiso   1.00
N181   N     0.47563   0.20961   0.80558   0.00000  Uiso   1.00
N182   N     0.29614   0.62424   0.67029   0.00000  Uiso   1.00
N183   N     0.48200   0.42872   0.54128   0.00000  Uiso   1.00
N184   N     0.48329   0.51397   0.80114   0.00000  Uiso   1.00
C185   C     0.08787   0.19118   0.17575   0.00000  Uiso   1.00
C186   C     0.12008   0.30103   0.17439   0.00000  Uiso   1.00
C187   C     0.15142   0.22385   0.17572   0.00000  Uiso   1.00
C188   C     0.17773   0.34811   0.17410   0.00000  Uiso   1.00
C189   C     0.22849   0.48910   0.17240   0.00000  Uiso   1.00
C190   C     0.06885   0.24715   0.13883   0.00000  Uiso   1.00
C191   C     0.05713   0.12466   0.11026   0.00000  Uiso   1.00
C192   C     0.04032   0.20356   0.07871   0.00000  Uiso   1.00
C193   C     0.01153   0.26088   0.02182   0.00000  Uiso   1.00
C194   C     0.06850   0.27064   0.21045   0.00000  Uiso   1.00
C195   C     0.05648   0.16791   0.24210   0.00000  Uiso   1.00
C196   C     0.03937   0.26659   0.27084   0.00000  Uiso   1.00
C197   C     0.01003   0.36039   0.32515   0.00000  Uiso   1.00
C198   C     0.07886   0.54910   0.17053   0.00000  Uiso   1.00
C199   C     0.11518   0.49544   0.17155   0.00000  Uiso   1.00
C200   C     0.14145   0.61985   0.16994   0.00000  Uiso   1.00
C201   C     0.17283   0.54287   0.17126   0.00000  Uiso   1.00
C202   C     0.06396   0.44155   0.13599   0.00000  Uiso   1.00
C203   C     0.04716   0.52066   0.10448   0.00000  Uiso   1.00
C204   C     0.03542   0.39832   0.07587   0.00000  Uiso   1.00
C205   C     0.06361   0.46506   0.20762   0.00000  Uiso   1.00
C206   C     0.04651   0.56391   0.23632   0.00000  Uiso   1.00
C207   C     0.03446   0.46135   0.26800   0.00000  Uiso   1.00
H208   H     0.09168   0.03983   0.17796   0.00000  Uiso   1.00
H209   H     0.15520   0.07339   0.17791   0.00000  Uiso   1.00
H210   H     0.06092   0.97422   0.11247   0.00000  Uiso   1.00
H211   H     0.06027   0.01747   0.24428   0.00000  Uiso   1.00
H212   H     0.22346   0.19634   0.17658   0.00000  Uiso   1.00
H213   H     0.02466   0.98721   0.03860   0.00000  Uiso   1.00
H214   H     0.02329   0.07841   0.31656   0.00000  Uiso   1.00
H215   H     0.07505   0.70046   0.16832   0.00000  Uiso   1.00
H216   H     0.13766   0.77029   0.16774   0.00000  Uiso   1.00
H217   H     0.04338   0.67111   0.10230   0.00000  Uiso   1.00
H218   H     0.04273   0.71436   0.23411   0.00000  Uiso   1.00
H219   H     0.20923   0.76197   0.16833   0.00000  Uiso   1.00
H220   H     0.01042   0.55283   0.03035   0.00000  Uiso   1.00
H221   H     0.00905   0.64403   0.30831   0.00000  Uiso   1.00
O222   O     0.25783   0.51316   0.17224   0.00000  Uiso   1.00
O223   O     0.99701   0.23879   0.99122   0.00000  Uiso   1.00
O224   O     0.99521   0.35843   0.35589   0.00000  Uiso   1.00
N225   N     0.21152   0.31988   0.17473   0.00000  Uiso   1.00
N226   N     0.02566   0.12436   0.04572   0.00000  Uiso   1.00
N227   N     0.02437   0.20961   0.30558   0.00000  Uiso   1.00
N228   N     0.20386   0.62424   0.17029   0.00000  Uiso   1.00
N229   N     0.01800   0.42872   0.04128   0.00000  Uiso   1.00
N230   N     0.01671   0.51397   0.30114   0.00000  Uiso   1.00
C231   C     0.41213   0.30882   0.17575   0.00000  Uiso   1.00
C232   C     0.37992   0.19897   0.17439   0.00000  Uiso   1.00
C233   C     0.34858   0.27615   0.17572   0.00000  Uiso   1.00
C234   C     0.32227   0.15189   0.17410   0.00000  Uiso   1.00
C235   C     0.27151   0.01090   0.17240   0.00000  Uiso   1.00
C236   C     0.43115   0.25285   0.13883   0.00000  Uiso   1.00
C237   C     0.44287   0.37534   0.11026   0.00000  Uiso   1.00
C238   C     0.45968   0.29644   0.07871   0.00000  Uiso   1.00
C239   C     0.48847   0.23912   0.02182   0.00000  Uiso   1.00
C240   C     0.43150   0.22936   0.21045   0.00000  Uiso   1.00
C241   C     0.44352   0.33209   0.24210   0.00000  Uiso   1.00
C242   C     0.46063   0.23341   0.27084   0.00000  Uiso   1.00
C243   C     0.48997   0.13961   0.32515   0.00000  Uiso   1.00
C244   C     0.42114   0.95090   0.17053   0.00000  Uiso   1.00
C245   C     0.38482   0.00456   0.17155   0.00000  Uiso   1.00
C246   C     0.35855   0.88015   0.16994   0.00000  Uiso   1.00
C247   C     0.32717   0.95713   0.17126   0.00000  Uiso   1.00
C248   C     0.43604   0.05845   0.13599   0.00000  Uiso   1.00
C249   C     0.45284   0.97934   0.10448   0.00000  Uiso   1.00
C250   C     0.46458   0.10168   0.07587   0.00000  Uiso   1.00
C251   C     0.43639   0.03494   0.20762   0.00000  Uiso   1.00
C252   C     0.45349   0.93609   0.23632   0.00000  Uiso   1.00
C253   C     0.46554   0.03865   0.26800   0.00000  Uiso   1.00
H254   H     0.40832   0.46017   0.17796   0.00000  Uiso   1.00
H255   H     0.34480   0.42661   0.17791   0.00000  Uiso   1.00
H256   H     0.43908   0.52578   0.11247   0.00000  Uiso   1.00
H257   H     0.43973   0.48253   0.24428   0.00000  Uiso   1.00
H258   H     0.27654   0.30366   0.17658   0.00000  Uiso   1.00
H259   H     0.47534   0.51279   0.03860   0.00000  Uiso   1.00
H260   H     0.47671   0.42159   0.31656   0.00000  Uiso   1.00
H261   H     0.42495   0.79954   0.16832   0.00000  Uiso   1.00
H262   H     0.36234   0.72971   0.16774   0.00000  Uiso   1.00
H263   H     0.45662   0.82889   0.10230   0.00000  Uiso   1.00
H264   H     0.45727   0.78564   0.23411   0.00000  Uiso   1.00
H265   H     0.29077   0.73803   0.16833   0.00000  Uiso   1.00
H266   H     0.48958   0.94717   0.03035   0.00000  Uiso   1.00
H267   H     0.49095   0.85597   0.30831   0.00000  Uiso   1.00
O268   O     0.24217   0.98684   0.17224   0.00000  Uiso   1.00
O269   O     0.50299   0.26121   0.99122   0.00000  Uiso   1.00
O270   O     0.50479   0.14157   0.35589   0.00000  Uiso   1.00
N271   N     0.28848   0.18012   0.17473   0.00000  Uiso   1.00
N272   N     0.47434   0.37564   0.04572   0.00000  Uiso   1.00
N273   N     0.47563   0.29039   0.30558   0.00000  Uiso   1.00
N274   N     0.29614   0.87576   0.17029   0.00000  Uiso   1.00
N275   N     0.48200   0.07128   0.04128   0.00000  Uiso   1.00
N276   N     0.48329   0.98603   0.30114   0.00000  Uiso   1.00
C277   C     0.91213   0.69118   0.32425   0.00000  Uiso   1.00
C278   C     0.87992   0.80103   0.32561   0.00000  Uiso   1.00
C279   C     0.84858   0.72385   0.32428   0.00000  Uiso   1.00
C280   C     0.82227   0.84811   0.32590   0.00000  Uiso   1.00
C281   C     0.77151   0.98910   0.32760   0.00000  Uiso   1.00
C282   C     0.93115   0.74715   0.36117   0.00000  Uiso   1.00
C283   C     0.94287   0.62466   0.38974   0.00000  Uiso   1.00
C284   C     0.95968   0.70356   0.42129   0.00000  Uiso   1.00
C285   C     0.98847   0.76088   0.47818   0.00000  Uiso   1.00
C286   C     0.93150   0.77064   0.28955   0.00000  Uiso   1.00
C287   C     0.94352   0.66791   0.25790   0.00000  Uiso   1.00
C288   C     0.96063   0.76659   0.22916   0.00000  Uiso   1.00
C289   C     0.98997   0.86039   0.17485   0.00000  Uiso   1.00
C290   C     0.92114   0.04910   0.32947   0.00000  Uiso   1.00
C291   C     0.88482   0.99544   0.32845   0.00000  Uiso   1.00
C292   C     0.85855   0.11985   0.33006   0.00000  Uiso   1.00
C293   C     0.82717   0.04287   0.32874   0.00000  Uiso   1.00
C294   C     0.93604   0.94155   0.36401   0.00000  Uiso   1.00
C295   C     0.95284   0.02066   0.39552   0.00000  Uiso   1.00
C296   C     0.96458   0.89832   0.42413   0.00000  Uiso   1.00
C297   C     0.93639   0.96506   0.29238   0.00000  Uiso   1.00
C298   C     0.95349   0.06391   0.26368   0.00000  Uiso   1.00
C299   C     0.96554   0.96135   0.23200   0.00000  Uiso   1.00
H300   H     0.90832   0.53983   0.32204   0.00000  Uiso   1.00
H301   H     0.84480   0.57339   0.32209   0.00000  Uiso   1.00
H302   H     0.93908   0.47422   0.38753   0.00000  Uiso   1.00
H303   H     0.93973   0.51747   0.25572   0.00000  Uiso   1.00
H304   H     0.77654   0.69634   0.32342   0.00000  Uiso   1.00
H305   H     0.97534   0.48721   0.46140   0.00000  Uiso   1.00
H306   H     0.97671   0.57841   0.18344   0.00000  Uiso   1.00
H307   H     0.92495   0.20046   0.33168   0.00000  Uiso   1.00
H308   H     0.86234   0.27029   0.33226   0.00000  Uiso   1.00
H309   H     0.95662   0.17111   0.39770   0.00000  Uiso   1.00
H310   H     0.95727   0.21436   0.26589   0.00000  Uiso   1.00
H311   H     0.79077   0.26197   0.33167   0.00000  Uiso   1.00
H312   H     0.98958   0.05283   0.46965   0.00000  Uiso   1.00
H313   H     0.99095   0.14403   0.19169   0.00000  Uiso   1.00
O314   O     0.74217   0.01316   0.32776   0.00000  Uiso   1.00
O315   O     0.00299   0.73879   0.50878   0.00000  Uiso   1.00
O316   O     0.00479   0.85843   0.14411   0.00000  Uiso   1.00
N317   N     0.78848   0.81988   0.32527   0.00000  Uiso   1.00
N318   N     0.97434   0.62436   0.45428   0.00000  Uiso   1.00
N319   N     0.97563   0.70961   0.19442   0.00000  Uiso   1.00
N320   N     0.79614   0.12424   0.32971   0.00000  Uiso   1.00
N321   N     0.98200   0.92872   0.45872   0.00000  Uiso   1.00
N322   N     0.98329   0.01397   0.19886   0.00000  Uiso   1.00
C323   C     0.58787   0.80882   0.32425   0.00000  Uiso   1.00
C324   C     0.62008   0.69897   0.32561   0.00000  Uiso   1.00
C325   C     0.65142   0.77615   0.32428   0.00000  Uiso   1.00
C326   C     0.67773   0.65189   0.32590   0.00000  Uiso   1.00
C327   C     0.72849   0.51090   0.32760   0.00000  Uiso   1.00
C328   C     0.56885   0.75285   0.36117   0.00000  Uiso   1.00
C329   C     0.55713   0.87534   0.38974   0.00000  Uiso   1.00
C330   C     0.54032   0.79644   0.42129   0.00000  Uiso   1.00
C331   C     0.51153   0.73912   0.47818   0.00000  Uiso   1.00
C332   C     0.56850   0.72936   0.28955   0.00000  Uiso   1.00
C333   C     0.55648   0.83209   0.25790   0.00000  Uiso   1.00
C334   C     0.53937   0.73341   0.22916   0.00000  Uiso   1.00
C335   C     0.51003   0.63961   0.17485   0.00000  Uiso   1.00
C336   C     0.57886   0.45090   0.32947   0.00000  Uiso   1.00
C337   C     0.61518   0.50456   0.32845   0.00000  Uiso   1.00
C338   C     0.64145   0.38015   0.33006   0.00000  Uiso   1.00
C339   C     0.67283   0.45713   0.32874   0.00000  Uiso   1.00
C340   C     0.56396   0.55845   0.36401   0.00000  Uiso   1.00
C341   C     0.54716   0.47934   0.39552   0.00000  Uiso   1.00
C342   C     0.53542   0.60168   0.42413   0.00000  Uiso   1.00
C343   C     0.56361   0.53494   0.29238   0.00000  Uiso   1.00
C344   C     0.54651   0.43609   0.26368   0.00000  Uiso   1.00
C345   C     0.53446   0.53865   0.23200   0.00000  Uiso   1.00
H346   H     0.59168   0.96017   0.32204   0.00000  Uiso   1.00
H347   H     0.65520   0.92661   0.32209   0.00000  Uiso   1.00
H348   H     0.56092   0.02578   0.38753   0.00000  Uiso   1.00
H349   H     0.56027   0.98253   0.25572   0.00000  Uiso   1.00
H350   H     0.72346   0.80366   0.32342   0.00000  Uiso   1.00
H351   H     0.52466   0.01279   0.46140   0.00000  Uiso   1.00
H352   H     0.52329   0.92159   0.18344   0.00000  Uiso   1.00
H353   H     0.57505   0.29954   0.33168   0.00000  Uiso   1.00
H354   H     0.63766   0.22971   0.33226   0.00000  Uiso   1.00
H355   H     0.54338   0.32889   0.39770   0.00000  Uiso   1.00
H356   H     0.54273   0.28564   0.26589   0.00000  Uiso   1.00
H357   H     0.70923   0.23803   0.33167   0.00000  Uiso   1.00
H358   H     0.51042   0.44717   0.46965   0.00000  Uiso   1.00
H359   H     0.50905   0.35597   0.19169   0.00000  Uiso   1.00
O360   O     0.75783   0.48684   0.32776   0.00000  Uiso   1.00
O361   O     0.49701   0.76121   0.50878   0.00000  Uiso   1.00
O362   O     0.49521   0.64157   0.14411   0.00000  Uiso   1.00
N363   N     0.71152   0.68012   0.32527   0.00000  Uiso   1.00
N364   N     0.52566   0.87564   0.45428   0.00000  Uiso   1.00
N365   N     0.52437   0.79039   0.19442   0.00000  Uiso   1.00
N366   N     0.70386   0.37576   0.32971   0.00000  Uiso   1.00
N367   N     0.51800   0.57128   0.45872   0.00000  Uiso   1.00
N368   N     0.51671   0.48603   0.19886   0.00000  Uiso   1.00
