data_job_03464
_audit_creation_date              2018-12-19
_audit_creation_method            'Materials Studio'
_symmetry_space_group_name_H-M    'P1'
_symmetry_Int_Tables_number       1
_symmetry_cell_setting            triclinic
loop_
_symmetry_equiv_pos_as_xyz
  x,y,z
_cell_length_a                    16.5901
_cell_length_b                    19.1183
_cell_length_c                    10.7635
_cell_angle_alpha                 90.0000
_cell_angle_beta                  90.0000
_cell_angle_gamma                 90.0000
loop_
_atom_site_label
_atom_site_type_symbol
_atom_site_fract_x
_atom_site_fract_y
_atom_site_fract_z
_atom_site_U_iso_or_equiv
_atom_site_adp_type
_atom_site_occupancy
C1     C     0.41827   0.20049   0.92610   0.00000  Uiso   1.00
C2     C     0.35333   0.15167   0.87574   0.00000  Uiso   1.00
C3     C     0.28673   0.12773   0.94115   0.00000  Uiso   1.00
C4     C     0.23432   0.08342   0.87856   0.00000  Uiso   1.00
C5     C     0.13141   0.01057   0.81919   0.00000  Uiso   1.00
C6     C     0.49810   0.16217   0.90880   0.00000  Uiso   1.00
C7     C     0.55323   0.14706   0.00200   0.00000  Uiso   1.00
C8     C     0.62269   0.11160   0.96723   0.00000  Uiso   1.00
C9     C     0.74457   0.05510   0.95916   0.00000  Uiso   1.00
C10    C     0.42075   0.26286   0.83789   0.00000  Uiso   1.00
C11    C     0.41086   0.33242   0.87146   0.00000  Uiso   1.00
C12    C     0.41521   0.38173   0.77699   0.00000  Uiso   1.00
C13    C     0.41699   0.48157   0.65881   0.00000  Uiso   1.00
C14    C     0.44361   0.16437   0.69864   0.00000  Uiso   1.00
C15    C     0.36710   0.13205   0.75219   0.00000  Uiso   1.00
C16    C     0.31477   0.08777   0.68949   0.00000  Uiso   1.00
C17    C     0.24810   0.06376   0.75479   0.00000  Uiso   1.00
C18    C     0.51187   0.14255   0.78526   0.00000  Uiso   1.00
C19    C     0.58127   0.10710   0.75034   0.00000  Uiso   1.00
C20    C     0.63648   0.09194   0.84346   0.00000  Uiso   1.00
C21    C     0.43451   0.24324   0.71433   0.00000  Uiso   1.00
C22    C     0.43889   0.29246   0.61980   0.00000  Uiso   1.00
C23    C     0.42900   0.36208   0.65322   0.00000  Uiso   1.00
H24    H     0.40755   0.21576   0.02229   0.00000  Uiso   1.00
H25    H     0.27610   0.14292   0.03676   0.00000  Uiso   1.00
H26    H     0.54256   0.16226   0.09760   0.00000  Uiso   1.00
H27    H     0.40020   0.34758   0.96708   0.00000  Uiso   1.00
H28    H     0.13645   0.05349   0.99834   0.00000  Uiso   1.00
H29    H     0.69830   0.09429   0.12661   0.00000  Uiso   1.00
H30    H     0.39812   0.48508   0.85138   0.00000  Uiso   1.00
H31    H     0.45433   0.14909   0.60245   0.00000  Uiso   1.00
H32    H     0.32544   0.07259   0.59388   0.00000  Uiso   1.00
H33    H     0.59190   0.09193   0.65472   0.00000  Uiso   1.00
H34    H     0.44955   0.27726   0.52420   0.00000  Uiso   1.00
H35    H     0.17649   0.99641   0.63889   0.00000  Uiso   1.00
H36    H     0.73835   0.03721   0.76715   0.00000  Uiso   1.00
H37    H     0.43817   0.42800   0.49193   0.00000  Uiso   1.00
O38    O     0.07085   0.97581   0.82057   0.00000  Uiso   1.00
O39    O     0.80799   0.02935   0.98885   0.00000  Uiso   1.00
O40    O     0.41416   0.54206   0.62776   0.00000  Uiso   1.00
N41    N     0.16355   0.05056   0.91491   0.00000  Uiso   1.00
N42    N     0.68885   0.08870   0.03484   0.00000  Uiso   1.00
N43    N     0.40823   0.45406   0.77753   0.00000  Uiso   1.00
N44    N     0.18510   0.01985   0.72149   0.00000  Uiso   1.00
N45    N     0.71040   0.05799   0.84142   0.00000  Uiso   1.00
N46    N     0.42977   0.42335   0.58411   0.00000  Uiso   1.00
C47    C     0.58173   0.79951   0.42610   0.00000  Uiso   1.00
C48    C     0.64667   0.84833   0.37574   0.00000  Uiso   1.00
C49    C     0.71327   0.87227   0.44115   0.00000  Uiso   1.00
C50    C     0.76568   0.91658   0.37856   0.00000  Uiso   1.00
C51    C     0.86859   0.98943   0.31919   0.00000  Uiso   1.00
C52    C     0.50190   0.83783   0.40880   0.00000  Uiso   1.00
C53    C     0.44677   0.85294   0.50200   0.00000  Uiso   1.00
C54    C     0.37731   0.88840   0.46723   0.00000  Uiso   1.00
C55    C     0.25543   0.94490   0.45916   0.00000  Uiso   1.00
C56    C     0.57925   0.73714   0.33789   0.00000  Uiso   1.00
C57    C     0.58914   0.66758   0.37146   0.00000  Uiso   1.00
C58    C     0.58479   0.61827   0.27699   0.00000  Uiso   1.00
C59    C     0.58301   0.51843   0.15881   0.00000  Uiso   1.00
C60    C     0.55639   0.83563   0.19864   0.00000  Uiso   1.00
C61    C     0.63290   0.86795   0.25219   0.00000  Uiso   1.00
C62    C     0.68523   0.91223   0.18949   0.00000  Uiso   1.00
C63    C     0.75190   0.93624   0.25479   0.00000  Uiso   1.00
C64    C     0.48813   0.85745   0.28526   0.00000  Uiso   1.00
C65    C     0.41873   0.89290   0.25034   0.00000  Uiso   1.00
C66    C     0.36352   0.90806   0.34346   0.00000  Uiso   1.00
C67    C     0.56549   0.75676   0.21433   0.00000  Uiso   1.00
C68    C     0.56111   0.70754   0.11980   0.00000  Uiso   1.00
C69    C     0.57100   0.63792   0.15322   0.00000  Uiso   1.00
H70    H     0.59245   0.78424   0.52229   0.00000  Uiso   1.00
H71    H     0.72390   0.85708   0.53676   0.00000  Uiso   1.00
H72    H     0.45744   0.83774   0.59760   0.00000  Uiso   1.00
H73    H     0.59980   0.65242   0.46708   0.00000  Uiso   1.00
H74    H     0.86355   0.94651   0.49834   0.00000  Uiso   1.00
H75    H     0.30170   0.90571   0.62661   0.00000  Uiso   1.00
H76    H     0.60188   0.51492   0.35138   0.00000  Uiso   1.00
H77    H     0.54567   0.85091   0.10245   0.00000  Uiso   1.00
H78    H     0.67456   0.92741   0.09388   0.00000  Uiso   1.00
H79    H     0.40810   0.90807   0.15472   0.00000  Uiso   1.00
H80    H     0.55045   0.72274   0.02420   0.00000  Uiso   1.00
H81    H     0.82351   0.00359   0.13889   0.00000  Uiso   1.00
H82    H     0.26165   0.96279   0.26715   0.00000  Uiso   1.00
H83    H     0.56183   0.57200   0.99193   0.00000  Uiso   1.00
O84    O     0.92915   0.02419   0.32057   0.00000  Uiso   1.00
O85    O     0.19201   0.97065   0.48885   0.00000  Uiso   1.00
O86    O     0.58584   0.45794   0.12776   0.00000  Uiso   1.00
N87    N     0.83645   0.94944   0.41491   0.00000  Uiso   1.00
N88    N     0.31115   0.91130   0.53484   0.00000  Uiso   1.00
N89    N     0.59177   0.54594   0.27753   0.00000  Uiso   1.00
N90    N     0.81490   0.98015   0.22149   0.00000  Uiso   1.00
N91    N     0.28960   0.94201   0.34142   0.00000  Uiso   1.00
N92    N     0.57023   0.57665   0.08411   0.00000  Uiso   1.00
C93    C     0.91827   0.29951   0.92610   0.00000  Uiso   1.00
C94    C     0.85333   0.34833   0.87574   0.00000  Uiso   1.00
C95    C     0.78673   0.37227   0.94115   0.00000  Uiso   1.00
C96    C     0.73432   0.41658   0.87856   0.00000  Uiso   1.00
C97    C     0.63141   0.48943   0.81919   0.00000  Uiso   1.00
C98    C     0.99810   0.33783   0.90880   0.00000  Uiso   1.00
C99    C     0.05323   0.35294   0.00200   0.00000  Uiso   1.00
C100   C     0.12269   0.38840   0.96723   0.00000  Uiso   1.00
C101   C     0.24457   0.44490   0.95916   0.00000  Uiso   1.00
C102   C     0.92075   0.23714   0.83789   0.00000  Uiso   1.00
C103   C     0.91086   0.16758   0.87146   0.00000  Uiso   1.00
C104   C     0.91521   0.11827   0.77699   0.00000  Uiso   1.00
C105   C     0.91699   0.01843   0.65881   0.00000  Uiso   1.00
C106   C     0.94361   0.33563   0.69864   0.00000  Uiso   1.00
C107   C     0.86710   0.36795   0.75219   0.00000  Uiso   1.00
C108   C     0.81477   0.41223   0.68949   0.00000  Uiso   1.00
C109   C     0.74810   0.43624   0.75479   0.00000  Uiso   1.00
C110   C     0.01187   0.35745   0.78526   0.00000  Uiso   1.00
C111   C     0.08127   0.39290   0.75034   0.00000  Uiso   1.00
C112   C     0.13648   0.40806   0.84346   0.00000  Uiso   1.00
C113   C     0.93451   0.25676   0.71433   0.00000  Uiso   1.00
C114   C     0.93889   0.20754   0.61980   0.00000  Uiso   1.00
C115   C     0.92900   0.13792   0.65322   0.00000  Uiso   1.00
H116   H     0.90755   0.28424   0.02229   0.00000  Uiso   1.00
H117   H     0.77610   0.35708   0.03676   0.00000  Uiso   1.00
H118   H     0.04256   0.33774   0.09760   0.00000  Uiso   1.00
H119   H     0.90020   0.15242   0.96708   0.00000  Uiso   1.00
H120   H     0.63645   0.44651   0.99834   0.00000  Uiso   1.00
H121   H     0.19830   0.40571   0.12661   0.00000  Uiso   1.00
H122   H     0.89812   0.01492   0.85138   0.00000  Uiso   1.00
H123   H     0.95433   0.35091   0.60245   0.00000  Uiso   1.00
H124   H     0.82544   0.42741   0.59388   0.00000  Uiso   1.00
H125   H     0.09190   0.40807   0.65472   0.00000  Uiso   1.00
H126   H     0.94955   0.22274   0.52420   0.00000  Uiso   1.00
H127   H     0.67649   0.50359   0.63889   0.00000  Uiso   1.00
H128   H     0.23835   0.46279   0.76715   0.00000  Uiso   1.00
H129   H     0.93817   0.07200   0.49193   0.00000  Uiso   1.00
O130   O     0.57085   0.52419   0.82057   0.00000  Uiso   1.00
O131   O     0.30799   0.47065   0.98885   0.00000  Uiso   1.00
O132   O     0.91416   0.95794   0.62776   0.00000  Uiso   1.00
N133   N     0.66355   0.44944   0.91491   0.00000  Uiso   1.00
N134   N     0.18885   0.41130   0.03484   0.00000  Uiso   1.00
N135   N     0.90823   0.04594   0.77753   0.00000  Uiso   1.00
N136   N     0.68510   0.48015   0.72149   0.00000  Uiso   1.00
N137   N     0.21040   0.44201   0.84142   0.00000  Uiso   1.00
N138   N     0.92977   0.07665   0.58411   0.00000  Uiso   1.00
C139   C     0.08173   0.70049   0.42610   0.00000  Uiso   1.00
C140   C     0.14667   0.65167   0.37574   0.00000  Uiso   1.00
C141   C     0.21327   0.62773   0.44115   0.00000  Uiso   1.00
C142   C     0.26568   0.58342   0.37856   0.00000  Uiso   1.00
C143   C     0.36859   0.51057   0.31919   0.00000  Uiso   1.00
C144   C     0.00190   0.66217   0.40880   0.00000  Uiso   1.00
C145   C     0.94677   0.64706   0.50200   0.00000  Uiso   1.00
C146   C     0.87731   0.61160   0.46723   0.00000  Uiso   1.00
C147   C     0.75543   0.55510   0.45916   0.00000  Uiso   1.00
C148   C     0.07925   0.76286   0.33789   0.00000  Uiso   1.00
C149   C     0.08914   0.83242   0.37146   0.00000  Uiso   1.00
C150   C     0.08479   0.88173   0.27699   0.00000  Uiso   1.00
C151   C     0.08301   0.98157   0.15881   0.00000  Uiso   1.00
C152   C     0.05639   0.66437   0.19864   0.00000  Uiso   1.00
C153   C     0.13290   0.63205   0.25219   0.00000  Uiso   1.00
C154   C     0.18523   0.58777   0.18949   0.00000  Uiso   1.00
C155   C     0.25190   0.56376   0.25479   0.00000  Uiso   1.00
C156   C     0.98813   0.64255   0.28526   0.00000  Uiso   1.00
C157   C     0.91873   0.60710   0.25034   0.00000  Uiso   1.00
C158   C     0.86352   0.59194   0.34346   0.00000  Uiso   1.00
C159   C     0.06549   0.74324   0.21433   0.00000  Uiso   1.00
C160   C     0.06111   0.79246   0.11980   0.00000  Uiso   1.00
C161   C     0.07100   0.86208   0.15322   0.00000  Uiso   1.00
H162   H     0.09245   0.71576   0.52229   0.00000  Uiso   1.00
H163   H     0.22390   0.64292   0.53676   0.00000  Uiso   1.00
H164   H     0.95744   0.66226   0.59760   0.00000  Uiso   1.00
H165   H     0.09980   0.84758   0.46708   0.00000  Uiso   1.00
H166   H     0.36355   0.55349   0.49834   0.00000  Uiso   1.00
H167   H     0.80170   0.59429   0.62661   0.00000  Uiso   1.00
H168   H     0.10188   0.98508   0.35138   0.00000  Uiso   1.00
H169   H     0.04567   0.64909   0.10245   0.00000  Uiso   1.00
H170   H     0.17456   0.57259   0.09388   0.00000  Uiso   1.00
H171   H     0.90810   0.59193   0.15472   0.00000  Uiso   1.00
H172   H     0.05045   0.77726   0.02420   0.00000  Uiso   1.00
H173   H     0.32351   0.49641   0.13889   0.00000  Uiso   1.00
H174   H     0.76165   0.53721   0.26715   0.00000  Uiso   1.00
H175   H     0.06183   0.92800   0.99193   0.00000  Uiso   1.00
O176   O     0.42915   0.47581   0.32057   0.00000  Uiso   1.00
O177   O     0.69201   0.52935   0.48885   0.00000  Uiso   1.00
O178   O     0.08584   0.04206   0.12776   0.00000  Uiso   1.00
N179   N     0.33645   0.55056   0.41491   0.00000  Uiso   1.00
N180   N     0.81115   0.58870   0.53484   0.00000  Uiso   1.00
N181   N     0.09177   0.95406   0.27753   0.00000  Uiso   1.00
N182   N     0.31490   0.51985   0.22149   0.00000  Uiso   1.00
N183   N     0.78960   0.55799   0.34142   0.00000  Uiso   1.00
N184   N     0.07023   0.92335   0.08411   0.00000  Uiso   1.00
