data_job_01735
_audit_creation_date              2018-12-19
_audit_creation_method            'Materials Studio'
_symmetry_space_group_name_H-M    'P1'
_symmetry_Int_Tables_number       1
_symmetry_cell_setting            triclinic
loop_
_symmetry_equiv_pos_as_xyz
  x,y,z
_cell_length_a                    45.5807
_cell_length_b                    7.2440
_cell_length_c                    22.1330
_cell_angle_alpha                 90.0000
_cell_angle_beta                  90.0000
_cell_angle_gamma                 90.0000
loop_
_atom_site_label
_atom_site_type_symbol
_atom_site_fract_x
_atom_site_fract_y
_atom_site_fract_z
_atom_site_U_iso_or_equiv
_atom_site_adp_type
_atom_site_occupancy
C1     C     0.89341   0.82221   0.53215   0.00000  Uiso   1.00
C2     C     0.91493   0.90369   0.57766   0.00000  Uiso   1.00
C3     C     0.93304   0.80361   0.61597   0.00000  Uiso   1.00
C4     C     0.95116   0.90381   0.65429   0.00000  Uiso   1.00
C5     C     0.98457   0.00091   0.72498   0.00000  Uiso   1.00
C6     C     0.86349   0.90348   0.54777   0.00000  Uiso   1.00
C7     C     0.83835   0.80320   0.56094   0.00000  Uiso   1.00
C8     C     0.81316   0.90323   0.57408   0.00000  Uiso   1.00
C9     C     0.76671  -0.00000   0.59832   0.00000  Uiso   1.00
C10    C     0.90178   0.90338   0.47097   0.00000  Uiso   1.00
C11    C     0.90882   0.80304   0.41956   0.00000  Uiso   1.00
C12    C     0.91586   0.90300   0.36803   0.00000  Uiso   1.00
C13    C     0.92886   0.99962   0.27303   0.00000  Uiso   1.00
C14    C     0.89338   0.17814   0.53206   0.00000  Uiso   1.00
C15    C     0.91492   0.09702   0.57761   0.00000  Uiso   1.00
C16    C     0.93301   0.19740   0.61587   0.00000  Uiso   1.00
C17    C     0.95114   0.09748   0.65423   0.00000  Uiso   1.00
C18    C     0.86348   0.09679   0.54772   0.00000  Uiso   1.00
C19    C     0.83832   0.19699   0.56083   0.00000  Uiso   1.00
C20    C     0.81315   0.09690   0.57403   0.00000  Uiso   1.00
C21    C     0.90177   0.09671   0.47091   0.00000  Uiso   1.00
C22    C     0.90880   0.19683   0.41945   0.00000  Uiso   1.00
C23    C     0.91585   0.09667   0.36798   0.00000  Uiso   1.00
H24    H     0.89342   0.67171   0.53219   0.00000  Uiso   1.00
H25    H     0.93304   0.65400   0.61601   0.00000  Uiso   1.00
H26    H     0.83837   0.65360   0.56097   0.00000  Uiso   1.00
H27    H     0.90883   0.65344   0.41962   0.00000  Uiso   1.00
H28    H     0.97696   0.71962   0.70892   0.00000  Uiso   1.00
H29    H     0.77733   0.71878   0.59286   0.00000  Uiso   1.00
H30    H     0.92591   0.71844   0.29478   0.00000  Uiso   1.00
H31    H     0.89337   0.32865   0.53201   0.00000  Uiso   1.00
H32    H     0.93300   0.34700   0.61582   0.00000  Uiso   1.00
H33    H     0.83832   0.34659   0.56079   0.00000  Uiso   1.00
H34    H     0.90878   0.34644   0.41943   0.00000  Uiso   1.00
H35    H     0.97692   0.28209   0.70877   0.00000  Uiso   1.00
H36    H     0.77728   0.28124   0.59270   0.00000  Uiso   1.00
H37    H     0.92587   0.28091   0.29463   0.00000  Uiso   1.00
O38    O     0.00300   0.00107   0.76399   0.00000  Uiso   1.00
O39    O     0.74109   0.99996   0.61171   0.00000  Uiso   1.00
O40    O     0.93603   0.99952   0.22064   0.00000  Uiso   1.00
N41    N     0.97152   0.84948   0.69737   0.00000  Uiso   1.00
N42    N     0.78487   0.84869   0.58887   0.00000  Uiso   1.00
N43    N     0.92378   0.84838   0.31019   0.00000  Uiso   1.00
N44    N     0.97150   0.15214   0.69729   0.00000  Uiso   1.00
N45    N     0.78485   0.15135   0.58879   0.00000  Uiso   1.00
N46    N     0.92376   0.15104   0.31011   0.00000  Uiso   1.00
C47    C     0.60659   0.67779   0.53215   0.00000  Uiso   1.00
C48    C     0.58507   0.59631   0.57766   0.00000  Uiso   1.00
C49    C     0.56696   0.69639   0.61597   0.00000  Uiso   1.00
C50    C     0.54884   0.59619   0.65429   0.00000  Uiso   1.00
C51    C     0.51543   0.49909   0.72498   0.00000  Uiso   1.00
C52    C     0.63651   0.59652   0.54777   0.00000  Uiso   1.00
C53    C     0.66165   0.69680   0.56094   0.00000  Uiso   1.00
C54    C     0.68684   0.59677   0.57408   0.00000  Uiso   1.00
C55    C     0.73329   0.50000   0.59832   0.00000  Uiso   1.00
C56    C     0.59822   0.59662   0.47097   0.00000  Uiso   1.00
C57    C     0.59118   0.69696   0.41956   0.00000  Uiso   1.00
C58    C     0.58414   0.59700   0.36803   0.00000  Uiso   1.00
C59    C     0.57114   0.50038   0.27303   0.00000  Uiso   1.00
C60    C     0.60662   0.32186   0.53206   0.00000  Uiso   1.00
C61    C     0.58508   0.40298   0.57761   0.00000  Uiso   1.00
C62    C     0.56699   0.30260   0.61587   0.00000  Uiso   1.00
C63    C     0.54886   0.40252   0.65423   0.00000  Uiso   1.00
C64    C     0.63652   0.40321   0.54772   0.00000  Uiso   1.00
C65    C     0.66168   0.30301   0.56083   0.00000  Uiso   1.00
C66    C     0.68685   0.40310   0.57403   0.00000  Uiso   1.00
C67    C     0.59823   0.40329   0.47091   0.00000  Uiso   1.00
C68    C     0.59120   0.30317   0.41945   0.00000  Uiso   1.00
C69    C     0.58415   0.40333   0.36798   0.00000  Uiso   1.00
H70    H     0.60658   0.82829   0.53219   0.00000  Uiso   1.00
H71    H     0.56696   0.84600   0.61601   0.00000  Uiso   1.00
H72    H     0.66163   0.84640   0.56097   0.00000  Uiso   1.00
H73    H     0.59117   0.84656   0.41962   0.00000  Uiso   1.00
H74    H     0.52304   0.78038   0.70892   0.00000  Uiso   1.00
H75    H     0.72267   0.78122   0.59286   0.00000  Uiso   1.00
H76    H     0.57409   0.78156   0.29478   0.00000  Uiso   1.00
H77    H     0.60663   0.17135   0.53201   0.00000  Uiso   1.00
H78    H     0.56700   0.15300   0.61582   0.00000  Uiso   1.00
H79    H     0.66168   0.15341   0.56079   0.00000  Uiso   1.00
H80    H     0.59122   0.15356   0.41943   0.00000  Uiso   1.00
H81    H     0.52308   0.21791   0.70877   0.00000  Uiso   1.00
H82    H     0.72272   0.21876   0.59270   0.00000  Uiso   1.00
H83    H     0.57413   0.21909   0.29463   0.00000  Uiso   1.00
O84    O     0.49700   0.49893   0.76399   0.00000  Uiso   1.00
O85    O     0.75891   0.50004   0.61171   0.00000  Uiso   1.00
O86    O     0.56397   0.50048   0.22064   0.00000  Uiso   1.00
N87    N     0.52848   0.65052   0.69737   0.00000  Uiso   1.00
N88    N     0.71513   0.65131   0.58887   0.00000  Uiso   1.00
N89    N     0.57622   0.65162   0.31019   0.00000  Uiso   1.00
N90    N     0.52850   0.34786   0.69729   0.00000  Uiso   1.00
N91    N     0.71515   0.34865   0.58879   0.00000  Uiso   1.00
N92    N     0.57624   0.34896   0.31011   0.00000  Uiso   1.00
C93    C     0.10659   0.32221   0.96785   0.00000  Uiso   1.00
C94    C     0.08507   0.40369   0.92234   0.00000  Uiso   1.00
C95    C     0.06696   0.30361   0.88403   0.00000  Uiso   1.00
C96    C     0.04884   0.40381   0.84571   0.00000  Uiso   1.00
C97    C     0.01543   0.50091   0.77502   0.00000  Uiso   1.00
C98    C     0.13651   0.40348   0.95223   0.00000  Uiso   1.00
C99    C     0.16165   0.30320   0.93906   0.00000  Uiso   1.00
C100   C     0.18684   0.40323   0.92592   0.00000  Uiso   1.00
C101   C     0.23329   0.50000   0.90168   0.00000  Uiso   1.00
C102   C     0.09822   0.40338   0.02903   0.00000  Uiso   1.00
C103   C     0.09118   0.30304   0.08044   0.00000  Uiso   1.00
C104   C     0.08414   0.40300   0.13197   0.00000  Uiso   1.00
C105   C     0.07114   0.49962   0.22697   0.00000  Uiso   1.00
C106   C     0.10662   0.67814   0.96794   0.00000  Uiso   1.00
C107   C     0.08508   0.59702   0.92239   0.00000  Uiso   1.00
C108   C     0.06699   0.69740   0.88413   0.00000  Uiso   1.00
C109   C     0.04886   0.59748   0.84577   0.00000  Uiso   1.00
C110   C     0.13652   0.59679   0.95228   0.00000  Uiso   1.00
C111   C     0.16168   0.69699   0.93917   0.00000  Uiso   1.00
C112   C     0.18685   0.59690   0.92597   0.00000  Uiso   1.00
C113   C     0.09823   0.59671   0.02909   0.00000  Uiso   1.00
C114   C     0.09120   0.69683   0.08055   0.00000  Uiso   1.00
C115   C     0.08415   0.59667   0.13202   0.00000  Uiso   1.00
H116   H     0.10658   0.17171   0.96781   0.00000  Uiso   1.00
H117   H     0.06696   0.15400   0.88399   0.00000  Uiso   1.00
H118   H     0.16163   0.15360   0.93903   0.00000  Uiso   1.00
H119   H     0.09117   0.15344   0.08038   0.00000  Uiso   1.00
H120   H     0.02304   0.21962   0.79108   0.00000  Uiso   1.00
H121   H     0.22267   0.21878   0.90714   0.00000  Uiso   1.00
H122   H     0.07409   0.21844   0.20522   0.00000  Uiso   1.00
H123   H     0.10663   0.82865   0.96799   0.00000  Uiso   1.00
H124   H     0.06700   0.84700   0.88418   0.00000  Uiso   1.00
H125   H     0.16168   0.84659   0.93921   0.00000  Uiso   1.00
H126   H     0.09122   0.84644   0.08057   0.00000  Uiso   1.00
H127   H     0.02308   0.78209   0.79123   0.00000  Uiso   1.00
H128   H     0.22272   0.78124   0.90730   0.00000  Uiso   1.00
H129   H     0.07413   0.78091   0.20537   0.00000  Uiso   1.00
O130   O     0.99700   0.50107   0.73601   0.00000  Uiso   1.00
O131   O     0.25891   0.49996   0.88829   0.00000  Uiso   1.00
O132   O     0.06397   0.49952   0.27936   0.00000  Uiso   1.00
N133   N     0.02848   0.34948   0.80263   0.00000  Uiso   1.00
N134   N     0.21513   0.34869   0.91113   0.00000  Uiso   1.00
N135   N     0.07622   0.34838   0.18981   0.00000  Uiso   1.00
N136   N     0.02850   0.65214   0.80271   0.00000  Uiso   1.00
N137   N     0.21515   0.65135   0.91121   0.00000  Uiso   1.00
N138   N     0.07624   0.65104   0.18989   0.00000  Uiso   1.00
C139   C     0.39341   0.17779   0.96785   0.00000  Uiso   1.00
C140   C     0.41493   0.09631   0.92234   0.00000  Uiso   1.00
C141   C     0.43304   0.19639   0.88403   0.00000  Uiso   1.00
C142   C     0.45116   0.09619   0.84571   0.00000  Uiso   1.00
C143   C     0.48457   0.99909   0.77502   0.00000  Uiso   1.00
C144   C     0.36349   0.09652   0.95223   0.00000  Uiso   1.00
C145   C     0.33835   0.19680   0.93906   0.00000  Uiso   1.00
C146   C     0.31316   0.09677   0.92592   0.00000  Uiso   1.00
C147   C     0.26671   0.00000   0.90168   0.00000  Uiso   1.00
C148   C     0.40178   0.09662   0.02903   0.00000  Uiso   1.00
C149   C     0.40882   0.19696   0.08044   0.00000  Uiso   1.00
C150   C     0.41586   0.09700   0.13197   0.00000  Uiso   1.00
C151   C     0.42886   0.00038   0.22697   0.00000  Uiso   1.00
C152   C     0.39338   0.82186   0.96794   0.00000  Uiso   1.00
C153   C     0.41492   0.90298   0.92239   0.00000  Uiso   1.00
C154   C     0.43301   0.80260   0.88413   0.00000  Uiso   1.00
C155   C     0.45114   0.90252   0.84577   0.00000  Uiso   1.00
C156   C     0.36348   0.90321   0.95228   0.00000  Uiso   1.00
C157   C     0.33832   0.80301   0.93917   0.00000  Uiso   1.00
C158   C     0.31315   0.90310   0.92597   0.00000  Uiso   1.00
C159   C     0.40177   0.90329   0.02909   0.00000  Uiso   1.00
C160   C     0.40880   0.80317   0.08055   0.00000  Uiso   1.00
C161   C     0.41585   0.90333   0.13202   0.00000  Uiso   1.00
H162   H     0.39342   0.32829   0.96781   0.00000  Uiso   1.00
H163   H     0.43304   0.34600   0.88399   0.00000  Uiso   1.00
H164   H     0.33837   0.34640   0.93903   0.00000  Uiso   1.00
H165   H     0.40883   0.34656   0.08038   0.00000  Uiso   1.00
H166   H     0.47696   0.28038   0.79108   0.00000  Uiso   1.00
H167   H     0.27733   0.28122   0.90714   0.00000  Uiso   1.00
H168   H     0.42591   0.28156   0.20522   0.00000  Uiso   1.00
H169   H     0.39337   0.67135   0.96799   0.00000  Uiso   1.00
H170   H     0.43300   0.65300   0.88418   0.00000  Uiso   1.00
H171   H     0.33832   0.65341   0.93921   0.00000  Uiso   1.00
H172   H     0.40878   0.65356   0.08057   0.00000  Uiso   1.00
H173   H     0.47692   0.71791   0.79123   0.00000  Uiso   1.00
H174   H     0.27728   0.71876   0.90730   0.00000  Uiso   1.00
H175   H     0.42587   0.71909   0.20537   0.00000  Uiso   1.00
O176   O     0.50300   0.99893   0.73601   0.00000  Uiso   1.00
O177   O     0.24109   0.00004   0.88829   0.00000  Uiso   1.00
O178   O     0.43603   0.00048   0.27936   0.00000  Uiso   1.00
N179   N     0.47152   0.15052   0.80263   0.00000  Uiso   1.00
N180   N     0.28487   0.15131   0.91113   0.00000  Uiso   1.00
N181   N     0.42378   0.15162   0.18981   0.00000  Uiso   1.00
N182   N     0.47150   0.84786   0.80271   0.00000  Uiso   1.00
N183   N     0.28485   0.84865   0.91121   0.00000  Uiso   1.00
N184   N     0.42376   0.84896   0.18989   0.00000  Uiso   1.00
C185   C     0.10659   0.17779   0.46785   0.00000  Uiso   1.00
C186   C     0.08507   0.09631   0.42234   0.00000  Uiso   1.00
C187   C     0.06696   0.19639   0.38403   0.00000  Uiso   1.00
C188   C     0.04884   0.09619   0.34571   0.00000  Uiso   1.00
C189   C     0.01543   0.99909   0.27502   0.00000  Uiso   1.00
C190   C     0.13651   0.09652   0.45223   0.00000  Uiso   1.00
C191   C     0.16165   0.19680   0.43906   0.00000  Uiso   1.00
C192   C     0.18684   0.09677   0.42592   0.00000  Uiso   1.00
C193   C     0.23329   0.00000   0.40168   0.00000  Uiso   1.00
C194   C     0.09822   0.09662   0.52903   0.00000  Uiso   1.00
C195   C     0.09118   0.19696   0.58044   0.00000  Uiso   1.00
C196   C     0.08414   0.09700   0.63197   0.00000  Uiso   1.00
C197   C     0.07114   0.00038   0.72697   0.00000  Uiso   1.00
C198   C     0.10662   0.82186   0.46794   0.00000  Uiso   1.00
C199   C     0.08508   0.90298   0.42239   0.00000  Uiso   1.00
C200   C     0.06699   0.80260   0.38413   0.00000  Uiso   1.00
C201   C     0.04886   0.90252   0.34577   0.00000  Uiso   1.00
C202   C     0.13652   0.90321   0.45228   0.00000  Uiso   1.00
C203   C     0.16168   0.80301   0.43917   0.00000  Uiso   1.00
C204   C     0.18685   0.90310   0.42597   0.00000  Uiso   1.00
C205   C     0.09823   0.90329   0.52909   0.00000  Uiso   1.00
C206   C     0.09120   0.80317   0.58055   0.00000  Uiso   1.00
C207   C     0.08415   0.90333   0.63202   0.00000  Uiso   1.00
H208   H     0.10658   0.32829   0.46781   0.00000  Uiso   1.00
H209   H     0.06696   0.34600   0.38399   0.00000  Uiso   1.00
H210   H     0.16163   0.34640   0.43903   0.00000  Uiso   1.00
H211   H     0.09117   0.34656   0.58038   0.00000  Uiso   1.00
H212   H     0.02304   0.28038   0.29108   0.00000  Uiso   1.00
H213   H     0.22267   0.28122   0.40714   0.00000  Uiso   1.00
H214   H     0.07409   0.28156   0.70522   0.00000  Uiso   1.00
H215   H     0.10663   0.67135   0.46799   0.00000  Uiso   1.00
H216   H     0.06700   0.65300   0.38418   0.00000  Uiso   1.00
H217   H     0.16168   0.65341   0.43921   0.00000  Uiso   1.00
H218   H     0.09122   0.65356   0.58057   0.00000  Uiso   1.00
H219   H     0.02308   0.71791   0.29123   0.00000  Uiso   1.00
H220   H     0.22272   0.71876   0.40730   0.00000  Uiso   1.00
H221   H     0.07413   0.71909   0.70537   0.00000  Uiso   1.00
O222   O     0.99700   0.99893   0.23601   0.00000  Uiso   1.00
O223   O     0.25891   0.00004   0.38829   0.00000  Uiso   1.00
O224   O     0.06397   0.00048   0.77936   0.00000  Uiso   1.00
N225   N     0.02848   0.15052   0.30263   0.00000  Uiso   1.00
N226   N     0.21513   0.15131   0.41113   0.00000  Uiso   1.00
N227   N     0.07622   0.15162   0.68981   0.00000  Uiso   1.00
N228   N     0.02850   0.84786   0.30271   0.00000  Uiso   1.00
N229   N     0.21515   0.84865   0.41121   0.00000  Uiso   1.00
N230   N     0.07624   0.84896   0.68989   0.00000  Uiso   1.00
C231   C     0.39341   0.32221   0.46785   0.00000  Uiso   1.00
C232   C     0.41493   0.40369   0.42234   0.00000  Uiso   1.00
C233   C     0.43304   0.30361   0.38403   0.00000  Uiso   1.00
C234   C     0.45116   0.40381   0.34571   0.00000  Uiso   1.00
C235   C     0.48457   0.50091   0.27502   0.00000  Uiso   1.00
C236   C     0.36349   0.40348   0.45223   0.00000  Uiso   1.00
C237   C     0.33835   0.30320   0.43906   0.00000  Uiso   1.00
C238   C     0.31316   0.40323   0.42592   0.00000  Uiso   1.00
C239   C     0.26671   0.50000   0.40168   0.00000  Uiso   1.00
C240   C     0.40178   0.40338   0.52903   0.00000  Uiso   1.00
C241   C     0.40882   0.30304   0.58044   0.00000  Uiso   1.00
C242   C     0.41586   0.40300   0.63197   0.00000  Uiso   1.00
C243   C     0.42886   0.49962   0.72697   0.00000  Uiso   1.00
C244   C     0.39338   0.67814   0.46794   0.00000  Uiso   1.00
C245   C     0.41492   0.59702   0.42239   0.00000  Uiso   1.00
C246   C     0.43301   0.69740   0.38413   0.00000  Uiso   1.00
C247   C     0.45114   0.59748   0.34577   0.00000  Uiso   1.00
C248   C     0.36348   0.59679   0.45228   0.00000  Uiso   1.00
C249   C     0.33832   0.69699   0.43917   0.00000  Uiso   1.00
C250   C     0.31315   0.59690   0.42597   0.00000  Uiso   1.00
C251   C     0.40177   0.59671   0.52909   0.00000  Uiso   1.00
C252   C     0.40880   0.69683   0.58055   0.00000  Uiso   1.00
C253   C     0.41585   0.59667   0.63202   0.00000  Uiso   1.00
H254   H     0.39342   0.17171   0.46781   0.00000  Uiso   1.00
H255   H     0.43304   0.15400   0.38399   0.00000  Uiso   1.00
H256   H     0.33837   0.15360   0.43903   0.00000  Uiso   1.00
H257   H     0.40883   0.15344   0.58038   0.00000  Uiso   1.00
H258   H     0.47696   0.21962   0.29108   0.00000  Uiso   1.00
H259   H     0.27733   0.21878   0.40714   0.00000  Uiso   1.00
H260   H     0.42591   0.21844   0.70522   0.00000  Uiso   1.00
H261   H     0.39337   0.82865   0.46799   0.00000  Uiso   1.00
H262   H     0.43300   0.84700   0.38418   0.00000  Uiso   1.00
H263   H     0.33832   0.84659   0.43921   0.00000  Uiso   1.00
H264   H     0.40878   0.84644   0.58057   0.00000  Uiso   1.00
H265   H     0.47692   0.78209   0.29123   0.00000  Uiso   1.00
H266   H     0.27728   0.78124   0.40730   0.00000  Uiso   1.00
H267   H     0.42587   0.78091   0.70537   0.00000  Uiso   1.00
O268   O     0.50300   0.50107   0.23601   0.00000  Uiso   1.00
O269   O     0.24109   0.49996   0.38829   0.00000  Uiso   1.00
O270   O     0.43603   0.49952   0.77936   0.00000  Uiso   1.00
N271   N     0.47152   0.34948   0.30263   0.00000  Uiso   1.00
N272   N     0.28487   0.34869   0.41113   0.00000  Uiso   1.00
N273   N     0.42378   0.34838   0.68981   0.00000  Uiso   1.00
N274   N     0.47150   0.65214   0.30271   0.00000  Uiso   1.00
N275   N     0.28485   0.65135   0.41121   0.00000  Uiso   1.00
N276   N     0.42376   0.65104   0.68989   0.00000  Uiso   1.00
C277   C     0.89341   0.67779   0.03215   0.00000  Uiso   1.00
C278   C     0.91493   0.59631   0.07766   0.00000  Uiso   1.00
C279   C     0.93304   0.69639   0.11597   0.00000  Uiso   1.00
C280   C     0.95116   0.59619   0.15429   0.00000  Uiso   1.00
C281   C     0.98457   0.49909   0.22498   0.00000  Uiso   1.00
C282   C     0.86349   0.59652   0.04777   0.00000  Uiso   1.00
C283   C     0.83835   0.69680   0.06094   0.00000  Uiso   1.00
C284   C     0.81316   0.59677   0.07408   0.00000  Uiso   1.00
C285   C     0.76671   0.50000   0.09832   0.00000  Uiso   1.00
C286   C     0.90178   0.59662   0.97097   0.00000  Uiso   1.00
C287   C     0.90882   0.69696   0.91956   0.00000  Uiso   1.00
C288   C     0.91586   0.59700   0.86803   0.00000  Uiso   1.00
C289   C     0.92886   0.50038   0.77303   0.00000  Uiso   1.00
C290   C     0.89338   0.32186   0.03206   0.00000  Uiso   1.00
C291   C     0.91492   0.40298   0.07761   0.00000  Uiso   1.00
C292   C     0.93301   0.30260   0.11587   0.00000  Uiso   1.00
C293   C     0.95114   0.40252   0.15423   0.00000  Uiso   1.00
C294   C     0.86348   0.40321   0.04772   0.00000  Uiso   1.00
C295   C     0.83832   0.30301   0.06083   0.00000  Uiso   1.00
C296   C     0.81315   0.40310   0.07403   0.00000  Uiso   1.00
C297   C     0.90177   0.40329   0.97091   0.00000  Uiso   1.00
C298   C     0.90880   0.30317   0.91945   0.00000  Uiso   1.00
C299   C     0.91585   0.40333   0.86798   0.00000  Uiso   1.00
H300   H     0.89342   0.82829   0.03219   0.00000  Uiso   1.00
H301   H     0.93304   0.84600   0.11601   0.00000  Uiso   1.00
H302   H     0.83837   0.84640   0.06097   0.00000  Uiso   1.00
H303   H     0.90883   0.84656   0.91962   0.00000  Uiso   1.00
H304   H     0.97696   0.78038   0.20892   0.00000  Uiso   1.00
H305   H     0.77733   0.78122   0.09286   0.00000  Uiso   1.00
H306   H     0.92591   0.78156   0.79478   0.00000  Uiso   1.00
H307   H     0.89337   0.17135   0.03201   0.00000  Uiso   1.00
H308   H     0.93300   0.15300   0.11582   0.00000  Uiso   1.00
H309   H     0.83832   0.15341   0.06079   0.00000  Uiso   1.00
H310   H     0.90878   0.15356   0.91943   0.00000  Uiso   1.00
H311   H     0.97692   0.21791   0.20877   0.00000  Uiso   1.00
H312   H     0.77728   0.21876   0.09270   0.00000  Uiso   1.00
H313   H     0.92587   0.21909   0.79463   0.00000  Uiso   1.00
O314   O     0.00300   0.49893   0.26399   0.00000  Uiso   1.00
O315   O     0.74109   0.50004   0.11171   0.00000  Uiso   1.00
O316   O     0.93603   0.50048   0.72064   0.00000  Uiso   1.00
N317   N     0.97152   0.65052   0.19737   0.00000  Uiso   1.00
N318   N     0.78487   0.65131   0.08887   0.00000  Uiso   1.00
N319   N     0.92378   0.65162   0.81019   0.00000  Uiso   1.00
N320   N     0.97150   0.34786   0.19729   0.00000  Uiso   1.00
N321   N     0.78485   0.34865   0.08879   0.00000  Uiso   1.00
N322   N     0.92376   0.34896   0.81011   0.00000  Uiso   1.00
C323   C     0.60659   0.82221   0.03215   0.00000  Uiso   1.00
C324   C     0.58507   0.90369   0.07766   0.00000  Uiso   1.00
C325   C     0.56696   0.80361   0.11597   0.00000  Uiso   1.00
C326   C     0.54884   0.90381   0.15429   0.00000  Uiso   1.00
C327   C     0.51543   0.00091   0.22498   0.00000  Uiso   1.00
C328   C     0.63651   0.90348   0.04777   0.00000  Uiso   1.00
C329   C     0.66165   0.80320   0.06094   0.00000  Uiso   1.00
C330   C     0.68684   0.90323   0.07408   0.00000  Uiso   1.00
C331   C     0.73329  -0.00000   0.09832   0.00000  Uiso   1.00
C332   C     0.59822   0.90338   0.97097   0.00000  Uiso   1.00
C333   C     0.59118   0.80304   0.91956   0.00000  Uiso   1.00
C334   C     0.58414   0.90300   0.86803   0.00000  Uiso   1.00
C335   C     0.57114   0.99962   0.77303   0.00000  Uiso   1.00
C336   C     0.60662   0.17814   0.03206   0.00000  Uiso   1.00
C337   C     0.58508   0.09702   0.07761   0.00000  Uiso   1.00
C338   C     0.56699   0.19740   0.11587   0.00000  Uiso   1.00
C339   C     0.54886   0.09748   0.15423   0.00000  Uiso   1.00
C340   C     0.63652   0.09679   0.04772   0.00000  Uiso   1.00
C341   C     0.66168   0.19699   0.06083   0.00000  Uiso   1.00
C342   C     0.68685   0.09690   0.07403   0.00000  Uiso   1.00
C343   C     0.59823   0.09671   0.97091   0.00000  Uiso   1.00
C344   C     0.59120   0.19683   0.91945   0.00000  Uiso   1.00
C345   C     0.58415   0.09667   0.86798   0.00000  Uiso   1.00
H346   H     0.60658   0.67171   0.03219   0.00000  Uiso   1.00
H347   H     0.56696   0.65400   0.11601   0.00000  Uiso   1.00
H348   H     0.66163   0.65360   0.06097   0.00000  Uiso   1.00
H349   H     0.59117   0.65344   0.91962   0.00000  Uiso   1.00
H350   H     0.52304   0.71962   0.20892   0.00000  Uiso   1.00
H351   H     0.72267   0.71878   0.09286   0.00000  Uiso   1.00
H352   H     0.57409   0.71844   0.79478   0.00000  Uiso   1.00
H353   H     0.60663   0.32865   0.03201   0.00000  Uiso   1.00
H354   H     0.56700   0.34700   0.11582   0.00000  Uiso   1.00
H355   H     0.66168   0.34659   0.06079   0.00000  Uiso   1.00
H356   H     0.59122   0.34644   0.91943   0.00000  Uiso   1.00
H357   H     0.52308   0.28209   0.20877   0.00000  Uiso   1.00
H358   H     0.72272   0.28124   0.09270   0.00000  Uiso   1.00
H359   H     0.57413   0.28091   0.79463   0.00000  Uiso   1.00
O360   O     0.49700   0.00107   0.26399   0.00000  Uiso   1.00
O361   O     0.75891   0.99996   0.11171   0.00000  Uiso   1.00
O362   O     0.56397   0.99952   0.72064   0.00000  Uiso   1.00
N363   N     0.52848   0.84948   0.19737   0.00000  Uiso   1.00
N364   N     0.71513   0.84869   0.08887   0.00000  Uiso   1.00
N365   N     0.57622   0.84838   0.81019   0.00000  Uiso   1.00
N366   N     0.52850   0.15214   0.19729   0.00000  Uiso   1.00
N367   N     0.71515   0.15135   0.08879   0.00000  Uiso   1.00
N368   N     0.57624   0.15104   0.81011   0.00000  Uiso   1.00
