data_job_05793
_audit_creation_date              2018-12-19
_audit_creation_method            'Materials Studio'
_symmetry_space_group_name_H-M    'P1'
_symmetry_Int_Tables_number       1
_symmetry_cell_setting            triclinic
loop_
_symmetry_equiv_pos_as_xyz
  x,y,z
_cell_length_a                    36.2630
_cell_length_b                    7.5123
_cell_length_c                    30.6548
_cell_angle_alpha                 90.0000
_cell_angle_beta                  136.1544
_cell_angle_gamma                 90.0000
loop_
_atom_site_label
_atom_site_type_symbol
_atom_site_fract_x
_atom_site_fract_y
_atom_site_fract_z
_atom_site_U_iso_or_equiv
_atom_site_adp_type
_atom_site_occupancy
C1     C     0.89398   0.01311   0.54089   0.00000  Uiso   1.00
C2     C     0.86109   0.88037   0.48656   0.00000  Uiso   1.00
C3     C     0.83731   0.91327   0.42621   0.00000  Uiso   1.00
C4     C     0.80889   0.77444   0.38322   0.00000  Uiso   1.00
C5     C     0.75848   0.59356   0.29629   0.00000  Uiso   1.00
C6     C     0.86742   0.02532   0.56286   0.00000  Uiso   1.00
C7     C     0.84897   0.18010   0.56668   0.00000  Uiso   1.00
C8     C     0.82589   0.16329   0.58793   0.00000  Uiso   1.00
C9     C     0.78534   0.20747   0.61951   0.00000  Uiso   1.00
C10    C     0.94780   0.92459   0.59445   0.00000  Uiso   1.00
C11    C     0.99694   0.99469   0.62485   0.00000  Uiso   1.00
C12    C     0.04153   0.89307   0.67271   0.00000  Uiso   1.00
C13    C     0.12579   0.78085   0.75334   0.00000  Uiso   1.00
C14    C     0.88578   0.70804   0.57185   0.00000  Uiso   1.00
C15    C     0.85664   0.71467   0.50337   0.00000  Uiso   1.00
C16    C     0.82825   0.57575   0.46046   0.00000  Uiso   1.00
C17    C     0.80444   0.60844   0.40007   0.00000  Uiso   1.00
C18    C     0.86297   0.85963   0.57968   0.00000  Uiso   1.00
C19    C     0.83991   0.84258   0.60093   0.00000  Uiso   1.00
C20    C     0.82143   0.99729   0.60478   0.00000  Uiso   1.00
C21    C     0.94335   0.75888   0.61127   0.00000  Uiso   1.00
C22    C     0.98787   0.65715   0.65909   0.00000  Uiso   1.00
C23    C     0.03707   0.72708   0.68955   0.00000  Uiso   1.00
H24    H     0.89744   0.14212   0.52780   0.00000  Uiso   1.00
H25    H     0.84076   0.04153   0.41322   0.00000  Uiso   1.00
H26    H     0.85243   0.30831   0.55367   0.00000  Uiso   1.00
H27    H     0.00037   0.12292   0.61182   0.00000  Uiso   1.00
H28    H     0.77595   0.85695   0.29359   0.00000  Uiso   1.00
H29    H     0.80055   0.41950   0.58977   0.00000  Uiso   1.00
H30    H     0.11252   0.02855   0.71240   0.00000  Uiso   1.00
H31    H     0.88232   0.57903   0.58494   0.00000  Uiso   1.00
H32    H     0.82481   0.44754   0.47349   0.00000  Uiso   1.00
H33    H     0.83647   0.71433   0.61394   0.00000  Uiso   1.00
H34    H     0.98442   0.52893   0.67209   0.00000  Uiso   1.00
H35    H     0.76300   0.37485   0.34251   0.00000  Uiso   1.00
H36    H     0.78761   0.93740   0.63869   0.00000  Uiso   1.00
H37    H     0.09957   0.54645   0.76131   0.00000  Uiso   1.00
O38    O     0.73190   0.53958   0.24370   0.00000  Uiso   1.00
O39    O     0.76420   0.27762   0.63228   0.00000  Uiso   1.00
O40    O     0.17349   0.76471   0.79316   0.00000  Uiso   1.00
N41    N     0.78080   0.76152   0.32040   0.00000  Uiso   1.00
N42    N     0.80380   0.28747   0.59730   0.00000  Uiso   1.00
N43    N     0.09547   0.92199   0.71196   0.00000  Uiso   1.00
N44    N     0.77383   0.50211   0.34673   0.00000  Uiso   1.00
N45    N     0.79683   0.02805   0.62362   0.00000  Uiso   1.00
N46    N     0.08850   0.66257   0.73828   0.00000  Uiso   1.00
C47    C     0.39398   0.51311   0.54089   0.00000  Uiso   1.00
C48    C     0.36109   0.38037   0.48656   0.00000  Uiso   1.00
C49    C     0.33731   0.41327   0.42621   0.00000  Uiso   1.00
C50    C     0.30889   0.27444   0.38322   0.00000  Uiso   1.00
C51    C     0.25848   0.09356   0.29629   0.00000  Uiso   1.00
C52    C     0.36742   0.52532   0.56286   0.00000  Uiso   1.00
C53    C     0.34897   0.68010   0.56668   0.00000  Uiso   1.00
C54    C     0.32589   0.66329   0.58793   0.00000  Uiso   1.00
C55    C     0.28534   0.70747   0.61951   0.00000  Uiso   1.00
C56    C     0.44780   0.42459   0.59445   0.00000  Uiso   1.00
C57    C     0.49694   0.49469   0.62485   0.00000  Uiso   1.00
C58    C     0.54153   0.39307   0.67271   0.00000  Uiso   1.00
C59    C     0.62579   0.28085   0.75334   0.00000  Uiso   1.00
C60    C     0.38578   0.20804   0.57185   0.00000  Uiso   1.00
C61    C     0.35664   0.21467   0.50337   0.00000  Uiso   1.00
C62    C     0.32825   0.07575   0.46046   0.00000  Uiso   1.00
C63    C     0.30444   0.10844   0.40007   0.00000  Uiso   1.00
C64    C     0.36297   0.35963   0.57968   0.00000  Uiso   1.00
C65    C     0.33991   0.34258   0.60093   0.00000  Uiso   1.00
C66    C     0.32143   0.49729   0.60478   0.00000  Uiso   1.00
C67    C     0.44335   0.25888   0.61127   0.00000  Uiso   1.00
C68    C     0.48787   0.15715   0.65909   0.00000  Uiso   1.00
C69    C     0.53707   0.22708   0.68955   0.00000  Uiso   1.00
H70    H     0.39744   0.64212   0.52780   0.00000  Uiso   1.00
H71    H     0.34076   0.54153   0.41322   0.00000  Uiso   1.00
H72    H     0.35243   0.80831   0.55367   0.00000  Uiso   1.00
H73    H     0.50037   0.62292   0.61182   0.00000  Uiso   1.00
H74    H     0.27595   0.35695   0.29359   0.00000  Uiso   1.00
H75    H     0.30055   0.91950   0.58977   0.00000  Uiso   1.00
H76    H     0.61252   0.52855   0.71240   0.00000  Uiso   1.00
H77    H     0.38232   0.07903   0.58494   0.00000  Uiso   1.00
H78    H     0.32481   0.94754   0.47349   0.00000  Uiso   1.00
H79    H     0.33647   0.21433   0.61394   0.00000  Uiso   1.00
H80    H     0.48442   0.02893   0.67209   0.00000  Uiso   1.00
H81    H     0.26300   0.87485   0.34251   0.00000  Uiso   1.00
H82    H     0.28761   0.43740   0.63869   0.00000  Uiso   1.00
H83    H     0.59957   0.04645   0.76131   0.00000  Uiso   1.00
O84    O     0.23190   0.03958   0.24370   0.00000  Uiso   1.00
O85    O     0.26420   0.77762   0.63228   0.00000  Uiso   1.00
O86    O     0.67349   0.26471   0.79316   0.00000  Uiso   1.00
N87    N     0.28080   0.26152   0.32040   0.00000  Uiso   1.00
N88    N     0.30380   0.78747   0.59730   0.00000  Uiso   1.00
N89    N     0.59547   0.42199   0.71196   0.00000  Uiso   1.00
N90    N     0.27383   0.00211   0.34673   0.00000  Uiso   1.00
N91    N     0.29683   0.52805   0.62362   0.00000  Uiso   1.00
N92    N     0.58850   0.16257   0.73828   0.00000  Uiso   1.00
C93    C     0.10602   0.01311   0.95911   0.00000  Uiso   1.00
C94    C     0.13891   0.88037   0.01344   0.00000  Uiso   1.00
C95    C     0.16269   0.91327   0.07379   0.00000  Uiso   1.00
C96    C     0.19111   0.77444   0.11678   0.00000  Uiso   1.00
C97    C     0.24152   0.59356   0.20371   0.00000  Uiso   1.00
C98    C     0.13258   0.02532   0.93714   0.00000  Uiso   1.00
C99    C     0.15103   0.18010   0.93332   0.00000  Uiso   1.00
C100   C     0.17411   0.16329   0.91207   0.00000  Uiso   1.00
C101   C     0.21466   0.20747   0.88049   0.00000  Uiso   1.00
C102   C     0.05220   0.92459   0.90555   0.00000  Uiso   1.00
C103   C     0.00306   0.99469   0.87515   0.00000  Uiso   1.00
C104   C     0.95847   0.89307   0.82729   0.00000  Uiso   1.00
C105   C     0.87421   0.78085   0.74666   0.00000  Uiso   1.00
C106   C     0.11422   0.70804   0.92815   0.00000  Uiso   1.00
C107   C     0.14336   0.71467   0.99663   0.00000  Uiso   1.00
C108   C     0.17175   0.57575   0.03954   0.00000  Uiso   1.00
C109   C     0.19556   0.60844   0.09993   0.00000  Uiso   1.00
C110   C     0.13703   0.85963   0.92032   0.00000  Uiso   1.00
C111   C     0.16009   0.84258   0.89907   0.00000  Uiso   1.00
C112   C     0.17857   0.99729   0.89522   0.00000  Uiso   1.00
C113   C     0.05665   0.75888   0.88873   0.00000  Uiso   1.00
C114   C     0.01213   0.65715   0.84091   0.00000  Uiso   1.00
C115   C     0.96293   0.72708   0.81045   0.00000  Uiso   1.00
H116   H     0.10256   0.14212   0.97220   0.00000  Uiso   1.00
H117   H     0.15924   0.04153   0.08678   0.00000  Uiso   1.00
H118   H     0.14757   0.30831   0.94633   0.00000  Uiso   1.00
H119   H     0.99963   0.12292   0.88818   0.00000  Uiso   1.00
H120   H     0.22405   0.85695   0.20641   0.00000  Uiso   1.00
H121   H     0.19945   0.41950   0.91023   0.00000  Uiso   1.00
H122   H     0.88748   0.02855   0.78760   0.00000  Uiso   1.00
H123   H     0.11768   0.57903   0.91506   0.00000  Uiso   1.00
H124   H     0.17519   0.44754   0.02651   0.00000  Uiso   1.00
H125   H     0.16353   0.71433   0.88606   0.00000  Uiso   1.00
H126   H     0.01558   0.52893   0.82791   0.00000  Uiso   1.00
H127   H     0.23700   0.37485   0.15749   0.00000  Uiso   1.00
H128   H     0.21239   0.93740   0.86131   0.00000  Uiso   1.00
H129   H     0.90043   0.54645   0.73869   0.00000  Uiso   1.00
O130   O     0.26810   0.53958   0.25630   0.00000  Uiso   1.00
O131   O     0.23580   0.27762   0.86772   0.00000  Uiso   1.00
O132   O     0.82651   0.76471   0.70684   0.00000  Uiso   1.00
N133   N     0.21920   0.76152   0.17960   0.00000  Uiso   1.00
N134   N     0.19620   0.28747   0.90270   0.00000  Uiso   1.00
N135   N     0.90453   0.92199   0.78804   0.00000  Uiso   1.00
N136   N     0.22617   0.50211   0.15327   0.00000  Uiso   1.00
N137   N     0.20317   0.02805   0.87638   0.00000  Uiso   1.00
N138   N     0.91150   0.66257   0.76172   0.00000  Uiso   1.00
C139   C     0.60602   0.51311   0.95911   0.00000  Uiso   1.00
C140   C     0.63891   0.38037   0.01344   0.00000  Uiso   1.00
C141   C     0.66269   0.41327   0.07379   0.00000  Uiso   1.00
C142   C     0.69111   0.27444   0.11678   0.00000  Uiso   1.00
C143   C     0.74152   0.09356   0.20371   0.00000  Uiso   1.00
C144   C     0.63258   0.52532   0.93714   0.00000  Uiso   1.00
C145   C     0.65103   0.68010   0.93332   0.00000  Uiso   1.00
C146   C     0.67411   0.66329   0.91207   0.00000  Uiso   1.00
C147   C     0.71466   0.70747   0.88049   0.00000  Uiso   1.00
C148   C     0.55220   0.42459   0.90555   0.00000  Uiso   1.00
C149   C     0.50306   0.49469   0.87515   0.00000  Uiso   1.00
C150   C     0.45847   0.39307   0.82729   0.00000  Uiso   1.00
C151   C     0.37421   0.28085   0.74666   0.00000  Uiso   1.00
C152   C     0.61422   0.20804   0.92815   0.00000  Uiso   1.00
C153   C     0.64336   0.21467   0.99663   0.00000  Uiso   1.00
C154   C     0.67175   0.07575   0.03954   0.00000  Uiso   1.00
C155   C     0.69556   0.10844   0.09993   0.00000  Uiso   1.00
C156   C     0.63703   0.35963   0.92032   0.00000  Uiso   1.00
C157   C     0.66009   0.34258   0.89907   0.00000  Uiso   1.00
C158   C     0.67857   0.49729   0.89522   0.00000  Uiso   1.00
C159   C     0.55665   0.25888   0.88873   0.00000  Uiso   1.00
C160   C     0.51213   0.15715   0.84091   0.00000  Uiso   1.00
C161   C     0.46293   0.22708   0.81045   0.00000  Uiso   1.00
H162   H     0.60256   0.64212   0.97220   0.00000  Uiso   1.00
H163   H     0.65924   0.54153   0.08678   0.00000  Uiso   1.00
H164   H     0.64757   0.80831   0.94633   0.00000  Uiso   1.00
H165   H     0.49963   0.62292   0.88818   0.00000  Uiso   1.00
H166   H     0.72405   0.35695   0.20641   0.00000  Uiso   1.00
H167   H     0.69945   0.91950   0.91023   0.00000  Uiso   1.00
H168   H     0.38748   0.52855   0.78760   0.00000  Uiso   1.00
H169   H     0.61768   0.07903   0.91506   0.00000  Uiso   1.00
H170   H     0.67519   0.94754   0.02651   0.00000  Uiso   1.00
H171   H     0.66353   0.21433   0.88606   0.00000  Uiso   1.00
H172   H     0.51558   0.02893   0.82791   0.00000  Uiso   1.00
H173   H     0.73700   0.87485   0.15749   0.00000  Uiso   1.00
H174   H     0.71239   0.43740   0.86131   0.00000  Uiso   1.00
H175   H     0.40043   0.04645   0.73869   0.00000  Uiso   1.00
O176   O     0.76810   0.03958   0.25630   0.00000  Uiso   1.00
O177   O     0.73580   0.77762   0.86772   0.00000  Uiso   1.00
O178   O     0.32651   0.26471   0.70684   0.00000  Uiso   1.00
N179   N     0.71920   0.26152   0.17960   0.00000  Uiso   1.00
N180   N     0.69620   0.78747   0.90270   0.00000  Uiso   1.00
N181   N     0.40453   0.42199   0.78804   0.00000  Uiso   1.00
N182   N     0.72617   0.00211   0.15327   0.00000  Uiso   1.00
N183   N     0.70317   0.52805   0.87638   0.00000  Uiso   1.00
N184   N     0.41150   0.16257   0.76172   0.00000  Uiso   1.00
C185   C     0.10602   0.98689   0.45911   0.00000  Uiso   1.00
C186   C     0.13891   0.11963   0.51344   0.00000  Uiso   1.00
C187   C     0.16269   0.08673   0.57379   0.00000  Uiso   1.00
C188   C     0.19111   0.22556   0.61678   0.00000  Uiso   1.00
C189   C     0.24152   0.40644   0.70371   0.00000  Uiso   1.00
C190   C     0.13258   0.97468   0.43714   0.00000  Uiso   1.00
C191   C     0.15103   0.81990   0.43332   0.00000  Uiso   1.00
C192   C     0.17411   0.83671   0.41207   0.00000  Uiso   1.00
C193   C     0.21466   0.79253   0.38049   0.00000  Uiso   1.00
C194   C     0.05220   0.07541   0.40555   0.00000  Uiso   1.00
C195   C     0.00306   0.00531   0.37515   0.00000  Uiso   1.00
C196   C     0.95847   0.10693   0.32729   0.00000  Uiso   1.00
C197   C     0.87421   0.21915   0.24666   0.00000  Uiso   1.00
C198   C     0.11422   0.29196   0.42815   0.00000  Uiso   1.00
C199   C     0.14336   0.28533   0.49663   0.00000  Uiso   1.00
C200   C     0.17175   0.42425   0.53954   0.00000  Uiso   1.00
C201   C     0.19556   0.39156   0.59993   0.00000  Uiso   1.00
C202   C     0.13703   0.14037   0.42032   0.00000  Uiso   1.00
C203   C     0.16009   0.15742   0.39907   0.00000  Uiso   1.00
C204   C     0.17857   0.00271   0.39522   0.00000  Uiso   1.00
C205   C     0.05665   0.24112   0.38873   0.00000  Uiso   1.00
C206   C     0.01213   0.34285   0.34091   0.00000  Uiso   1.00
C207   C     0.96293   0.27292   0.31045   0.00000  Uiso   1.00
H208   H     0.10256   0.85788   0.47220   0.00000  Uiso   1.00
H209   H     0.15924   0.95847   0.58678   0.00000  Uiso   1.00
H210   H     0.14757   0.69169   0.44633   0.00000  Uiso   1.00
H211   H     0.99963   0.87708   0.38818   0.00000  Uiso   1.00
H212   H     0.22405   0.14305   0.70641   0.00000  Uiso   1.00
H213   H     0.19945   0.58050   0.41023   0.00000  Uiso   1.00
H214   H     0.88748   0.97145   0.28760   0.00000  Uiso   1.00
H215   H     0.11768   0.42097   0.41506   0.00000  Uiso   1.00
H216   H     0.17519   0.55246   0.52651   0.00000  Uiso   1.00
H217   H     0.16353   0.28567   0.38606   0.00000  Uiso   1.00
H218   H     0.01558   0.47107   0.32791   0.00000  Uiso   1.00
H219   H     0.23700   0.62515   0.65749   0.00000  Uiso   1.00
H220   H     0.21239   0.06260   0.36131   0.00000  Uiso   1.00
H221   H     0.90043   0.45355   0.23869   0.00000  Uiso   1.00
O222   O     0.26810   0.46042   0.75630   0.00000  Uiso   1.00
O223   O     0.23580   0.72238   0.36772   0.00000  Uiso   1.00
O224   O     0.82651   0.23529   0.20684   0.00000  Uiso   1.00
N225   N     0.21920   0.23848   0.67960   0.00000  Uiso   1.00
N226   N     0.19620   0.71253   0.40270   0.00000  Uiso   1.00
N227   N     0.90453   0.07801   0.28804   0.00000  Uiso   1.00
N228   N     0.22617   0.49789   0.65327   0.00000  Uiso   1.00
N229   N     0.20317   0.97195   0.37638   0.00000  Uiso   1.00
N230   N     0.91150   0.33743   0.26172   0.00000  Uiso   1.00
C231   C     0.60602   0.48689   0.45911   0.00000  Uiso   1.00
C232   C     0.63891   0.61963   0.51344   0.00000  Uiso   1.00
C233   C     0.66269   0.58673   0.57379   0.00000  Uiso   1.00
C234   C     0.69111   0.72556   0.61678   0.00000  Uiso   1.00
C235   C     0.74152   0.90644   0.70371   0.00000  Uiso   1.00
C236   C     0.63258   0.47468   0.43714   0.00000  Uiso   1.00
C237   C     0.65103   0.31990   0.43332   0.00000  Uiso   1.00
C238   C     0.67411   0.33671   0.41207   0.00000  Uiso   1.00
C239   C     0.71466   0.29253   0.38049   0.00000  Uiso   1.00
C240   C     0.55220   0.57541   0.40555   0.00000  Uiso   1.00
C241   C     0.50306   0.50531   0.37515   0.00000  Uiso   1.00
C242   C     0.45847   0.60693   0.32729   0.00000  Uiso   1.00
C243   C     0.37421   0.71915   0.24666   0.00000  Uiso   1.00
C244   C     0.61422   0.79196   0.42815   0.00000  Uiso   1.00
C245   C     0.64336   0.78533   0.49663   0.00000  Uiso   1.00
C246   C     0.67175   0.92425   0.53954   0.00000  Uiso   1.00
C247   C     0.69556   0.89156   0.59993   0.00000  Uiso   1.00
C248   C     0.63703   0.64037   0.42032   0.00000  Uiso   1.00
C249   C     0.66009   0.65742   0.39907   0.00000  Uiso   1.00
C250   C     0.67857   0.50271   0.39522   0.00000  Uiso   1.00
C251   C     0.55665   0.74112   0.38873   0.00000  Uiso   1.00
C252   C     0.51213   0.84285   0.34091   0.00000  Uiso   1.00
C253   C     0.46293   0.77292   0.31045   0.00000  Uiso   1.00
H254   H     0.60256   0.35788   0.47220   0.00000  Uiso   1.00
H255   H     0.65924   0.45847   0.58678   0.00000  Uiso   1.00
H256   H     0.64757   0.19169   0.44633   0.00000  Uiso   1.00
H257   H     0.49963   0.37708   0.38818   0.00000  Uiso   1.00
H258   H     0.72405   0.64305   0.70641   0.00000  Uiso   1.00
H259   H     0.69945   0.08050   0.41023   0.00000  Uiso   1.00
H260   H     0.38748   0.47145   0.28760   0.00000  Uiso   1.00
H261   H     0.61768   0.92097   0.41506   0.00000  Uiso   1.00
H262   H     0.67519   0.05246   0.52651   0.00000  Uiso   1.00
H263   H     0.66353   0.78567   0.38606   0.00000  Uiso   1.00
H264   H     0.51558   0.97107   0.32791   0.00000  Uiso   1.00
H265   H     0.73700   0.12515   0.65749   0.00000  Uiso   1.00
H266   H     0.71239   0.56260   0.36131   0.00000  Uiso   1.00
H267   H     0.40043   0.95355   0.23869   0.00000  Uiso   1.00
O268   O     0.76810   0.96042   0.75630   0.00000  Uiso   1.00
O269   O     0.73580   0.22238   0.36772   0.00000  Uiso   1.00
O270   O     0.32651   0.73529   0.20684   0.00000  Uiso   1.00
N271   N     0.71920   0.73848   0.67960   0.00000  Uiso   1.00
N272   N     0.69620   0.21253   0.40270   0.00000  Uiso   1.00
N273   N     0.40453   0.57801   0.28804   0.00000  Uiso   1.00
N274   N     0.72617   0.99789   0.65327   0.00000  Uiso   1.00
N275   N     0.70317   0.47195   0.37638   0.00000  Uiso   1.00
N276   N     0.41150   0.83743   0.26172   0.00000  Uiso   1.00
C277   C     0.89398   0.98689   0.04089   0.00000  Uiso   1.00
C278   C     0.86109   0.11963   0.98656   0.00000  Uiso   1.00
C279   C     0.83731   0.08673   0.92621   0.00000  Uiso   1.00
C280   C     0.80889   0.22556   0.88322   0.00000  Uiso   1.00
C281   C     0.75848   0.40644   0.79629   0.00000  Uiso   1.00
C282   C     0.86742   0.97468   0.06286   0.00000  Uiso   1.00
C283   C     0.84897   0.81990   0.06668   0.00000  Uiso   1.00
C284   C     0.82589   0.83671   0.08793   0.00000  Uiso   1.00
C285   C     0.78534   0.79253   0.11951   0.00000  Uiso   1.00
C286   C     0.94780   0.07541   0.09445   0.00000  Uiso   1.00
C287   C     0.99694   0.00531   0.12485   0.00000  Uiso   1.00
C288   C     0.04153   0.10693   0.17271   0.00000  Uiso   1.00
C289   C     0.12579   0.21915   0.25334   0.00000  Uiso   1.00
C290   C     0.88578   0.29196   0.07185   0.00000  Uiso   1.00
C291   C     0.85664   0.28533   0.00337   0.00000  Uiso   1.00
C292   C     0.82825   0.42425   0.96046   0.00000  Uiso   1.00
C293   C     0.80444   0.39156   0.90007   0.00000  Uiso   1.00
C294   C     0.86297   0.14037   0.07968   0.00000  Uiso   1.00
C295   C     0.83991   0.15742   0.10093   0.00000  Uiso   1.00
C296   C     0.82143   0.00271   0.10478   0.00000  Uiso   1.00
C297   C     0.94335   0.24112   0.11127   0.00000  Uiso   1.00
C298   C     0.98787   0.34285   0.15909   0.00000  Uiso   1.00
C299   C     0.03707   0.27292   0.18955   0.00000  Uiso   1.00
H300   H     0.89744   0.85788   0.02780   0.00000  Uiso   1.00
H301   H     0.84076   0.95847   0.91322   0.00000  Uiso   1.00
H302   H     0.85243   0.69169   0.05367   0.00000  Uiso   1.00
H303   H     0.00037   0.87708   0.11182   0.00000  Uiso   1.00
H304   H     0.77595   0.14305   0.79359   0.00000  Uiso   1.00
H305   H     0.80055   0.58050   0.08977   0.00000  Uiso   1.00
H306   H     0.11252   0.97145   0.21240   0.00000  Uiso   1.00
H307   H     0.88232   0.42097   0.08494   0.00000  Uiso   1.00
H308   H     0.82481   0.55246   0.97349   0.00000  Uiso   1.00
H309   H     0.83647   0.28567   0.11394   0.00000  Uiso   1.00
H310   H     0.98442   0.47107   0.17209   0.00000  Uiso   1.00
H311   H     0.76300   0.62515   0.84251   0.00000  Uiso   1.00
H312   H     0.78761   0.06260   0.13869   0.00000  Uiso   1.00
H313   H     0.09957   0.45355   0.26131   0.00000  Uiso   1.00
O314   O     0.73190   0.46042   0.74370   0.00000  Uiso   1.00
O315   O     0.76420   0.72238   0.13228   0.00000  Uiso   1.00
O316   O     0.17349   0.23529   0.29316   0.00000  Uiso   1.00
N317   N     0.78080   0.23848   0.82040   0.00000  Uiso   1.00
N318   N     0.80380   0.71253   0.09730   0.00000  Uiso   1.00
N319   N     0.09547   0.07801   0.21196   0.00000  Uiso   1.00
N320   N     0.77383   0.49789   0.84673   0.00000  Uiso   1.00
N321   N     0.79683   0.97195   0.12362   0.00000  Uiso   1.00
N322   N     0.08850   0.33743   0.23828   0.00000  Uiso   1.00
C323   C     0.39398   0.48689   0.04089   0.00000  Uiso   1.00
C324   C     0.36109   0.61963   0.98656   0.00000  Uiso   1.00
C325   C     0.33731   0.58673   0.92621   0.00000  Uiso   1.00
C326   C     0.30889   0.72556   0.88322   0.00000  Uiso   1.00
C327   C     0.25848   0.90644   0.79629   0.00000  Uiso   1.00
C328   C     0.36742   0.47468   0.06286   0.00000  Uiso   1.00
C329   C     0.34897   0.31990   0.06668   0.00000  Uiso   1.00
C330   C     0.32589   0.33671   0.08793   0.00000  Uiso   1.00
C331   C     0.28534   0.29253   0.11951   0.00000  Uiso   1.00
C332   C     0.44780   0.57541   0.09445   0.00000  Uiso   1.00
C333   C     0.49694   0.50531   0.12485   0.00000  Uiso   1.00
C334   C     0.54153   0.60693   0.17271   0.00000  Uiso   1.00
C335   C     0.62579   0.71915   0.25334   0.00000  Uiso   1.00
C336   C     0.38578   0.79196   0.07185   0.00000  Uiso   1.00
C337   C     0.35664   0.78533   0.00337   0.00000  Uiso   1.00
C338   C     0.32825   0.92425   0.96046   0.00000  Uiso   1.00
C339   C     0.30444   0.89156   0.90007   0.00000  Uiso   1.00
C340   C     0.36297   0.64037   0.07968   0.00000  Uiso   1.00
C341   C     0.33991   0.65742   0.10093   0.00000  Uiso   1.00
C342   C     0.32143   0.50271   0.10478   0.00000  Uiso   1.00
C343   C     0.44335   0.74112   0.11127   0.00000  Uiso   1.00
C344   C     0.48787   0.84285   0.15909   0.00000  Uiso   1.00
C345   C     0.53707   0.77292   0.18955   0.00000  Uiso   1.00
H346   H     0.39744   0.35788   0.02780   0.00000  Uiso   1.00
H347   H     0.34076   0.45847   0.91322   0.00000  Uiso   1.00
H348   H     0.35243   0.19169   0.05367   0.00000  Uiso   1.00
H349   H     0.50037   0.37708   0.11182   0.00000  Uiso   1.00
H350   H     0.27595   0.64305   0.79359   0.00000  Uiso   1.00
H351   H     0.30055   0.08050   0.08977   0.00000  Uiso   1.00
H352   H     0.61252   0.47145   0.21240   0.00000  Uiso   1.00
H353   H     0.38232   0.92097   0.08494   0.00000  Uiso   1.00
H354   H     0.32481   0.05246   0.97349   0.00000  Uiso   1.00
H355   H     0.33647   0.78567   0.11394   0.00000  Uiso   1.00
H356   H     0.48442   0.97107   0.17209   0.00000  Uiso   1.00
H357   H     0.26300   0.12515   0.84251   0.00000  Uiso   1.00
H358   H     0.28761   0.56260   0.13869   0.00000  Uiso   1.00
H359   H     0.59957   0.95355   0.26131   0.00000  Uiso   1.00
O360   O     0.23190   0.96042   0.74370   0.00000  Uiso   1.00
O361   O     0.26420   0.22238   0.13228   0.00000  Uiso   1.00
O362   O     0.67349   0.73529   0.29316   0.00000  Uiso   1.00
N363   N     0.28080   0.73848   0.82040   0.00000  Uiso   1.00
N364   N     0.30380   0.21253   0.09730   0.00000  Uiso   1.00
N365   N     0.59547   0.57801   0.21196   0.00000  Uiso   1.00
N366   N     0.27383   0.99789   0.84673   0.00000  Uiso   1.00
N367   N     0.29683   0.47195   0.12362   0.00000  Uiso   1.00
N368   N     0.58850   0.83743   0.23828   0.00000  Uiso   1.00
