data_job_02074
_audit_creation_date              2018-12-19
_audit_creation_method            'Materials Studio'
_symmetry_space_group_name_H-M    'P1'
_symmetry_Int_Tables_number       1
_symmetry_cell_setting            triclinic
loop_
_symmetry_equiv_pos_as_xyz
  x,y,z
_cell_length_a                    35.3673
_cell_length_b                    9.9852
_cell_length_c                    17.7354
_cell_angle_alpha                 90.0000
_cell_angle_beta                  88.1520
_cell_angle_gamma                 90.0000
loop_
_atom_site_label
_atom_site_type_symbol
_atom_site_fract_x
_atom_site_fract_y
_atom_site_fract_z
_atom_site_U_iso_or_equiv
_atom_site_adp_type
_atom_site_occupancy
C1     C     0.84732   0.81264   0.91899   0.00000  Uiso   1.00
C2     C     0.88886   0.85386   0.91502   0.00000  Uiso   1.00
C3     C     0.90573   0.93618   0.86061   0.00000  Uiso   1.00
C4     C     0.94408   0.96193   0.86683   0.00000  Uiso   1.00
C5     C     0.00543   0.03421   0.85173   0.00000  Uiso   1.00
C6     C     0.84704   0.65992   0.91900   0.00000  Uiso   1.00
C7     C     0.82876   0.57918   0.86794   0.00000  Uiso   1.00
C8     C     0.83190   0.44167   0.87751   0.00000  Uiso   1.00
C9     C     0.82831   0.21285   0.86862   0.00000  Uiso   1.00
C10    C     0.83218   0.85514   0.99684   0.00000  Uiso   1.00
C11    C     0.80139   0.93852   0.01123   0.00000  Uiso   1.00
C12    C     0.79202   0.96535   0.08634   0.00000  Uiso   1.00
C13    C     0.76536   0.03964   0.19831   0.00000  Uiso   1.00
C14    C     0.88542   0.71199   0.02680   0.00000  Uiso   1.00
C15    C     0.90955   0.79919   0.97358   0.00000  Uiso   1.00
C16    C     0.94788   0.82483   0.97989   0.00000  Uiso   1.00
C17    C     0.96481   0.90717   0.92549   0.00000  Uiso   1.00
C18    C     0.86774   0.60525   0.97755   0.00000  Uiso   1.00
C19    C     0.87091   0.46783   0.98721   0.00000  Uiso   1.00
C20    C     0.85264   0.38690   0.93618   0.00000  Uiso   1.00
C21    C     0.85288   0.80048   0.05540   0.00000  Uiso   1.00
C22    C     0.84355   0.82717   0.13050   0.00000  Uiso   1.00
C23    C     0.81275   0.91058   0.14500   0.00000  Uiso   1.00
H24    H     0.83121   0.85519   0.87341   0.00000  Uiso   1.00
H25    H     0.88971   0.97846   0.81530   0.00000  Uiso   1.00
H26    H     0.81274   0.62151   0.82263   0.00000  Uiso   1.00
H27    H     0.78539   0.98080   0.96590   0.00000  Uiso   1.00
H28    H     0.96369   0.09098   0.77669   0.00000  Uiso   1.00
H29    H     0.80139   0.33834   0.79216   0.00000  Uiso   1.00
H30    H     0.74370   0.09597   0.09427   0.00000  Uiso   1.00
H31    H     0.90153   0.66942   0.07239   0.00000  Uiso   1.00
H32    H     0.96389   0.78251   0.02521   0.00000  Uiso   1.00
H33    H     0.88692   0.42556   0.03253   0.00000  Uiso   1.00
H34    H     0.85957   0.78485   0.17580   0.00000  Uiso   1.00
H35    H     0.02390   0.93193   0.94705   0.00000  Uiso   1.00
H36    H     0.86160   0.17929   0.96253   0.00000  Uiso   1.00
H37    H     0.80392   0.93693   0.26463   0.00000  Uiso   1.00
O38    O     0.03355   0.08916   0.82722   0.00000  Uiso   1.00
O39    O     0.82061   0.10174   0.84753   0.00000  Uiso   1.00
O40    O     0.74493   0.09573   0.24389   0.00000  Uiso   1.00
N41    N     0.96930   0.03805   0.82327   0.00000  Uiso   1.00
N42    N     0.81757   0.33438   0.83773   0.00000  Uiso   1.00
N43    N     0.76363   0.04267   0.12017   0.00000  Uiso   1.00
N44    N     0.00170   0.95247   0.91494   0.00000  Uiso   1.00
N45    N     0.84997   0.24880   0.92940   0.00000  Uiso   1.00
N46    N     0.79603   0.95709   0.21185   0.00000  Uiso   1.00
C47    C     0.34732   0.31264   0.91899   0.00000  Uiso   1.00
C48    C     0.38886   0.35386   0.91502   0.00000  Uiso   1.00
C49    C     0.40573   0.43618   0.86061   0.00000  Uiso   1.00
C50    C     0.44408   0.46193   0.86683   0.00000  Uiso   1.00
C51    C     0.50543   0.53421   0.85173   0.00000  Uiso   1.00
C52    C     0.34704   0.15992   0.91900   0.00000  Uiso   1.00
C53    C     0.32876   0.07918   0.86794   0.00000  Uiso   1.00
C54    C     0.33190   0.94167   0.87751   0.00000  Uiso   1.00
C55    C     0.32831   0.71285   0.86862   0.00000  Uiso   1.00
C56    C     0.33218   0.35514   0.99684   0.00000  Uiso   1.00
C57    C     0.30139   0.43852   0.01123   0.00000  Uiso   1.00
C58    C     0.29202   0.46535   0.08634   0.00000  Uiso   1.00
C59    C     0.26536   0.53964   0.19831   0.00000  Uiso   1.00
C60    C     0.38542   0.21199   0.02680   0.00000  Uiso   1.00
C61    C     0.40955   0.29919   0.97358   0.00000  Uiso   1.00
C62    C     0.44788   0.32483   0.97989   0.00000  Uiso   1.00
C63    C     0.46481   0.40717   0.92549   0.00000  Uiso   1.00
C64    C     0.36774   0.10525   0.97755   0.00000  Uiso   1.00
C65    C     0.37091   0.96783   0.98721   0.00000  Uiso   1.00
C66    C     0.35264   0.88690   0.93618   0.00000  Uiso   1.00
C67    C     0.35288   0.30048   0.05540   0.00000  Uiso   1.00
C68    C     0.34355   0.32717   0.13050   0.00000  Uiso   1.00
C69    C     0.31275   0.41058   0.14500   0.00000  Uiso   1.00
H70    H     0.33121   0.35519   0.87341   0.00000  Uiso   1.00
H71    H     0.38971   0.47846   0.81530   0.00000  Uiso   1.00
H72    H     0.31274   0.12151   0.82263   0.00000  Uiso   1.00
H73    H     0.28539   0.48080   0.96590   0.00000  Uiso   1.00
H74    H     0.46369   0.59098   0.77669   0.00000  Uiso   1.00
H75    H     0.30139   0.83834   0.79216   0.00000  Uiso   1.00
H76    H     0.24370   0.59597   0.09427   0.00000  Uiso   1.00
H77    H     0.40153   0.16942   0.07239   0.00000  Uiso   1.00
H78    H     0.46389   0.28251   0.02521   0.00000  Uiso   1.00
H79    H     0.38692   0.92556   0.03253   0.00000  Uiso   1.00
H80    H     0.35957   0.28485   0.17580   0.00000  Uiso   1.00
H81    H     0.52390   0.43193   0.94705   0.00000  Uiso   1.00
H82    H     0.36160   0.67929   0.96253   0.00000  Uiso   1.00
H83    H     0.30392   0.43693   0.26463   0.00000  Uiso   1.00
O84    O     0.53355   0.58916   0.82722   0.00000  Uiso   1.00
O85    O     0.32061   0.60174   0.84753   0.00000  Uiso   1.00
O86    O     0.24493   0.59573   0.24389   0.00000  Uiso   1.00
N87    N     0.46930   0.53805   0.82327   0.00000  Uiso   1.00
N88    N     0.31757   0.83438   0.83773   0.00000  Uiso   1.00
N89    N     0.26363   0.54267   0.12017   0.00000  Uiso   1.00
N90    N     0.50170   0.45247   0.91494   0.00000  Uiso   1.00
N91    N     0.34997   0.74880   0.92940   0.00000  Uiso   1.00
N92    N     0.29603   0.45709   0.21185   0.00000  Uiso   1.00
C93    C     0.15268   0.81264   0.58101   0.00000  Uiso   1.00
C94    C     0.11114   0.85386   0.58498   0.00000  Uiso   1.00
C95    C     0.09427   0.93618   0.63939   0.00000  Uiso   1.00
C96    C     0.05592   0.96193   0.63317   0.00000  Uiso   1.00
C97    C     0.99457   0.03421   0.64827   0.00000  Uiso   1.00
C98    C     0.15296   0.65992   0.58100   0.00000  Uiso   1.00
C99    C     0.17124   0.57918   0.63206   0.00000  Uiso   1.00
C100   C     0.16810   0.44167   0.62249   0.00000  Uiso   1.00
C101   C     0.17169   0.21285   0.63138   0.00000  Uiso   1.00
C102   C     0.16782   0.85514   0.50316   0.00000  Uiso   1.00
C103   C     0.19861   0.93852   0.48877   0.00000  Uiso   1.00
C104   C     0.20798   0.96535   0.41366   0.00000  Uiso   1.00
C105   C     0.23464   0.03964   0.30169   0.00000  Uiso   1.00
C106   C     0.11458   0.71199   0.47320   0.00000  Uiso   1.00
C107   C     0.09045   0.79919   0.52642   0.00000  Uiso   1.00
C108   C     0.05212   0.82483   0.52011   0.00000  Uiso   1.00
C109   C     0.03519   0.90717   0.57451   0.00000  Uiso   1.00
C110   C     0.13226   0.60525   0.52245   0.00000  Uiso   1.00
C111   C     0.12909   0.46783   0.51279   0.00000  Uiso   1.00
C112   C     0.14736   0.38690   0.56382   0.00000  Uiso   1.00
C113   C     0.14712   0.80048   0.44460   0.00000  Uiso   1.00
C114   C     0.15645   0.82717   0.36950   0.00000  Uiso   1.00
C115   C     0.18725   0.91058   0.35500   0.00000  Uiso   1.00
H116   H     0.16879   0.85519   0.62659   0.00000  Uiso   1.00
H117   H     0.11029   0.97846   0.68470   0.00000  Uiso   1.00
H118   H     0.18726   0.62151   0.67737   0.00000  Uiso   1.00
H119   H     0.21461   0.98080   0.53410   0.00000  Uiso   1.00
H120   H     0.03631   0.09098   0.72331   0.00000  Uiso   1.00
H121   H     0.19861   0.33834   0.70784   0.00000  Uiso   1.00
H122   H     0.25630   0.09597   0.40573   0.00000  Uiso   1.00
H123   H     0.09847   0.66942   0.42761   0.00000  Uiso   1.00
H124   H     0.03611   0.78251   0.47479   0.00000  Uiso   1.00
H125   H     0.11308   0.42556   0.46747   0.00000  Uiso   1.00
H126   H     0.14043   0.78485   0.32420   0.00000  Uiso   1.00
H127   H     0.97610   0.93193   0.55295   0.00000  Uiso   1.00
H128   H     0.13840   0.17929   0.53747   0.00000  Uiso   1.00
H129   H     0.19608   0.93693   0.23537   0.00000  Uiso   1.00
O130   O     0.96645   0.08916   0.67278   0.00000  Uiso   1.00
O131   O     0.17939   0.10174   0.65247   0.00000  Uiso   1.00
O132   O     0.25507   0.09573   0.25611   0.00000  Uiso   1.00
N133   N     0.03070   0.03805   0.67673   0.00000  Uiso   1.00
N134   N     0.18243   0.33438   0.66227   0.00000  Uiso   1.00
N135   N     0.23637   0.04267   0.37983   0.00000  Uiso   1.00
N136   N     0.99830   0.95247   0.58506   0.00000  Uiso   1.00
N137   N     0.15003   0.24880   0.57060   0.00000  Uiso   1.00
N138   N     0.20397   0.95709   0.28815   0.00000  Uiso   1.00
C139   C     0.65268   0.31264   0.58101   0.00000  Uiso   1.00
C140   C     0.61114   0.35386   0.58498   0.00000  Uiso   1.00
C141   C     0.59427   0.43618   0.63939   0.00000  Uiso   1.00
C142   C     0.55592   0.46193   0.63317   0.00000  Uiso   1.00
C143   C     0.49457   0.53421   0.64827   0.00000  Uiso   1.00
C144   C     0.65296   0.15992   0.58100   0.00000  Uiso   1.00
C145   C     0.67124   0.07918   0.63206   0.00000  Uiso   1.00
C146   C     0.66810   0.94167   0.62249   0.00000  Uiso   1.00
C147   C     0.67169   0.71285   0.63138   0.00000  Uiso   1.00
C148   C     0.66782   0.35514   0.50316   0.00000  Uiso   1.00
C149   C     0.69861   0.43852   0.48877   0.00000  Uiso   1.00
C150   C     0.70798   0.46535   0.41366   0.00000  Uiso   1.00
C151   C     0.73464   0.53964   0.30169   0.00000  Uiso   1.00
C152   C     0.61458   0.21199   0.47320   0.00000  Uiso   1.00
C153   C     0.59045   0.29919   0.52642   0.00000  Uiso   1.00
C154   C     0.55212   0.32483   0.52011   0.00000  Uiso   1.00
C155   C     0.53519   0.40717   0.57451   0.00000  Uiso   1.00
C156   C     0.63226   0.10525   0.52245   0.00000  Uiso   1.00
C157   C     0.62909   0.96783   0.51279   0.00000  Uiso   1.00
C158   C     0.64736   0.88690   0.56382   0.00000  Uiso   1.00
C159   C     0.64712   0.30048   0.44460   0.00000  Uiso   1.00
C160   C     0.65645   0.32717   0.36950   0.00000  Uiso   1.00
C161   C     0.68725   0.41058   0.35500   0.00000  Uiso   1.00
H162   H     0.66879   0.35519   0.62659   0.00000  Uiso   1.00
H163   H     0.61029   0.47846   0.68470   0.00000  Uiso   1.00
H164   H     0.68726   0.12151   0.67737   0.00000  Uiso   1.00
H165   H     0.71461   0.48080   0.53410   0.00000  Uiso   1.00
H166   H     0.53631   0.59098   0.72331   0.00000  Uiso   1.00
H167   H     0.69861   0.83834   0.70784   0.00000  Uiso   1.00
H168   H     0.75630   0.59597   0.40573   0.00000  Uiso   1.00
H169   H     0.59847   0.16942   0.42761   0.00000  Uiso   1.00
H170   H     0.53611   0.28251   0.47479   0.00000  Uiso   1.00
H171   H     0.61308   0.92556   0.46747   0.00000  Uiso   1.00
H172   H     0.64043   0.28485   0.32420   0.00000  Uiso   1.00
H173   H     0.47610   0.43193   0.55295   0.00000  Uiso   1.00
H174   H     0.63840   0.67929   0.53747   0.00000  Uiso   1.00
H175   H     0.69608   0.43693   0.23537   0.00000  Uiso   1.00
O176   O     0.46645   0.58916   0.67278   0.00000  Uiso   1.00
O177   O     0.67939   0.60174   0.65247   0.00000  Uiso   1.00
O178   O     0.75507   0.59573   0.25611   0.00000  Uiso   1.00
N179   N     0.53070   0.53805   0.67673   0.00000  Uiso   1.00
N180   N     0.68243   0.83438   0.66227   0.00000  Uiso   1.00
N181   N     0.73637   0.54267   0.37983   0.00000  Uiso   1.00
N182   N     0.49830   0.45247   0.58506   0.00000  Uiso   1.00
N183   N     0.65003   0.74880   0.57060   0.00000  Uiso   1.00
N184   N     0.70397   0.45709   0.28815   0.00000  Uiso   1.00
C185   C     0.15268   0.18736   0.08101   0.00000  Uiso   1.00
C186   C     0.11114   0.14614   0.08498   0.00000  Uiso   1.00
C187   C     0.09427   0.06382   0.13939   0.00000  Uiso   1.00
C188   C     0.05592   0.03807   0.13317   0.00000  Uiso   1.00
C189   C     0.99457   0.96579   0.14827   0.00000  Uiso   1.00
C190   C     0.15296   0.34008   0.08100   0.00000  Uiso   1.00
C191   C     0.17124   0.42082   0.13206   0.00000  Uiso   1.00
C192   C     0.16810   0.55833   0.12249   0.00000  Uiso   1.00
C193   C     0.17169   0.78715   0.13138   0.00000  Uiso   1.00
C194   C     0.16782   0.14486   0.00316   0.00000  Uiso   1.00
C195   C     0.19861   0.06148   0.98877   0.00000  Uiso   1.00
C196   C     0.20798   0.03465   0.91366   0.00000  Uiso   1.00
C197   C     0.23464   0.96036   0.80169   0.00000  Uiso   1.00
C198   C     0.11458   0.28801   0.97320   0.00000  Uiso   1.00
C199   C     0.09045   0.20081   0.02642   0.00000  Uiso   1.00
C200   C     0.05212   0.17517   0.02011   0.00000  Uiso   1.00
C201   C     0.03519   0.09283   0.07451   0.00000  Uiso   1.00
C202   C     0.13226   0.39475   0.02245   0.00000  Uiso   1.00
C203   C     0.12909   0.53217   0.01279   0.00000  Uiso   1.00
C204   C     0.14736   0.61310   0.06382   0.00000  Uiso   1.00
C205   C     0.14712   0.19952   0.94460   0.00000  Uiso   1.00
C206   C     0.15645   0.17283   0.86950   0.00000  Uiso   1.00
C207   C     0.18725   0.08942   0.85500   0.00000  Uiso   1.00
H208   H     0.16879   0.14481   0.12659   0.00000  Uiso   1.00
H209   H     0.11029   0.02154   0.18470   0.00000  Uiso   1.00
H210   H     0.18726   0.37849   0.17737   0.00000  Uiso   1.00
H211   H     0.21461   0.01920   0.03410   0.00000  Uiso   1.00
H212   H     0.03631   0.90902   0.22331   0.00000  Uiso   1.00
H213   H     0.19861   0.66166   0.20784   0.00000  Uiso   1.00
H214   H     0.25630   0.90403   0.90573   0.00000  Uiso   1.00
H215   H     0.09847   0.33058   0.92761   0.00000  Uiso   1.00
H216   H     0.03611   0.21749   0.97479   0.00000  Uiso   1.00
H217   H     0.11308   0.57444   0.96747   0.00000  Uiso   1.00
H218   H     0.14043   0.21515   0.82420   0.00000  Uiso   1.00
H219   H     0.97610   0.06807   0.05295   0.00000  Uiso   1.00
H220   H     0.13840   0.82071   0.03747   0.00000  Uiso   1.00
H221   H     0.19608   0.06307   0.73537   0.00000  Uiso   1.00
O222   O     0.96645   0.91084   0.17278   0.00000  Uiso   1.00
O223   O     0.17939   0.89826   0.15247   0.00000  Uiso   1.00
O224   O     0.25507   0.90427   0.75611   0.00000  Uiso   1.00
N225   N     0.03070   0.96195   0.17673   0.00000  Uiso   1.00
N226   N     0.18243   0.66562   0.16227   0.00000  Uiso   1.00
N227   N     0.23637   0.95733   0.87983   0.00000  Uiso   1.00
N228   N     0.99830   0.04753   0.08506   0.00000  Uiso   1.00
N229   N     0.15003   0.75120   0.07060   0.00000  Uiso   1.00
N230   N     0.20397   0.04291   0.78815   0.00000  Uiso   1.00
C231   C     0.65268   0.68736   0.08101   0.00000  Uiso   1.00
C232   C     0.61114   0.64614   0.08498   0.00000  Uiso   1.00
C233   C     0.59427   0.56382   0.13939   0.00000  Uiso   1.00
C234   C     0.55592   0.53807   0.13317   0.00000  Uiso   1.00
C235   C     0.49457   0.46579   0.14827   0.00000  Uiso   1.00
C236   C     0.65296   0.84008   0.08100   0.00000  Uiso   1.00
C237   C     0.67124   0.92082   0.13206   0.00000  Uiso   1.00
C238   C     0.66810   0.05833   0.12249   0.00000  Uiso   1.00
C239   C     0.67169   0.28715   0.13138   0.00000  Uiso   1.00
C240   C     0.66782   0.64486   0.00316   0.00000  Uiso   1.00
C241   C     0.69861   0.56148   0.98877   0.00000  Uiso   1.00
C242   C     0.70798   0.53465   0.91366   0.00000  Uiso   1.00
C243   C     0.73464   0.46036   0.80169   0.00000  Uiso   1.00
C244   C     0.61458   0.78801   0.97320   0.00000  Uiso   1.00
C245   C     0.59045   0.70081   0.02642   0.00000  Uiso   1.00
C246   C     0.55212   0.67517   0.02011   0.00000  Uiso   1.00
C247   C     0.53519   0.59283   0.07451   0.00000  Uiso   1.00
C248   C     0.63226   0.89475   0.02245   0.00000  Uiso   1.00
C249   C     0.62909   0.03217   0.01279   0.00000  Uiso   1.00
C250   C     0.64736   0.11310   0.06382   0.00000  Uiso   1.00
C251   C     0.64712   0.69952   0.94460   0.00000  Uiso   1.00
C252   C     0.65645   0.67283   0.86950   0.00000  Uiso   1.00
C253   C     0.68725   0.58942   0.85500   0.00000  Uiso   1.00
H254   H     0.66879   0.64481   0.12659   0.00000  Uiso   1.00
H255   H     0.61029   0.52154   0.18470   0.00000  Uiso   1.00
H256   H     0.68726   0.87849   0.17737   0.00000  Uiso   1.00
H257   H     0.71461   0.51920   0.03410   0.00000  Uiso   1.00
H258   H     0.53631   0.40902   0.22331   0.00000  Uiso   1.00
H259   H     0.69861   0.16166   0.20784   0.00000  Uiso   1.00
H260   H     0.75630   0.40403   0.90573   0.00000  Uiso   1.00
H261   H     0.59847   0.83058   0.92761   0.00000  Uiso   1.00
H262   H     0.53611   0.71749   0.97479   0.00000  Uiso   1.00
H263   H     0.61308   0.07444   0.96747   0.00000  Uiso   1.00
H264   H     0.64043   0.71515   0.82420   0.00000  Uiso   1.00
H265   H     0.47610   0.56807   0.05295   0.00000  Uiso   1.00
H266   H     0.63840   0.32071   0.03747   0.00000  Uiso   1.00
H267   H     0.69608   0.56307   0.73537   0.00000  Uiso   1.00
O268   O     0.46645   0.41084   0.17278   0.00000  Uiso   1.00
O269   O     0.67939   0.39826   0.15247   0.00000  Uiso   1.00
O270   O     0.75507   0.40427   0.75611   0.00000  Uiso   1.00
N271   N     0.53070   0.46195   0.17673   0.00000  Uiso   1.00
N272   N     0.68243   0.16562   0.16227   0.00000  Uiso   1.00
N273   N     0.73637   0.45733   0.87983   0.00000  Uiso   1.00
N274   N     0.49830   0.54753   0.08506   0.00000  Uiso   1.00
N275   N     0.65003   0.25120   0.07060   0.00000  Uiso   1.00
N276   N     0.70397   0.54291   0.78815   0.00000  Uiso   1.00
C277   C     0.84732   0.18736   0.41899   0.00000  Uiso   1.00
C278   C     0.88886   0.14614   0.41502   0.00000  Uiso   1.00
C279   C     0.90573   0.06382   0.36061   0.00000  Uiso   1.00
C280   C     0.94408   0.03807   0.36683   0.00000  Uiso   1.00
C281   C     0.00543   0.96579   0.35173   0.00000  Uiso   1.00
C282   C     0.84704   0.34008   0.41900   0.00000  Uiso   1.00
C283   C     0.82876   0.42082   0.36794   0.00000  Uiso   1.00
C284   C     0.83190   0.55833   0.37751   0.00000  Uiso   1.00
C285   C     0.82831   0.78715   0.36862   0.00000  Uiso   1.00
C286   C     0.83218   0.14486   0.49684   0.00000  Uiso   1.00
C287   C     0.80139   0.06148   0.51123   0.00000  Uiso   1.00
C288   C     0.79202   0.03465   0.58634   0.00000  Uiso   1.00
C289   C     0.76536   0.96036   0.69831   0.00000  Uiso   1.00
C290   C     0.88542   0.28801   0.52680   0.00000  Uiso   1.00
C291   C     0.90955   0.20081   0.47358   0.00000  Uiso   1.00
C292   C     0.94788   0.17517   0.47989   0.00000  Uiso   1.00
C293   C     0.96481   0.09283   0.42549   0.00000  Uiso   1.00
C294   C     0.86774   0.39475   0.47755   0.00000  Uiso   1.00
C295   C     0.87091   0.53217   0.48721   0.00000  Uiso   1.00
C296   C     0.85264   0.61310   0.43618   0.00000  Uiso   1.00
C297   C     0.85288   0.19952   0.55540   0.00000  Uiso   1.00
C298   C     0.84355   0.17283   0.63050   0.00000  Uiso   1.00
C299   C     0.81275   0.08942   0.64500   0.00000  Uiso   1.00
H300   H     0.83121   0.14481   0.37341   0.00000  Uiso   1.00
H301   H     0.88971   0.02154   0.31530   0.00000  Uiso   1.00
H302   H     0.81274   0.37849   0.32263   0.00000  Uiso   1.00
H303   H     0.78539   0.01920   0.46590   0.00000  Uiso   1.00
H304   H     0.96369   0.90902   0.27669   0.00000  Uiso   1.00
H305   H     0.80139   0.66166   0.29216   0.00000  Uiso   1.00
H306   H     0.74370   0.90403   0.59427   0.00000  Uiso   1.00
H307   H     0.90153   0.33058   0.57239   0.00000  Uiso   1.00
H308   H     0.96389   0.21749   0.52521   0.00000  Uiso   1.00
H309   H     0.88692   0.57444   0.53253   0.00000  Uiso   1.00
H310   H     0.85957   0.21515   0.67580   0.00000  Uiso   1.00
H311   H     0.02390   0.06807   0.44705   0.00000  Uiso   1.00
H312   H     0.86160   0.82071   0.46253   0.00000  Uiso   1.00
H313   H     0.80392   0.06307   0.76463   0.00000  Uiso   1.00
O314   O     0.03355   0.91084   0.32722   0.00000  Uiso   1.00
O315   O     0.82061   0.89826   0.34753   0.00000  Uiso   1.00
O316   O     0.74493   0.90427   0.74389   0.00000  Uiso   1.00
N317   N     0.96930   0.96195   0.32327   0.00000  Uiso   1.00
N318   N     0.81757   0.66562   0.33773   0.00000  Uiso   1.00
N319   N     0.76363   0.95733   0.62017   0.00000  Uiso   1.00
N320   N     0.00170   0.04753   0.41494   0.00000  Uiso   1.00
N321   N     0.84997   0.75120   0.42940   0.00000  Uiso   1.00
N322   N     0.79603   0.04291   0.71185   0.00000  Uiso   1.00
C323   C     0.34732   0.68736   0.41899   0.00000  Uiso   1.00
C324   C     0.38886   0.64614   0.41502   0.00000  Uiso   1.00
C325   C     0.40573   0.56382   0.36061   0.00000  Uiso   1.00
C326   C     0.44408   0.53807   0.36683   0.00000  Uiso   1.00
C327   C     0.50543   0.46579   0.35173   0.00000  Uiso   1.00
C328   C     0.34704   0.84008   0.41900   0.00000  Uiso   1.00
C329   C     0.32876   0.92082   0.36794   0.00000  Uiso   1.00
C330   C     0.33190   0.05833   0.37751   0.00000  Uiso   1.00
C331   C     0.32831   0.28715   0.36862   0.00000  Uiso   1.00
C332   C     0.33218   0.64486   0.49684   0.00000  Uiso   1.00
C333   C     0.30139   0.56148   0.51123   0.00000  Uiso   1.00
C334   C     0.29202   0.53465   0.58634   0.00000  Uiso   1.00
C335   C     0.26536   0.46036   0.69831   0.00000  Uiso   1.00
C336   C     0.38542   0.78801   0.52680   0.00000  Uiso   1.00
C337   C     0.40955   0.70081   0.47358   0.00000  Uiso   1.00
C338   C     0.44788   0.67517   0.47989   0.00000  Uiso   1.00
C339   C     0.46481   0.59283   0.42549   0.00000  Uiso   1.00
C340   C     0.36774   0.89475   0.47755   0.00000  Uiso   1.00
C341   C     0.37091   0.03217   0.48721   0.00000  Uiso   1.00
C342   C     0.35264   0.11310   0.43618   0.00000  Uiso   1.00
C343   C     0.35288   0.69952   0.55540   0.00000  Uiso   1.00
C344   C     0.34355   0.67283   0.63050   0.00000  Uiso   1.00
C345   C     0.31275   0.58942   0.64500   0.00000  Uiso   1.00
H346   H     0.33121   0.64481   0.37341   0.00000  Uiso   1.00
H347   H     0.38971   0.52154   0.31530   0.00000  Uiso   1.00
H348   H     0.31274   0.87849   0.32263   0.00000  Uiso   1.00
H349   H     0.28539   0.51920   0.46590   0.00000  Uiso   1.00
H350   H     0.46369   0.40902   0.27669   0.00000  Uiso   1.00
H351   H     0.30139   0.16166   0.29216   0.00000  Uiso   1.00
H352   H     0.24370   0.40403   0.59427   0.00000  Uiso   1.00
H353   H     0.40153   0.83058   0.57239   0.00000  Uiso   1.00
H354   H     0.46389   0.71749   0.52521   0.00000  Uiso   1.00
H355   H     0.38692   0.07444   0.53253   0.00000  Uiso   1.00
H356   H     0.35957   0.71515   0.67580   0.00000  Uiso   1.00
H357   H     0.52390   0.56807   0.44705   0.00000  Uiso   1.00
H358   H     0.36160   0.32071   0.46253   0.00000  Uiso   1.00
H359   H     0.30392   0.56307   0.76463   0.00000  Uiso   1.00
O360   O     0.53355   0.41084   0.32722   0.00000  Uiso   1.00
O361   O     0.32061   0.39826   0.34753   0.00000  Uiso   1.00
O362   O     0.24493   0.40427   0.74389   0.00000  Uiso   1.00
N363   N     0.46930   0.46195   0.32327   0.00000  Uiso   1.00
N364   N     0.31757   0.16562   0.33773   0.00000  Uiso   1.00
N365   N     0.26363   0.45733   0.62017   0.00000  Uiso   1.00
N366   N     0.50170   0.54753   0.41494   0.00000  Uiso   1.00
N367   N     0.34997   0.25120   0.42940   0.00000  Uiso   1.00
N368   N     0.29603   0.54291   0.71185   0.00000  Uiso   1.00
