data_job_02429
_audit_creation_date              2018-12-19
_audit_creation_method            'Materials Studio'
_symmetry_space_group_name_H-M    'P1'
_symmetry_Int_Tables_number       1
_symmetry_cell_setting            triclinic
loop_
_symmetry_equiv_pos_as_xyz
  x,y,z
_cell_length_a                    11.8176
_cell_length_b                    14.0304
_cell_length_c                    28.7289
_cell_angle_alpha                 90.0000
_cell_angle_beta                  90.0000
_cell_angle_gamma                 90.0000
loop_
_atom_site_label
_atom_site_type_symbol
_atom_site_fract_x
_atom_site_fract_y
_atom_site_fract_z
_atom_site_U_iso_or_equiv
_atom_site_adp_type
_atom_site_occupancy
C1     C     0.69878   0.67121   0.13713   0.00000  Uiso   1.00
C2     C     0.80029   0.69915   0.10734   0.00000  Uiso   1.00
C3     C     0.85402   0.64110   0.07507   0.00000  Uiso   1.00
C4     C     0.94542   0.67990   0.05135   0.00000  Uiso   1.00
C5     C     0.09756   0.70904   0.00384   0.00000  Uiso   1.00
C6     C     0.73455   0.68748   0.18751   0.00000  Uiso   1.00
C7     C     0.73300   0.61962   0.22265   0.00000  Uiso   1.00
C8     C     0.76904   0.64861   0.26642   0.00000  Uiso   1.00
C9     C     0.81904   0.65965   0.34339   0.00000  Uiso   1.00
C10    C     0.60727   0.74497   0.12700   0.00000  Uiso   1.00
C11    C     0.49867   0.72544   0.11128   0.00000  Uiso   1.00
C12    C     0.42754   0.80283   0.10411   0.00000  Uiso   1.00
C13    C     0.27991   0.90312   0.08713   0.00000  Uiso   1.00
C14    C     0.76555   0.84335   0.15238   0.00000  Uiso   1.00
C15    C     0.83656   0.79265   0.11562   0.00000  Uiso   1.00
C16    C     0.92790   0.83155   0.09193   0.00000  Uiso   1.00
C17    C     0.98175   0.77357   0.05964   0.00000  Uiso   1.00
C18    C     0.77082   0.78098   0.19579   0.00000  Uiso   1.00
C19    C     0.80687   0.81007   0.23952   0.00000  Uiso   1.00
C20    C     0.80537   0.74227   0.27471   0.00000  Uiso   1.00
C21    C     0.64353   0.83847   0.13528   0.00000  Uiso   1.00
C22    C     0.57255   0.91590   0.12814   0.00000  Uiso   1.00
C23    C     0.46387   0.89649   0.11241   0.00000  Uiso   1.00
H24    H     0.67055   0.59842   0.13069   0.00000  Uiso   1.00
H25    H     0.82594   0.56874   0.06868   0.00000  Uiso   1.00
H26    H     0.70492   0.54727   0.21624   0.00000  Uiso   1.00
H27    H     0.47064   0.65308   0.10488   0.00000  Uiso   1.00
H28    H     0.01424   0.57706   0.00359   0.00000  Uiso   1.00
H29    H     0.75902   0.53180   0.31473   0.00000  Uiso   1.00
H30    H     0.26499   0.75491   0.07990   0.00000  Uiso   1.00
H31    H     0.79379   0.91615   0.15882   0.00000  Uiso   1.00
H32    H     0.95594   0.90391   0.09835   0.00000  Uiso   1.00
H33    H     0.83492   0.88244   0.24591   0.00000  Uiso   1.00
H34    H     0.60064   0.98824   0.13455   0.00000  Uiso   1.00
H35    H     0.11976   0.84909   0.02767   0.00000  Uiso   1.00
H36    H     0.86453   0.80383   0.33881   0.00000  Uiso   1.00
H37    H     0.37051   0.02694   0.10399   0.00000  Uiso   1.00
O38    O     0.17147   0.69928   0.97535   0.00000  Uiso   1.00
O39    O     0.83661   0.63990   0.38356   0.00000  Uiso   1.00
O40    O     0.18846   0.93262   0.07547   0.00000  Uiso   1.00
N41    N     0.01680   0.64277   0.01755   0.00000  Uiso   1.00
N42    N     0.77821   0.60045   0.30844   0.00000  Uiso   1.00
N43    N     0.31632   0.80904   0.08892   0.00000  Uiso   1.00
N44    N     0.07358   0.78915   0.03051   0.00000  Uiso   1.00
N45    N     0.83499   0.74683   0.32140   0.00000  Uiso   1.00
N46    N     0.37310   0.95542   0.10187   0.00000  Uiso   1.00
C47    C     0.80122   0.82879   0.63713   0.00000  Uiso   1.00
C48    C     0.69971   0.80085   0.60734   0.00000  Uiso   1.00
C49    C     0.64598   0.85890   0.57507   0.00000  Uiso   1.00
C50    C     0.55458   0.82010   0.55135   0.00000  Uiso   1.00
C51    C     0.40244   0.79096   0.50384   0.00000  Uiso   1.00
C52    C     0.76545   0.81252   0.68751   0.00000  Uiso   1.00
C53    C     0.76700   0.88038   0.72265   0.00000  Uiso   1.00
C54    C     0.73096   0.85139   0.76642   0.00000  Uiso   1.00
C55    C     0.68096   0.84035   0.84339   0.00000  Uiso   1.00
C56    C     0.89273   0.75503   0.62700   0.00000  Uiso   1.00
C57    C     0.00133   0.77456   0.61128   0.00000  Uiso   1.00
C58    C     0.07246   0.69717   0.60411   0.00000  Uiso   1.00
C59    C     0.22009   0.59688   0.58713   0.00000  Uiso   1.00
C60    C     0.73445   0.65665   0.65238   0.00000  Uiso   1.00
C61    C     0.66344   0.70735   0.61562   0.00000  Uiso   1.00
C62    C     0.57210   0.66845   0.59193   0.00000  Uiso   1.00
C63    C     0.51825   0.72643   0.55964   0.00000  Uiso   1.00
C64    C     0.72918   0.71902   0.69579   0.00000  Uiso   1.00
C65    C     0.69313   0.68993   0.73952   0.00000  Uiso   1.00
C66    C     0.69463   0.75773   0.77471   0.00000  Uiso   1.00
C67    C     0.85647   0.66153   0.63528   0.00000  Uiso   1.00
C68    C     0.92745   0.58410   0.62814   0.00000  Uiso   1.00
C69    C     0.03613   0.60351   0.61241   0.00000  Uiso   1.00
H70    H     0.82945   0.90158   0.63069   0.00000  Uiso   1.00
H71    H     0.67406   0.93126   0.56868   0.00000  Uiso   1.00
H72    H     0.79508   0.95273   0.71624   0.00000  Uiso   1.00
H73    H     0.02936   0.84692   0.60488   0.00000  Uiso   1.00
H74    H     0.48576   0.92294   0.50359   0.00000  Uiso   1.00
H75    H     0.74098   0.96820   0.81473   0.00000  Uiso   1.00
H76    H     0.23501   0.74509   0.57990   0.00000  Uiso   1.00
H77    H     0.70621   0.58385   0.65882   0.00000  Uiso   1.00
H78    H     0.54406   0.59609   0.59835   0.00000  Uiso   1.00
H79    H     0.66508   0.61756   0.74591   0.00000  Uiso   1.00
H80    H     0.89936   0.51176   0.63455   0.00000  Uiso   1.00
H81    H     0.38024   0.65091   0.52767   0.00000  Uiso   1.00
H82    H     0.63547   0.69617   0.83881   0.00000  Uiso   1.00
H83    H     0.12949   0.47306   0.60399   0.00000  Uiso   1.00
O84    O     0.32853   0.80072   0.47535   0.00000  Uiso   1.00
O85    O     0.66339   0.86010   0.88356   0.00000  Uiso   1.00
O86    O     0.31154   0.56738   0.57547   0.00000  Uiso   1.00
N87    N     0.48320   0.85723   0.51755   0.00000  Uiso   1.00
N88    N     0.72179   0.89955   0.80844   0.00000  Uiso   1.00
N89    N     0.18368   0.69096   0.58892   0.00000  Uiso   1.00
N90    N     0.42642   0.71085   0.53051   0.00000  Uiso   1.00
N91    N     0.66501   0.75317   0.82140   0.00000  Uiso   1.00
N92    N     0.12690   0.54458   0.60187   0.00000  Uiso   1.00
C93    C     0.30122   0.67121   0.36287   0.00000  Uiso   1.00
C94    C     0.19971   0.69915   0.39266   0.00000  Uiso   1.00
C95    C     0.14598   0.64110   0.42493   0.00000  Uiso   1.00
C96    C     0.05458   0.67990   0.44865   0.00000  Uiso   1.00
C97    C     0.90244   0.70904   0.49616   0.00000  Uiso   1.00
C98    C     0.26545   0.68748   0.31249   0.00000  Uiso   1.00
C99    C     0.26700   0.61962   0.27735   0.00000  Uiso   1.00
C100   C     0.23096   0.64861   0.23358   0.00000  Uiso   1.00
C101   C     0.18096   0.65965   0.15661   0.00000  Uiso   1.00
C102   C     0.39273   0.74497   0.37300   0.00000  Uiso   1.00
C103   C     0.50133   0.72544   0.38872   0.00000  Uiso   1.00
C104   C     0.57246   0.80283   0.39589   0.00000  Uiso   1.00
C105   C     0.72009   0.90312   0.41287   0.00000  Uiso   1.00
C106   C     0.23445   0.84335   0.34762   0.00000  Uiso   1.00
C107   C     0.16344   0.79265   0.38438   0.00000  Uiso   1.00
C108   C     0.07210   0.83155   0.40807   0.00000  Uiso   1.00
C109   C     0.01825   0.77357   0.44036   0.00000  Uiso   1.00
C110   C     0.22918   0.78098   0.30421   0.00000  Uiso   1.00
C111   C     0.19313   0.81007   0.26048   0.00000  Uiso   1.00
C112   C     0.19463   0.74227   0.22529   0.00000  Uiso   1.00
C113   C     0.35647   0.83847   0.36472   0.00000  Uiso   1.00
C114   C     0.42745   0.91590   0.37186   0.00000  Uiso   1.00
C115   C     0.53613   0.89649   0.38759   0.00000  Uiso   1.00
H116   H     0.32945   0.59842   0.36931   0.00000  Uiso   1.00
H117   H     0.17406   0.56874   0.43132   0.00000  Uiso   1.00
H118   H     0.29508   0.54727   0.28376   0.00000  Uiso   1.00
H119   H     0.52936   0.65308   0.39512   0.00000  Uiso   1.00
H120   H     0.98576   0.57706   0.49641   0.00000  Uiso   1.00
H121   H     0.24098   0.53180   0.18527   0.00000  Uiso   1.00
H122   H     0.73501   0.75491   0.42010   0.00000  Uiso   1.00
H123   H     0.20621   0.91615   0.34118   0.00000  Uiso   1.00
H124   H     0.04406   0.90391   0.40165   0.00000  Uiso   1.00
H125   H     0.16508   0.88244   0.25409   0.00000  Uiso   1.00
H126   H     0.39936   0.98824   0.36545   0.00000  Uiso   1.00
H127   H     0.88024   0.84909   0.47233   0.00000  Uiso   1.00
H128   H     0.13547   0.80383   0.16119   0.00000  Uiso   1.00
H129   H     0.62949   0.02694   0.39601   0.00000  Uiso   1.00
O130   O     0.82853   0.69928   0.52465   0.00000  Uiso   1.00
O131   O     0.16339   0.63990   0.11644   0.00000  Uiso   1.00
O132   O     0.81154   0.93262   0.42453   0.00000  Uiso   1.00
N133   N     0.98320   0.64277   0.48245   0.00000  Uiso   1.00
N134   N     0.22179   0.60045   0.19156   0.00000  Uiso   1.00
N135   N     0.68368   0.80904   0.41108   0.00000  Uiso   1.00
N136   N     0.92642   0.78915   0.46949   0.00000  Uiso   1.00
N137   N     0.16501   0.74683   0.17860   0.00000  Uiso   1.00
N138   N     0.62690   0.95542   0.39813   0.00000  Uiso   1.00
C139   C     0.19878   0.82879   0.86287   0.00000  Uiso   1.00
C140   C     0.30029   0.80085   0.89266   0.00000  Uiso   1.00
C141   C     0.35402   0.85890   0.92493   0.00000  Uiso   1.00
C142   C     0.44542   0.82010   0.94865   0.00000  Uiso   1.00
C143   C     0.59756   0.79096   0.99616   0.00000  Uiso   1.00
C144   C     0.23455   0.81252   0.81249   0.00000  Uiso   1.00
C145   C     0.23300   0.88038   0.77735   0.00000  Uiso   1.00
C146   C     0.26904   0.85139   0.73358   0.00000  Uiso   1.00
C147   C     0.31904   0.84035   0.65661   0.00000  Uiso   1.00
C148   C     0.10727   0.75503   0.87300   0.00000  Uiso   1.00
C149   C     0.99867   0.77456   0.88872   0.00000  Uiso   1.00
C150   C     0.92754   0.69717   0.89589   0.00000  Uiso   1.00
C151   C     0.77991   0.59688   0.91287   0.00000  Uiso   1.00
C152   C     0.26555   0.65665   0.84762   0.00000  Uiso   1.00
C153   C     0.33656   0.70735   0.88438   0.00000  Uiso   1.00
C154   C     0.42790   0.66845   0.90807   0.00000  Uiso   1.00
C155   C     0.48175   0.72643   0.94036   0.00000  Uiso   1.00
C156   C     0.27082   0.71902   0.80421   0.00000  Uiso   1.00
C157   C     0.30687   0.68993   0.76048   0.00000  Uiso   1.00
C158   C     0.30537   0.75773   0.72529   0.00000  Uiso   1.00
C159   C     0.14353   0.66153   0.86472   0.00000  Uiso   1.00
C160   C     0.07255   0.58410   0.87186   0.00000  Uiso   1.00
C161   C     0.96387   0.60351   0.88759   0.00000  Uiso   1.00
H162   H     0.17055   0.90158   0.86931   0.00000  Uiso   1.00
H163   H     0.32594   0.93126   0.93132   0.00000  Uiso   1.00
H164   H     0.20492   0.95273   0.78376   0.00000  Uiso   1.00
H165   H     0.97064   0.84692   0.89512   0.00000  Uiso   1.00
H166   H     0.51424   0.92294   0.99641   0.00000  Uiso   1.00
H167   H     0.25902   0.96820   0.68527   0.00000  Uiso   1.00
H168   H     0.76499   0.74509   0.92010   0.00000  Uiso   1.00
H169   H     0.29379   0.58385   0.84118   0.00000  Uiso   1.00
H170   H     0.45594   0.59609   0.90165   0.00000  Uiso   1.00
H171   H     0.33492   0.61756   0.75409   0.00000  Uiso   1.00
H172   H     0.10064   0.51176   0.86545   0.00000  Uiso   1.00
H173   H     0.61976   0.65091   0.97233   0.00000  Uiso   1.00
H174   H     0.36453   0.69617   0.66119   0.00000  Uiso   1.00
H175   H     0.87051   0.47306   0.89601   0.00000  Uiso   1.00
O176   O     0.67147   0.80072   0.02465   0.00000  Uiso   1.00
O177   O     0.33661   0.86010   0.61644   0.00000  Uiso   1.00
O178   O     0.68846   0.56738   0.92453   0.00000  Uiso   1.00
N179   N     0.51680   0.85723   0.98245   0.00000  Uiso   1.00
N180   N     0.27821   0.89955   0.69156   0.00000  Uiso   1.00
N181   N     0.81632   0.69096   0.91108   0.00000  Uiso   1.00
N182   N     0.57358   0.71085   0.96949   0.00000  Uiso   1.00
N183   N     0.33499   0.75317   0.67860   0.00000  Uiso   1.00
N184   N     0.87310   0.54458   0.89813   0.00000  Uiso   1.00
C185   C     0.30122   0.32879   0.86287   0.00000  Uiso   1.00
C186   C     0.19971   0.30085   0.89266   0.00000  Uiso   1.00
C187   C     0.14598   0.35890   0.92493   0.00000  Uiso   1.00
C188   C     0.05458   0.32010   0.94865   0.00000  Uiso   1.00
C189   C     0.90244   0.29096   0.99616   0.00000  Uiso   1.00
C190   C     0.26545   0.31252   0.81249   0.00000  Uiso   1.00
C191   C     0.26700   0.38038   0.77735   0.00000  Uiso   1.00
C192   C     0.23096   0.35139   0.73358   0.00000  Uiso   1.00
C193   C     0.18096   0.34035   0.65661   0.00000  Uiso   1.00
C194   C     0.39273   0.25503   0.87300   0.00000  Uiso   1.00
C195   C     0.50133   0.27456   0.88872   0.00000  Uiso   1.00
C196   C     0.57246   0.19717   0.89589   0.00000  Uiso   1.00
C197   C     0.72009   0.09688   0.91287   0.00000  Uiso   1.00
C198   C     0.23445   0.15665   0.84762   0.00000  Uiso   1.00
C199   C     0.16344   0.20735   0.88438   0.00000  Uiso   1.00
C200   C     0.07210   0.16845   0.90807   0.00000  Uiso   1.00
C201   C     0.01825   0.22643   0.94036   0.00000  Uiso   1.00
C202   C     0.22918   0.21902   0.80421   0.00000  Uiso   1.00
C203   C     0.19313   0.18993   0.76048   0.00000  Uiso   1.00
C204   C     0.19463   0.25773   0.72529   0.00000  Uiso   1.00
C205   C     0.35647   0.16153   0.86472   0.00000  Uiso   1.00
C206   C     0.42745   0.08410   0.87186   0.00000  Uiso   1.00
C207   C     0.53613   0.10351   0.88759   0.00000  Uiso   1.00
H208   H     0.32945   0.40158   0.86931   0.00000  Uiso   1.00
H209   H     0.17406   0.43126   0.93132   0.00000  Uiso   1.00
H210   H     0.29508   0.45273   0.78376   0.00000  Uiso   1.00
H211   H     0.52936   0.34692   0.89512   0.00000  Uiso   1.00
H212   H     0.98576   0.42294   0.99641   0.00000  Uiso   1.00
H213   H     0.24098   0.46820   0.68527   0.00000  Uiso   1.00
H214   H     0.73501   0.24509   0.92010   0.00000  Uiso   1.00
H215   H     0.20621   0.08385   0.84118   0.00000  Uiso   1.00
H216   H     0.04406   0.09609   0.90165   0.00000  Uiso   1.00
H217   H     0.16508   0.11756   0.75409   0.00000  Uiso   1.00
H218   H     0.39936   0.01176   0.86545   0.00000  Uiso   1.00
H219   H     0.88024   0.15091   0.97233   0.00000  Uiso   1.00
H220   H     0.13547   0.19617   0.66119   0.00000  Uiso   1.00
H221   H     0.62949   0.97306   0.89601   0.00000  Uiso   1.00
O222   O     0.82853   0.30072   0.02465   0.00000  Uiso   1.00
O223   O     0.16339   0.36010   0.61644   0.00000  Uiso   1.00
O224   O     0.81154   0.06738   0.92453   0.00000  Uiso   1.00
N225   N     0.98320   0.35723   0.98245   0.00000  Uiso   1.00
N226   N     0.22179   0.39955   0.69156   0.00000  Uiso   1.00
N227   N     0.68368   0.19096   0.91108   0.00000  Uiso   1.00
N228   N     0.92642   0.21085   0.96949   0.00000  Uiso   1.00
N229   N     0.16501   0.25317   0.67860   0.00000  Uiso   1.00
N230   N     0.62690   0.04458   0.89813   0.00000  Uiso   1.00
C231   C     0.19878   0.17121   0.36287   0.00000  Uiso   1.00
C232   C     0.30029   0.19915   0.39266   0.00000  Uiso   1.00
C233   C     0.35402   0.14110   0.42493   0.00000  Uiso   1.00
C234   C     0.44542   0.17990   0.44865   0.00000  Uiso   1.00
C235   C     0.59756   0.20904   0.49616   0.00000  Uiso   1.00
C236   C     0.23455   0.18748   0.31249   0.00000  Uiso   1.00
C237   C     0.23300   0.11962   0.27735   0.00000  Uiso   1.00
C238   C     0.26904   0.14861   0.23358   0.00000  Uiso   1.00
C239   C     0.31904   0.15965   0.15661   0.00000  Uiso   1.00
C240   C     0.10727   0.24497   0.37300   0.00000  Uiso   1.00
C241   C     0.99867   0.22544   0.38872   0.00000  Uiso   1.00
C242   C     0.92754   0.30283   0.39589   0.00000  Uiso   1.00
C243   C     0.77991   0.40312   0.41287   0.00000  Uiso   1.00
C244   C     0.26555   0.34335   0.34762   0.00000  Uiso   1.00
C245   C     0.33656   0.29265   0.38438   0.00000  Uiso   1.00
C246   C     0.42790   0.33155   0.40807   0.00000  Uiso   1.00
C247   C     0.48175   0.27357   0.44036   0.00000  Uiso   1.00
C248   C     0.27082   0.28098   0.30421   0.00000  Uiso   1.00
C249   C     0.30687   0.31007   0.26048   0.00000  Uiso   1.00
C250   C     0.30537   0.24227   0.22529   0.00000  Uiso   1.00
C251   C     0.14353   0.33847   0.36472   0.00000  Uiso   1.00
C252   C     0.07255   0.41590   0.37186   0.00000  Uiso   1.00
C253   C     0.96387   0.39649   0.38759   0.00000  Uiso   1.00
H254   H     0.17055   0.09842   0.36931   0.00000  Uiso   1.00
H255   H     0.32594   0.06874   0.43132   0.00000  Uiso   1.00
H256   H     0.20492   0.04727   0.28376   0.00000  Uiso   1.00
H257   H     0.97064   0.15308   0.39512   0.00000  Uiso   1.00
H258   H     0.51424   0.07706   0.49641   0.00000  Uiso   1.00
H259   H     0.25902   0.03180   0.18527   0.00000  Uiso   1.00
H260   H     0.76499   0.25491   0.42010   0.00000  Uiso   1.00
H261   H     0.29379   0.41615   0.34118   0.00000  Uiso   1.00
H262   H     0.45594   0.40391   0.40165   0.00000  Uiso   1.00
H263   H     0.33492   0.38244   0.25409   0.00000  Uiso   1.00
H264   H     0.10064   0.48824   0.36545   0.00000  Uiso   1.00
H265   H     0.61976   0.34909   0.47233   0.00000  Uiso   1.00
H266   H     0.36453   0.30383   0.16119   0.00000  Uiso   1.00
H267   H     0.87051   0.52694   0.39601   0.00000  Uiso   1.00
O268   O     0.67147   0.19928   0.52465   0.00000  Uiso   1.00
O269   O     0.33661   0.13990   0.11644   0.00000  Uiso   1.00
O270   O     0.68846   0.43262   0.42453   0.00000  Uiso   1.00
N271   N     0.51680   0.14277   0.48245   0.00000  Uiso   1.00
N272   N     0.27821   0.10045   0.19156   0.00000  Uiso   1.00
N273   N     0.81632   0.30904   0.41108   0.00000  Uiso   1.00
N274   N     0.57358   0.28915   0.46949   0.00000  Uiso   1.00
N275   N     0.33499   0.24683   0.17860   0.00000  Uiso   1.00
N276   N     0.87310   0.45542   0.39813   0.00000  Uiso   1.00
C277   C     0.69878   0.32879   0.63713   0.00000  Uiso   1.00
C278   C     0.80029   0.30085   0.60734   0.00000  Uiso   1.00
C279   C     0.85402   0.35890   0.57507   0.00000  Uiso   1.00
C280   C     0.94542   0.32010   0.55135   0.00000  Uiso   1.00
C281   C     0.09756   0.29096   0.50384   0.00000  Uiso   1.00
C282   C     0.73455   0.31252   0.68751   0.00000  Uiso   1.00
C283   C     0.73300   0.38038   0.72265   0.00000  Uiso   1.00
C284   C     0.76904   0.35139   0.76642   0.00000  Uiso   1.00
C285   C     0.81904   0.34035   0.84339   0.00000  Uiso   1.00
C286   C     0.60727   0.25503   0.62700   0.00000  Uiso   1.00
C287   C     0.49867   0.27456   0.61128   0.00000  Uiso   1.00
C288   C     0.42754   0.19717   0.60411   0.00000  Uiso   1.00
C289   C     0.27991   0.09688   0.58713   0.00000  Uiso   1.00
C290   C     0.76555   0.15665   0.65238   0.00000  Uiso   1.00
C291   C     0.83656   0.20735   0.61562   0.00000  Uiso   1.00
C292   C     0.92790   0.16845   0.59193   0.00000  Uiso   1.00
C293   C     0.98175   0.22643   0.55964   0.00000  Uiso   1.00
C294   C     0.77082   0.21902   0.69579   0.00000  Uiso   1.00
C295   C     0.80687   0.18993   0.73952   0.00000  Uiso   1.00
C296   C     0.80537   0.25773   0.77471   0.00000  Uiso   1.00
C297   C     0.64353   0.16153   0.63528   0.00000  Uiso   1.00
C298   C     0.57255   0.08410   0.62814   0.00000  Uiso   1.00
C299   C     0.46387   0.10351   0.61241   0.00000  Uiso   1.00
H300   H     0.67055   0.40158   0.63069   0.00000  Uiso   1.00
H301   H     0.82594   0.43126   0.56868   0.00000  Uiso   1.00
H302   H     0.70492   0.45273   0.71624   0.00000  Uiso   1.00
H303   H     0.47064   0.34692   0.60488   0.00000  Uiso   1.00
H304   H     0.01424   0.42294   0.50359   0.00000  Uiso   1.00
H305   H     0.75902   0.46820   0.81473   0.00000  Uiso   1.00
H306   H     0.26499   0.24509   0.57990   0.00000  Uiso   1.00
H307   H     0.79379   0.08385   0.65882   0.00000  Uiso   1.00
H308   H     0.95594   0.09609   0.59835   0.00000  Uiso   1.00
H309   H     0.83492   0.11756   0.74591   0.00000  Uiso   1.00
H310   H     0.60064   0.01176   0.63455   0.00000  Uiso   1.00
H311   H     0.11976   0.15091   0.52767   0.00000  Uiso   1.00
H312   H     0.86453   0.19617   0.83881   0.00000  Uiso   1.00
H313   H     0.37051   0.97306   0.60399   0.00000  Uiso   1.00
O314   O     0.17147   0.30072   0.47535   0.00000  Uiso   1.00
O315   O     0.83661   0.36010   0.88356   0.00000  Uiso   1.00
O316   O     0.18846   0.06738   0.57547   0.00000  Uiso   1.00
N317   N     0.01680   0.35723   0.51755   0.00000  Uiso   1.00
N318   N     0.77821   0.39955   0.80844   0.00000  Uiso   1.00
N319   N     0.31632   0.19096   0.58892   0.00000  Uiso   1.00
N320   N     0.07358   0.21085   0.53051   0.00000  Uiso   1.00
N321   N     0.83499   0.25317   0.82140   0.00000  Uiso   1.00
N322   N     0.37310   0.04458   0.60187   0.00000  Uiso   1.00
C323   C     0.80122   0.17121   0.13713   0.00000  Uiso   1.00
C324   C     0.69971   0.19915   0.10734   0.00000  Uiso   1.00
C325   C     0.64598   0.14110   0.07507   0.00000  Uiso   1.00
C326   C     0.55458   0.17990   0.05135   0.00000  Uiso   1.00
C327   C     0.40244   0.20904   0.00384   0.00000  Uiso   1.00
C328   C     0.76545   0.18748   0.18751   0.00000  Uiso   1.00
C329   C     0.76700   0.11962   0.22265   0.00000  Uiso   1.00
C330   C     0.73096   0.14861   0.26642   0.00000  Uiso   1.00
C331   C     0.68096   0.15965   0.34339   0.00000  Uiso   1.00
C332   C     0.89273   0.24497   0.12700   0.00000  Uiso   1.00
C333   C     0.00133   0.22544   0.11128   0.00000  Uiso   1.00
C334   C     0.07246   0.30283   0.10411   0.00000  Uiso   1.00
C335   C     0.22009   0.40312   0.08713   0.00000  Uiso   1.00
C336   C     0.73445   0.34335   0.15238   0.00000  Uiso   1.00
C337   C     0.66344   0.29265   0.11562   0.00000  Uiso   1.00
C338   C     0.57210   0.33155   0.09193   0.00000  Uiso   1.00
C339   C     0.51825   0.27357   0.05964   0.00000  Uiso   1.00
C340   C     0.72918   0.28098   0.19579   0.00000  Uiso   1.00
C341   C     0.69313   0.31007   0.23952   0.00000  Uiso   1.00
C342   C     0.69463   0.24227   0.27471   0.00000  Uiso   1.00
C343   C     0.85647   0.33847   0.13528   0.00000  Uiso   1.00
C344   C     0.92745   0.41590   0.12814   0.00000  Uiso   1.00
C345   C     0.03613   0.39649   0.11241   0.00000  Uiso   1.00
H346   H     0.82945   0.09842   0.13069   0.00000  Uiso   1.00
H347   H     0.67406   0.06874   0.06868   0.00000  Uiso   1.00
H348   H     0.79508   0.04727   0.21624   0.00000  Uiso   1.00
H349   H     0.02936   0.15308   0.10488   0.00000  Uiso   1.00
H350   H     0.48576   0.07706   0.00359   0.00000  Uiso   1.00
H351   H     0.74098   0.03180   0.31473   0.00000  Uiso   1.00
H352   H     0.23501   0.25491   0.07990   0.00000  Uiso   1.00
H353   H     0.70621   0.41615   0.15882   0.00000  Uiso   1.00
H354   H     0.54406   0.40391   0.09835   0.00000  Uiso   1.00
H355   H     0.66508   0.38244   0.24591   0.00000  Uiso   1.00
H356   H     0.89936   0.48824   0.13455   0.00000  Uiso   1.00
H357   H     0.38024   0.34909   0.02767   0.00000  Uiso   1.00
H358   H     0.63547   0.30383   0.33881   0.00000  Uiso   1.00
H359   H     0.12949   0.52694   0.10399   0.00000  Uiso   1.00
O360   O     0.32853   0.19928   0.97535   0.00000  Uiso   1.00
O361   O     0.66339   0.13990   0.38356   0.00000  Uiso   1.00
O362   O     0.31154   0.43262   0.07547   0.00000  Uiso   1.00
N363   N     0.48320   0.14277   0.01755   0.00000  Uiso   1.00
N364   N     0.72179   0.10045   0.30844   0.00000  Uiso   1.00
N365   N     0.18368   0.30904   0.08892   0.00000  Uiso   1.00
N366   N     0.42642   0.28915   0.03051   0.00000  Uiso   1.00
N367   N     0.66501   0.24683   0.32140   0.00000  Uiso   1.00
N368   N     0.12690   0.45542   0.10187   0.00000  Uiso   1.00
