data_job_05886
_audit_creation_date              2018-12-19
_audit_creation_method            'Materials Studio'
_symmetry_space_group_name_H-M    'P1'
_symmetry_Int_Tables_number       1
_symmetry_cell_setting            triclinic
loop_
_symmetry_equiv_pos_as_xyz
  x,y,z
_cell_length_a                    24.2752
_cell_length_b                    12.3537
_cell_length_c                    23.7935
_cell_angle_alpha                 90.0000
_cell_angle_beta                  144.1790
_cell_angle_gamma                 90.0000
loop_
_atom_site_label
_atom_site_type_symbol
_atom_site_fract_x
_atom_site_fract_y
_atom_site_fract_z
_atom_site_U_iso_or_equiv
_atom_site_adp_type
_atom_site_occupancy
C1     C     0.18455   0.63394   0.27446   0.00000  Uiso   1.00
C2     C     0.19064   0.55733   0.22938   0.00000  Uiso   1.00
C3     C     0.13670   0.46490   0.17695   0.00000  Uiso   1.00
C4     C     0.15291   0.40565   0.14173   0.00000  Uiso   1.00
C5     C     0.15210   0.28178   0.06923   0.00000  Uiso   1.00
C6     C     0.28343   0.63911   0.38105   0.00000  Uiso   1.00
C7     C     0.30750   0.61544   0.45614   0.00000  Uiso   1.00
C8     C     0.40182   0.62504   0.54860   0.00000  Uiso   1.00
C9     C     0.54505   0.62821   0.71158   0.00000  Uiso   1.00
C10    C     0.16505   0.74591   0.23400   0.00000  Uiso   1.00
C11    C     0.08960   0.81206   0.18548   0.00000  Uiso   1.00
C12    C     0.08427   0.91159   0.15415   0.00000  Uiso   1.00
C13    C     0.04370   0.08058   0.08881   0.00000  Uiso   1.00
C14    C     0.30927   0.69310   0.30516   0.00000  Uiso   1.00
C15    C     0.25839   0.58947   0.24605   0.00000  Uiso   1.00
C16    C     0.27468   0.53035   0.21090   0.00000  Uiso   1.00
C17    C     0.22077   0.43784   0.15842   0.00000  Uiso   1.00
C18    C     0.35117   0.67124   0.39772   0.00000  Uiso   1.00
C19    C     0.44548   0.68089   0.49010   0.00000  Uiso   1.00
C20    C     0.46969   0.65724   0.56531   0.00000  Uiso   1.00
C21    C     0.23279   0.77804   0.25067   0.00000  Uiso   1.00
C22    C     0.22758   0.87750   0.21943   0.00000  Uiso   1.00
C23    C     0.15214   0.94379   0.17085   0.00000  Uiso   1.00
H24    H     0.13182   0.60892   0.26149   0.00000  Uiso   1.00
H25    H     0.08429   0.44005   0.16407   0.00000  Uiso   1.00
H26    H     0.25506   0.59058   0.44322   0.00000  Uiso   1.00
H27    H     0.03720   0.78716   0.17259   0.00000  Uiso   1.00
H28    H     0.06149   0.26697   0.06344   0.00000  Uiso   1.00
H29    H     0.42157   0.58441   0.65204   0.00000  Uiso   1.00
H30    H     0.96216   0.99895   0.08137   0.00000  Uiso   1.00
H31    H     0.36201   0.71812   0.31814   0.00000  Uiso   1.00
H32    H     0.32711   0.55524   0.22381   0.00000  Uiso   1.00
H33    H     0.49788   0.70577   0.50297   0.00000  Uiso   1.00
H34    H     0.28002   0.90234   0.23234   0.00000  Uiso   1.00
H35    H     0.25858   0.36046   0.11193   0.00000  Uiso   1.00
H36    H     0.61865   0.67790   0.70054   0.00000  Uiso   1.00
H37    H     0.15924   0.09243   0.12987   0.00000  Uiso   1.00
O38    O     0.13295   0.20458   0.02464   0.00000  Uiso   1.00
O39    O     0.60534   0.62107   0.79687   0.00000  Uiso   1.00
O40    O     0.00261   0.16491   0.04816   0.00000  Uiso   1.00
N41    N     0.11265   0.31134   0.08778   0.00000  Uiso   1.00
N42    N     0.44930   0.60811   0.63809   0.00000  Uiso   1.00
N43    N     0.01981   0.99568   0.10458   0.00000  Uiso   1.00
N44    N     0.21870   0.36164   0.11387   0.00000  Uiso   1.00
N45    N     0.55535   0.65842   0.66418   0.00000  Uiso   1.00
N46    N     0.12586   0.04598   0.13067   0.00000  Uiso   1.00
C47    C     0.81545   0.63394   0.22554   0.00000  Uiso   1.00
C48    C     0.80936   0.55733   0.27062   0.00000  Uiso   1.00
C49    C     0.86330   0.46490   0.32305   0.00000  Uiso   1.00
C50    C     0.84709   0.40565   0.35827   0.00000  Uiso   1.00
C51    C     0.84790   0.28178   0.43077   0.00000  Uiso   1.00
C52    C     0.71657   0.63911   0.11895   0.00000  Uiso   1.00
C53    C     0.69250   0.61544   0.04386   0.00000  Uiso   1.00
C54    C     0.59818   0.62504   0.95140   0.00000  Uiso   1.00
C55    C     0.45495   0.62821   0.78842   0.00000  Uiso   1.00
C56    C     0.83495   0.74591   0.26600   0.00000  Uiso   1.00
C57    C     0.91040   0.81206   0.31452   0.00000  Uiso   1.00
C58    C     0.91573   0.91159   0.34585   0.00000  Uiso   1.00
C59    C     0.95630   0.08058   0.41119   0.00000  Uiso   1.00
C60    C     0.69073   0.69310   0.19484   0.00000  Uiso   1.00
C61    C     0.74161   0.58947   0.25395   0.00000  Uiso   1.00
C62    C     0.72532   0.53035   0.28910   0.00000  Uiso   1.00
C63    C     0.77923   0.43784   0.34158   0.00000  Uiso   1.00
C64    C     0.64883   0.67124   0.10228   0.00000  Uiso   1.00
C65    C     0.55452   0.68089   0.00990   0.00000  Uiso   1.00
C66    C     0.53031   0.65724   0.93469   0.00000  Uiso   1.00
C67    C     0.76721   0.77804   0.24933   0.00000  Uiso   1.00
C68    C     0.77242   0.87750   0.28057   0.00000  Uiso   1.00
C69    C     0.84786   0.94379   0.32915   0.00000  Uiso   1.00
H70    H     0.86818   0.60892   0.23851   0.00000  Uiso   1.00
H71    H     0.91571   0.44005   0.33593   0.00000  Uiso   1.00
H72    H     0.74494   0.59058   0.05678   0.00000  Uiso   1.00
H73    H     0.96280   0.78716   0.32741   0.00000  Uiso   1.00
H74    H     0.93851   0.26697   0.43656   0.00000  Uiso   1.00
H75    H     0.57843   0.58441   0.84796   0.00000  Uiso   1.00
H76    H     0.03784   0.99895   0.41863   0.00000  Uiso   1.00
H77    H     0.63799   0.71812   0.18186   0.00000  Uiso   1.00
H78    H     0.67289   0.55524   0.27619   0.00000  Uiso   1.00
H79    H     0.50212   0.70577   0.99703   0.00000  Uiso   1.00
H80    H     0.71998   0.90234   0.26766   0.00000  Uiso   1.00
H81    H     0.74142   0.36046   0.38807   0.00000  Uiso   1.00
H82    H     0.38135   0.67790   0.79946   0.00000  Uiso   1.00
H83    H     0.84076   0.09243   0.37013   0.00000  Uiso   1.00
O84    O     0.86705   0.20458   0.47536   0.00000  Uiso   1.00
O85    O     0.39466   0.62107   0.70313   0.00000  Uiso   1.00
O86    O     0.99739   0.16491   0.45184   0.00000  Uiso   1.00
N87    N     0.88735   0.31134   0.41222   0.00000  Uiso   1.00
N88    N     0.55070   0.60811   0.86191   0.00000  Uiso   1.00
N89    N     0.98019   0.99568   0.39542   0.00000  Uiso   1.00
N90    N     0.78130   0.36164   0.38613   0.00000  Uiso   1.00
N91    N     0.44465   0.65842   0.83582   0.00000  Uiso   1.00
N92    N     0.87414   0.04598   0.36933   0.00000  Uiso   1.00
C93    C     0.81545   0.36606   0.72554   0.00000  Uiso   1.00
C94    C     0.80936   0.44267   0.77062   0.00000  Uiso   1.00
C95    C     0.86330   0.53510   0.82305   0.00000  Uiso   1.00
C96    C     0.84709   0.59435   0.85827   0.00000  Uiso   1.00
C97    C     0.84790   0.71822   0.93077   0.00000  Uiso   1.00
C98    C     0.71657   0.36089   0.61895   0.00000  Uiso   1.00
C99    C     0.69250   0.38456   0.54386   0.00000  Uiso   1.00
C100   C     0.59818   0.37496   0.45140   0.00000  Uiso   1.00
C101   C     0.45495   0.37179   0.28842   0.00000  Uiso   1.00
C102   C     0.83495   0.25409   0.76600   0.00000  Uiso   1.00
C103   C     0.91040   0.18794   0.81452   0.00000  Uiso   1.00
C104   C     0.91573   0.08841   0.84585   0.00000  Uiso   1.00
C105   C     0.95630   0.91942   0.91119   0.00000  Uiso   1.00
C106   C     0.69073   0.30690   0.69484   0.00000  Uiso   1.00
C107   C     0.74161   0.41053   0.75395   0.00000  Uiso   1.00
C108   C     0.72532   0.46965   0.78910   0.00000  Uiso   1.00
C109   C     0.77923   0.56216   0.84158   0.00000  Uiso   1.00
C110   C     0.64883   0.32876   0.60228   0.00000  Uiso   1.00
C111   C     0.55452   0.31911   0.50990   0.00000  Uiso   1.00
C112   C     0.53031   0.34276   0.43469   0.00000  Uiso   1.00
C113   C     0.76721   0.22196   0.74933   0.00000  Uiso   1.00
C114   C     0.77242   0.12250   0.78057   0.00000  Uiso   1.00
C115   C     0.84786   0.05621   0.82915   0.00000  Uiso   1.00
H116   H     0.86818   0.39108   0.73851   0.00000  Uiso   1.00
H117   H     0.91571   0.55995   0.83593   0.00000  Uiso   1.00
H118   H     0.74494   0.40942   0.55678   0.00000  Uiso   1.00
H119   H     0.96280   0.21284   0.82741   0.00000  Uiso   1.00
H120   H     0.93851   0.73303   0.93656   0.00000  Uiso   1.00
H121   H     0.57843   0.41559   0.34796   0.00000  Uiso   1.00
H122   H     0.03784   0.00105   0.91863   0.00000  Uiso   1.00
H123   H     0.63799   0.28188   0.68186   0.00000  Uiso   1.00
H124   H     0.67289   0.44476   0.77619   0.00000  Uiso   1.00
H125   H     0.50212   0.29423   0.49703   0.00000  Uiso   1.00
H126   H     0.71998   0.09766   0.76766   0.00000  Uiso   1.00
H127   H     0.74142   0.63954   0.88807   0.00000  Uiso   1.00
H128   H     0.38135   0.32210   0.29946   0.00000  Uiso   1.00
H129   H     0.84076   0.90757   0.87013   0.00000  Uiso   1.00
O130   O     0.86705   0.79542   0.97536   0.00000  Uiso   1.00
O131   O     0.39466   0.37893   0.20313   0.00000  Uiso   1.00
O132   O     0.99739   0.83509   0.95184   0.00000  Uiso   1.00
N133   N     0.88735   0.68866   0.91222   0.00000  Uiso   1.00
N134   N     0.55070   0.39189   0.36191   0.00000  Uiso   1.00
N135   N     0.98019   0.00432   0.89542   0.00000  Uiso   1.00
N136   N     0.78130   0.63836   0.88613   0.00000  Uiso   1.00
N137   N     0.44465   0.34158   0.33582   0.00000  Uiso   1.00
N138   N     0.87414   0.95402   0.86933   0.00000  Uiso   1.00
C139   C     0.18455   0.36606   0.77446   0.00000  Uiso   1.00
C140   C     0.19064   0.44267   0.72938   0.00000  Uiso   1.00
C141   C     0.13670   0.53510   0.67695   0.00000  Uiso   1.00
C142   C     0.15291   0.59435   0.64173   0.00000  Uiso   1.00
C143   C     0.15210   0.71822   0.56923   0.00000  Uiso   1.00
C144   C     0.28343   0.36089   0.88105   0.00000  Uiso   1.00
C145   C     0.30750   0.38456   0.95614   0.00000  Uiso   1.00
C146   C     0.40182   0.37496   0.04860   0.00000  Uiso   1.00
C147   C     0.54505   0.37179   0.21158   0.00000  Uiso   1.00
C148   C     0.16505   0.25409   0.73400   0.00000  Uiso   1.00
C149   C     0.08960   0.18794   0.68548   0.00000  Uiso   1.00
C150   C     0.08427   0.08841   0.65415   0.00000  Uiso   1.00
C151   C     0.04370   0.91942   0.58881   0.00000  Uiso   1.00
C152   C     0.30927   0.30690   0.80516   0.00000  Uiso   1.00
C153   C     0.25839   0.41053   0.74605   0.00000  Uiso   1.00
C154   C     0.27468   0.46965   0.71090   0.00000  Uiso   1.00
C155   C     0.22077   0.56216   0.65842   0.00000  Uiso   1.00
C156   C     0.35117   0.32876   0.89772   0.00000  Uiso   1.00
C157   C     0.44548   0.31911   0.99010   0.00000  Uiso   1.00
C158   C     0.46969   0.34276   0.06531   0.00000  Uiso   1.00
C159   C     0.23279   0.22196   0.75067   0.00000  Uiso   1.00
C160   C     0.22758   0.12250   0.71943   0.00000  Uiso   1.00
C161   C     0.15214   0.05621   0.67085   0.00000  Uiso   1.00
H162   H     0.13182   0.39108   0.76149   0.00000  Uiso   1.00
H163   H     0.08429   0.55995   0.66407   0.00000  Uiso   1.00
H164   H     0.25506   0.40942   0.94322   0.00000  Uiso   1.00
H165   H     0.03720   0.21284   0.67259   0.00000  Uiso   1.00
H166   H     0.06149   0.73303   0.56344   0.00000  Uiso   1.00
H167   H     0.42157   0.41559   0.15204   0.00000  Uiso   1.00
H168   H     0.96216   0.00105   0.58137   0.00000  Uiso   1.00
H169   H     0.36201   0.28188   0.81814   0.00000  Uiso   1.00
H170   H     0.32711   0.44476   0.72381   0.00000  Uiso   1.00
H171   H     0.49788   0.29423   0.00297   0.00000  Uiso   1.00
H172   H     0.28002   0.09766   0.73234   0.00000  Uiso   1.00
H173   H     0.25858   0.63954   0.61193   0.00000  Uiso   1.00
H174   H     0.61865   0.32210   0.20054   0.00000  Uiso   1.00
H175   H     0.15924   0.90757   0.62987   0.00000  Uiso   1.00
O176   O     0.13295   0.79542   0.52464   0.00000  Uiso   1.00
O177   O     0.60534   0.37893   0.29687   0.00000  Uiso   1.00
O178   O     0.00261   0.83509   0.54816   0.00000  Uiso   1.00
N179   N     0.11265   0.68866   0.58778   0.00000  Uiso   1.00
N180   N     0.44930   0.39189   0.13809   0.00000  Uiso   1.00
N181   N     0.01981   0.00432   0.60458   0.00000  Uiso   1.00
N182   N     0.21870   0.63836   0.61387   0.00000  Uiso   1.00
N183   N     0.55535   0.34158   0.16418   0.00000  Uiso   1.00
N184   N     0.12586   0.95402   0.63067   0.00000  Uiso   1.00
