data_job_05832
_audit_creation_date              2018-12-19
_audit_creation_method            'Materials Studio'
_symmetry_space_group_name_H-M    'P1'
_symmetry_Int_Tables_number       1
_symmetry_cell_setting            triclinic
loop_
_symmetry_equiv_pos_as_xyz
  x,y,z
_cell_length_a                    35.7832
_cell_length_b                    35.7832
_cell_length_c                    7.0219
_cell_angle_alpha                 90.0000
_cell_angle_beta                  90.0000
_cell_angle_gamma                 120.0000
loop_
_atom_site_label
_atom_site_type_symbol
_atom_site_fract_x
_atom_site_fract_y
_atom_site_fract_z
_atom_site_U_iso_or_equiv
_atom_site_adp_type
_atom_site_occupancy
C1     C     0.21894   0.79076   0.97971   0.00000  Uiso   1.00
C2     C     0.23512   0.82932   0.11366   0.00000  Uiso   1.00
C3     C     0.25043   0.87181   0.05897   0.00000  Uiso   1.00
C4     C     0.26373   0.90239   0.20310   0.00000  Uiso   1.00
C5     C     0.28916   0.96403   0.38190   0.00000  Uiso   1.00
C6     C     0.24604   0.76975   0.02291   0.00000  Uiso   1.00
C7     C     0.27052   0.76214   0.89192   0.00000  Uiso   1.00
C8     C     0.29301   0.74257   0.95966   0.00000  Uiso   1.00
C9     C     0.33536   0.71170   0.99754   0.00000  Uiso   1.00
C10    C     0.17322   0.75864   0.04461   0.00000  Uiso   1.00
C11    C     0.13647   0.74169   0.93185   0.00000  Uiso   1.00
C12    C     0.09765   0.71276   0.01786   0.00000  Uiso   1.00
C13    C     0.02695   0.66464   0.08943   0.00000  Uiso   1.00
C14    C     0.21535   0.76952   0.33293   0.00000  Uiso   1.00
C15    C     0.23316   0.81779   0.30551   0.00000  Uiso   1.00
C16    C     0.24645   0.84832   0.44977   0.00000  Uiso   1.00
C17    C     0.26177   0.89084   0.39530   0.00000  Uiso   1.00
C18    C     0.24408   0.75822   0.21476   0.00000  Uiso   1.00
C19    C     0.26654   0.73865   0.28271   0.00000  Uiso   1.00
C20    C     0.29105   0.73102   0.15186   0.00000  Uiso   1.00
C21    C     0.17126   0.74711   0.23647   0.00000  Uiso   1.00
C22    C     0.13249   0.71820   0.32266   0.00000  Uiso   1.00
C23    C     0.09570   0.70120   0.21006   0.00000  Uiso   1.00
H24    H     0.22047   0.79973   0.83034   0.00000  Uiso   1.00
H25    H     0.25194   0.88072   0.91048   0.00000  Uiso   1.00
H26    H     0.27202   0.77107   0.74346   0.00000  Uiso   1.00
H27    H     0.13800   0.75062   0.78340   0.00000  Uiso   1.00
H28    H     0.28598   0.96543   0.08394   0.00000  Uiso   1.00
H29    H     0.32832   0.73421   0.73174   0.00000  Uiso   1.00
H30    H     0.04570   0.69108   0.81595   0.00000  Uiso   1.00
H31    H     0.21382   0.76054   0.48230   0.00000  Uiso   1.00
H32    H     0.24493   0.83938   0.59822   0.00000  Uiso   1.00
H33    H     0.26502   0.72973   0.43118   0.00000  Uiso   1.00
H34    H     0.13099   0.70928   0.47112   0.00000  Uiso   1.00
H35    H     0.28030   0.93187   0.64213   0.00000  Uiso   1.00
H36    H     0.32263   0.70065   0.28992   0.00000  Uiso   1.00
H37    H     0.04002   0.65753   0.37414   0.00000  Uiso   1.00
O38    O     0.30374   0.00122   0.42752   0.00000  Uiso   1.00
O39    O     0.35927   0.69786   0.96543   0.00000  Uiso   1.00
O40    O     0.98849   0.64129   0.07592   0.00000  Uiso   1.00
N41    N     0.28037   0.94671   0.19940   0.00000  Uiso   1.00
N42    N     0.31995   0.73054   0.87012   0.00000  Uiso   1.00
N43    N     0.05573   0.69021   0.94884   0.00000  Uiso   1.00
N44    N     0.27731   0.92866   0.49976   0.00000  Uiso   1.00
N45    N     0.31689   0.71248   0.17048   0.00000  Uiso   1.00
N46    N     0.05267   0.67216   0.24919   0.00000  Uiso   1.00
C47    C     0.20924   0.42819   0.64638   0.00000  Uiso   1.00
C48    C     0.17068   0.40579   0.78033   0.00000  Uiso   1.00
C49    C     0.12819   0.37862   0.72564   0.00000  Uiso   1.00
C50    C     0.09761   0.36134   0.86977   0.00000  Uiso   1.00
C51    C     0.03597   0.32513   0.04857   0.00000  Uiso   1.00
C52    C     0.23025   0.47628   0.68958   0.00000  Uiso   1.00
C53    C     0.23786   0.50837   0.55858   0.00000  Uiso   1.00
C54    C     0.25743   0.55043   0.62633   0.00000  Uiso   1.00
C55    C     0.28830   0.62366   0.66421   0.00000  Uiso   1.00
C56    C     0.24136   0.41457   0.71128   0.00000  Uiso   1.00
C57    C     0.25831   0.39478   0.59852   0.00000  Uiso   1.00
C58    C     0.28724   0.38490   0.68453   0.00000  Uiso   1.00
C59    C     0.33536   0.36231   0.75610   0.00000  Uiso   1.00
C60    C     0.23048   0.44582   0.99959   0.00000  Uiso   1.00
C61    C     0.18221   0.41538   0.97218   0.00000  Uiso   1.00
C62    C     0.15168   0.39813   0.11643   0.00000  Uiso   1.00
C63    C     0.10916   0.37093   0.06197   0.00000  Uiso   1.00
C64    C     0.24178   0.48586   0.88142   0.00000  Uiso   1.00
C65    C     0.26135   0.52788   0.94938   0.00000  Uiso   1.00
C66    C     0.26898   0.56003   0.81852   0.00000  Uiso   1.00
C67    C     0.25289   0.42415   0.90314   0.00000  Uiso   1.00
C68    C     0.28180   0.41429   0.98932   0.00000  Uiso   1.00
C69    C     0.29880   0.39449   0.87672   0.00000  Uiso   1.00
H70    H     0.20027   0.42073   0.49701   0.00000  Uiso   1.00
H71    H     0.11928   0.37122   0.57715   0.00000  Uiso   1.00
H72    H     0.22893   0.50095   0.41012   0.00000  Uiso   1.00
H73    H     0.24938   0.38738   0.45006   0.00000  Uiso   1.00
H74    H     0.03457   0.32056   0.75060   0.00000  Uiso   1.00
H75    H     0.26579   0.59411   0.39840   0.00000  Uiso   1.00
H76    H     0.30892   0.35462   0.48261   0.00000  Uiso   1.00
H77    H     0.23946   0.45328   0.14896   0.00000  Uiso   1.00
H78    H     0.16062   0.40555   0.26489   0.00000  Uiso   1.00
H79    H     0.27027   0.53529   0.09785   0.00000  Uiso   1.00
H80    H     0.29072   0.42171   0.13779   0.00000  Uiso   1.00
H81    H     0.06813   0.34842   0.30879   0.00000  Uiso   1.00
H82    H     0.29935   0.62198   0.95658   0.00000  Uiso   1.00
H83    H     0.34247   0.38249   0.04081   0.00000  Uiso   1.00
O84    O     0.99878   0.30252   0.09419   0.00000  Uiso   1.00
O85    O     0.30214   0.66141   0.63210   0.00000  Uiso   1.00
O86    O     0.35871   0.34720   0.74259   0.00000  Uiso   1.00
N87    N     0.05329   0.33366   0.86607   0.00000  Uiso   1.00
N88    N     0.26946   0.58941   0.53678   0.00000  Uiso   1.00
N89    N     0.30979   0.36552   0.61550   0.00000  Uiso   1.00
N90    N     0.07134   0.34865   0.16643   0.00000  Uiso   1.00
N91    N     0.28752   0.60441   0.83714   0.00000  Uiso   1.00
N92    N     0.32784   0.38052   0.91586   0.00000  Uiso   1.00
C93    C     0.57181   0.78106   0.31304   0.00000  Uiso   1.00
C94    C     0.59421   0.76488   0.44699   0.00000  Uiso   1.00
C95    C     0.62138   0.74957   0.39231   0.00000  Uiso   1.00
C96    C     0.63866   0.73627   0.53644   0.00000  Uiso   1.00
C97    C     0.67487   0.71084   0.71523   0.00000  Uiso   1.00
C98    C     0.52372   0.75396   0.35625   0.00000  Uiso   1.00
C99    C     0.49163   0.72948   0.22525   0.00000  Uiso   1.00
C100   C     0.44957   0.70699   0.29299   0.00000  Uiso   1.00
C101   C     0.37634   0.66464   0.33088   0.00000  Uiso   1.00
C102   C     0.58543   0.82678   0.37795   0.00000  Uiso   1.00
C103   C     0.60522   0.86353   0.26519   0.00000  Uiso   1.00
C104   C     0.61510   0.90235   0.35119   0.00000  Uiso   1.00
C105   C     0.63769   0.97305   0.42277   0.00000  Uiso   1.00
C106   C     0.55418   0.78465   0.66626   0.00000  Uiso   1.00
C107   C     0.58462   0.76684   0.63884   0.00000  Uiso   1.00
C108   C     0.60187   0.75355   0.78310   0.00000  Uiso   1.00
C109   C     0.62907   0.73823   0.72864   0.00000  Uiso   1.00
C110   C     0.51414   0.75592   0.54809   0.00000  Uiso   1.00
C111   C     0.47212   0.73346   0.61604   0.00000  Uiso   1.00
C112   C     0.43997   0.70895   0.48519   0.00000  Uiso   1.00
C113   C     0.57585   0.82874   0.56980   0.00000  Uiso   1.00
C114   C     0.58571   0.86751   0.65599   0.00000  Uiso   1.00
C115   C     0.60551   0.90430   0.54339   0.00000  Uiso   1.00
H116   H     0.57927   0.77953   0.16368   0.00000  Uiso   1.00
H117   H     0.62878   0.74806   0.24382   0.00000  Uiso   1.00
H118   H     0.49905   0.72798   0.07679   0.00000  Uiso   1.00
H119   H     0.61262   0.86200   0.11673   0.00000  Uiso   1.00
H120   H     0.67944   0.71402   0.41727   0.00000  Uiso   1.00
H121   H     0.40589   0.67168   0.06507   0.00000  Uiso   1.00
H122   H     0.64538   0.95430   0.14928   0.00000  Uiso   1.00
H123   H     0.54672   0.78618   0.81563   0.00000  Uiso   1.00
H124   H     0.59445   0.75507   0.93155   0.00000  Uiso   1.00
H125   H     0.46471   0.73498   0.76452   0.00000  Uiso   1.00
H126   H     0.57829   0.86901   0.80446   0.00000  Uiso   1.00
H127   H     0.65158   0.71970   0.97546   0.00000  Uiso   1.00
H128   H     0.37802   0.67737   0.62325   0.00000  Uiso   1.00
H129   H     0.61751   0.95998   0.70747   0.00000  Uiso   1.00
O130   O     0.69748   0.69626   0.76085   0.00000  Uiso   1.00
O131   O     0.33859   0.64073   0.29877   0.00000  Uiso   1.00
O132   O     0.65280   0.01151   0.40926   0.00000  Uiso   1.00
N133   N     0.66634   0.71963   0.53274   0.00000  Uiso   1.00
N134   N     0.41059   0.68005   0.20345   0.00000  Uiso   1.00
N135   N     0.63448   0.94427   0.28217   0.00000  Uiso   1.00
N136   N     0.65135   0.72269   0.83309   0.00000  Uiso   1.00
N137   N     0.39559   0.68311   0.50381   0.00000  Uiso   1.00
N138   N     0.61948   0.94733   0.58253   0.00000  Uiso   1.00
C139   C     0.79076   0.21894   0.02029   0.00000  Uiso   1.00
C140   C     0.82932   0.23512   0.88634   0.00000  Uiso   1.00
C141   C     0.87181   0.25043   0.94103   0.00000  Uiso   1.00
C142   C     0.90239   0.26373   0.79690   0.00000  Uiso   1.00
C143   C     0.96403   0.28916   0.61810   0.00000  Uiso   1.00
C144   C     0.76975   0.24604   0.97709   0.00000  Uiso   1.00
C145   C     0.76214   0.27052   0.10808   0.00000  Uiso   1.00
C146   C     0.74257   0.29301   0.04034   0.00000  Uiso   1.00
C147   C     0.71170   0.33536   0.00246   0.00000  Uiso   1.00
C148   C     0.75864   0.17322   0.95539   0.00000  Uiso   1.00
C149   C     0.74169   0.13647   0.06815   0.00000  Uiso   1.00
C150   C     0.71276   0.09765   0.98214   0.00000  Uiso   1.00
C151   C     0.66464   0.02695   0.91057   0.00000  Uiso   1.00
C152   C     0.76952   0.21535   0.66707   0.00000  Uiso   1.00
C153   C     0.81779   0.23316   0.69449   0.00000  Uiso   1.00
C154   C     0.84832   0.24645   0.55023   0.00000  Uiso   1.00
C155   C     0.89084   0.26177   0.60470   0.00000  Uiso   1.00
C156   C     0.75822   0.24408   0.78524   0.00000  Uiso   1.00
C157   C     0.73865   0.26654   0.71729   0.00000  Uiso   1.00
C158   C     0.73102   0.29105   0.84814   0.00000  Uiso   1.00
C159   C     0.74711   0.17126   0.76353   0.00000  Uiso   1.00
C160   C     0.71820   0.13249   0.67734   0.00000  Uiso   1.00
C161   C     0.70120   0.09570   0.78994   0.00000  Uiso   1.00
H162   H     0.79973   0.22047   0.16966   0.00000  Uiso   1.00
H163   H     0.88072   0.25194   0.08952   0.00000  Uiso   1.00
H164   H     0.77107   0.27202   0.25654   0.00000  Uiso   1.00
H165   H     0.75062   0.13800   0.21660   0.00000  Uiso   1.00
H166   H     0.96543   0.28598   0.91606   0.00000  Uiso   1.00
H167   H     0.73421   0.32832   0.26826   0.00000  Uiso   1.00
H168   H     0.69108   0.04570   0.18405   0.00000  Uiso   1.00
H169   H     0.76054   0.21382   0.51770   0.00000  Uiso   1.00
H170   H     0.83938   0.24493   0.40178   0.00000  Uiso   1.00
H171   H     0.72973   0.26502   0.56882   0.00000  Uiso   1.00
H172   H     0.70928   0.13099   0.52888   0.00000  Uiso   1.00
H173   H     0.93187   0.28030   0.35787   0.00000  Uiso   1.00
H174   H     0.70065   0.32263   0.71008   0.00000  Uiso   1.00
H175   H     0.65753   0.04002   0.62586   0.00000  Uiso   1.00
O176   O     0.00122   0.30374   0.57248   0.00000  Uiso   1.00
O177   O     0.69786   0.35927   0.03457   0.00000  Uiso   1.00
O178   O     0.64129   0.98849   0.92408   0.00000  Uiso   1.00
N179   N     0.94671   0.28037   0.80060   0.00000  Uiso   1.00
N180   N     0.73054   0.31995   0.12988   0.00000  Uiso   1.00
N181   N     0.69021   0.05573   0.05116   0.00000  Uiso   1.00
N182   N     0.92866   0.27731   0.50024   0.00000  Uiso   1.00
N183   N     0.71248   0.31689   0.82952   0.00000  Uiso   1.00
N184   N     0.67216   0.05267   0.75081   0.00000  Uiso   1.00
C185   C     0.42819   0.20924   0.35362   0.00000  Uiso   1.00
C186   C     0.40579   0.17068   0.21967   0.00000  Uiso   1.00
C187   C     0.37862   0.12819   0.27436   0.00000  Uiso   1.00
C188   C     0.36134   0.09761   0.13023   0.00000  Uiso   1.00
C189   C     0.32513   0.03597   0.95143   0.00000  Uiso   1.00
C190   C     0.47628   0.23025   0.31042   0.00000  Uiso   1.00
C191   C     0.50837   0.23786   0.44142   0.00000  Uiso   1.00
C192   C     0.55043   0.25743   0.37367   0.00000  Uiso   1.00
C193   C     0.62366   0.28830   0.33579   0.00000  Uiso   1.00
C194   C     0.41457   0.24136   0.28872   0.00000  Uiso   1.00
C195   C     0.39478   0.25831   0.40148   0.00000  Uiso   1.00
C196   C     0.38490   0.28724   0.31547   0.00000  Uiso   1.00
C197   C     0.36231   0.33536   0.24390   0.00000  Uiso   1.00
C198   C     0.44582   0.23048   0.00041   0.00000  Uiso   1.00
C199   C     0.41538   0.18221   0.02782   0.00000  Uiso   1.00
C200   C     0.39813   0.15168   0.88357   0.00000  Uiso   1.00
C201   C     0.37093   0.10916   0.93803   0.00000  Uiso   1.00
C202   C     0.48586   0.24178   0.11858   0.00000  Uiso   1.00
C203   C     0.52788   0.26135   0.05062   0.00000  Uiso   1.00
C204   C     0.56003   0.26898   0.18148   0.00000  Uiso   1.00
C205   C     0.42415   0.25289   0.09686   0.00000  Uiso   1.00
C206   C     0.41429   0.28180   0.01068   0.00000  Uiso   1.00
C207   C     0.39449   0.29880   0.12328   0.00000  Uiso   1.00
H208   H     0.42073   0.20027   0.50299   0.00000  Uiso   1.00
H209   H     0.37122   0.11928   0.42285   0.00000  Uiso   1.00
H210   H     0.50095   0.22893   0.58988   0.00000  Uiso   1.00
H211   H     0.38738   0.24938   0.54994   0.00000  Uiso   1.00
H212   H     0.32056   0.03457   0.24940   0.00000  Uiso   1.00
H213   H     0.59411   0.26579   0.60160   0.00000  Uiso   1.00
H214   H     0.35462   0.30892   0.51739   0.00000  Uiso   1.00
H215   H     0.45328   0.23946   0.85104   0.00000  Uiso   1.00
H216   H     0.40555   0.16062   0.73511   0.00000  Uiso   1.00
H217   H     0.53529   0.27027   0.90215   0.00000  Uiso   1.00
H218   H     0.42171   0.29072   0.86221   0.00000  Uiso   1.00
H219   H     0.34842   0.06813   0.69121   0.00000  Uiso   1.00
H220   H     0.62198   0.29935   0.04342   0.00000  Uiso   1.00
H221   H     0.38249   0.34247   0.95919   0.00000  Uiso   1.00
O222   O     0.30252   0.99878   0.90581   0.00000  Uiso   1.00
O223   O     0.66141   0.30214   0.36790   0.00000  Uiso   1.00
O224   O     0.34720   0.35871   0.25741   0.00000  Uiso   1.00
N225   N     0.33366   0.05329   0.13393   0.00000  Uiso   1.00
N226   N     0.58941   0.26946   0.46322   0.00000  Uiso   1.00
N227   N     0.36552   0.30979   0.38450   0.00000  Uiso   1.00
N228   N     0.34865   0.07134   0.83357   0.00000  Uiso   1.00
N229   N     0.60441   0.28752   0.16286   0.00000  Uiso   1.00
N230   N     0.38052   0.32784   0.08414   0.00000  Uiso   1.00
C231   C     0.78106   0.57181   0.68696   0.00000  Uiso   1.00
C232   C     0.76488   0.59421   0.55301   0.00000  Uiso   1.00
C233   C     0.74957   0.62138   0.60769   0.00000  Uiso   1.00
C234   C     0.73627   0.63866   0.46356   0.00000  Uiso   1.00
C235   C     0.71084   0.67487   0.28477   0.00000  Uiso   1.00
C236   C     0.75396   0.52372   0.64375   0.00000  Uiso   1.00
C237   C     0.72948   0.49163   0.77475   0.00000  Uiso   1.00
C238   C     0.70699   0.44957   0.70701   0.00000  Uiso   1.00
C239   C     0.66464   0.37634   0.66912   0.00000  Uiso   1.00
C240   C     0.82678   0.58543   0.62205   0.00000  Uiso   1.00
C241   C     0.86353   0.60522   0.73481   0.00000  Uiso   1.00
C242   C     0.90235   0.61510   0.64881   0.00000  Uiso   1.00
C243   C     0.97305   0.63769   0.57723   0.00000  Uiso   1.00
C244   C     0.78465   0.55418   0.33374   0.00000  Uiso   1.00
C245   C     0.76684   0.58462   0.36116   0.00000  Uiso   1.00
C246   C     0.75355   0.60187   0.21690   0.00000  Uiso   1.00
C247   C     0.73823   0.62907   0.27136   0.00000  Uiso   1.00
C248   C     0.75592   0.51414   0.45191   0.00000  Uiso   1.00
C249   C     0.73346   0.47212   0.38396   0.00000  Uiso   1.00
C250   C     0.70895   0.43997   0.51481   0.00000  Uiso   1.00
C251   C     0.82874   0.57585   0.43020   0.00000  Uiso   1.00
C252   C     0.86751   0.58571   0.34401   0.00000  Uiso   1.00
C253   C     0.90430   0.60551   0.45661   0.00000  Uiso   1.00
H254   H     0.77953   0.57927   0.83632   0.00000  Uiso   1.00
H255   H     0.74806   0.62878   0.75618   0.00000  Uiso   1.00
H256   H     0.72798   0.49905   0.92321   0.00000  Uiso   1.00
H257   H     0.86200   0.61262   0.88327   0.00000  Uiso   1.00
H258   H     0.71402   0.67944   0.58273   0.00000  Uiso   1.00
H259   H     0.67168   0.40589   0.93493   0.00000  Uiso   1.00
H260   H     0.95430   0.64538   0.85072   0.00000  Uiso   1.00
H261   H     0.78618   0.54672   0.18437   0.00000  Uiso   1.00
H262   H     0.75507   0.59445   0.06845   0.00000  Uiso   1.00
H263   H     0.73498   0.46471   0.23548   0.00000  Uiso   1.00
H264   H     0.86901   0.57829   0.19554   0.00000  Uiso   1.00
H265   H     0.71970   0.65158   0.02454   0.00000  Uiso   1.00
H266   H     0.67737   0.37802   0.37675   0.00000  Uiso   1.00
H267   H     0.95998   0.61751   0.29253   0.00000  Uiso   1.00
O268   O     0.69626   0.69748   0.23915   0.00000  Uiso   1.00
O269   O     0.64073   0.33859   0.70123   0.00000  Uiso   1.00
O270   O     0.01151   0.65280   0.59074   0.00000  Uiso   1.00
N271   N     0.71963   0.66634   0.46726   0.00000  Uiso   1.00
N272   N     0.68005   0.41059   0.79655   0.00000  Uiso   1.00
N273   N     0.94427   0.63448   0.71783   0.00000  Uiso   1.00
N274   N     0.72269   0.65135   0.16691   0.00000  Uiso   1.00
N275   N     0.68311   0.39559   0.49619   0.00000  Uiso   1.00
N276   N     0.94733   0.61948   0.41747   0.00000  Uiso   1.00
