data_job_00306
_audit_creation_date              2018-12-19
_audit_creation_method            'Materials Studio'
_symmetry_space_group_name_H-M    'P1'
_symmetry_Int_Tables_number       1
_symmetry_cell_setting            triclinic
loop_
_symmetry_equiv_pos_as_xyz
  x,y,z
_cell_length_a                    28.1793
_cell_length_b                    10.5515
_cell_length_c                    17.9516
_cell_angle_alpha                 90.0000
_cell_angle_beta                  90.0000
_cell_angle_gamma                 90.0000
loop_
_atom_site_label
_atom_site_type_symbol
_atom_site_fract_x
_atom_site_fract_y
_atom_site_fract_z
_atom_site_U_iso_or_equiv
_atom_site_adp_type
_atom_site_occupancy
C1     C     0.64059   0.73792   0.53543   0.00000  Uiso   1.00
C2     C     0.66314   0.68632   0.46441   0.00000  Uiso   1.00
C3     C     0.69714   0.59139   0.46084   0.00000  Uiso   1.00
C4     C     0.71331   0.55763   0.39053   0.00000  Uiso   1.00
C5     C     0.75097   0.46857   0.29005   0.00000  Uiso   1.00
C6     C     0.64970   0.88038   0.53486   0.00000  Uiso   1.00
C7     C     0.67240   0.94859   0.59054   0.00000  Uiso   1.00
C8     C     0.67725   0.07820   0.57954   0.00000  Uiso   1.00
C9     C     0.69401   0.29041   0.58847   0.00000  Uiso   1.00
C10    C     0.58717   0.72168   0.52579   0.00000  Uiso   1.00
C11    C     0.55729   0.65649   0.57384   0.00000  Uiso   1.00
C12    C     0.50949   0.65250   0.55520   0.00000  Uiso   1.00
C13    C     0.42917   0.61831   0.55004   0.00000  Uiso   1.00
C14    C     0.60883   0.84680   0.41691   0.00000  Uiso   1.00
C15    C     0.64589   0.74547   0.40003   0.00000  Uiso   1.00
C16    C     0.66201   0.71185   0.32971   0.00000  Uiso   1.00
C17    C     0.69603   0.61687   0.32603   0.00000  Uiso   1.00
C18    C     0.63245   0.93952   0.47049   0.00000  Uiso   1.00
C19    C     0.63726   0.06905   0.45941   0.00000  Uiso   1.00
C20    C     0.65997   0.13744   0.51504   0.00000  Uiso   1.00
C21    C     0.56992   0.78081   0.46141   0.00000  Uiso   1.00
C22    C     0.52216   0.77694   0.44270   0.00000  Uiso   1.00
C23    C     0.49221   0.71175   0.49071   0.00000  Uiso   1.00
H24    H     0.65402   0.69189   0.58555   0.00000  Uiso   1.00
H25    H     0.71049   0.54565   0.51067   0.00000  Uiso   1.00
H26    H     0.68574   0.90280   0.64035   0.00000  Uiso   1.00
H27    H     0.57065   0.61074   0.62365   0.00000  Uiso   1.00
H28    H     0.76550   0.40964   0.39927   0.00000  Uiso   1.00
H29    H     0.71330   0.16271   0.67272   0.00000  Uiso   1.00
H30    H     0.47062   0.54684   0.63750   0.00000  Uiso   1.00
H31    H     0.59540   0.89284   0.36678   0.00000  Uiso   1.00
H32    H     0.64865   0.75763   0.27990   0.00000  Uiso   1.00
H33    H     0.62391   0.11478   0.40958   0.00000  Uiso   1.00
H34    H     0.50882   0.82271   0.39288   0.00000  Uiso   1.00
H35    H     0.71531   0.58169   0.21197   0.00000  Uiso   1.00
H36    H     0.66312   0.33477   0.48542   0.00000  Uiso   1.00
H37    H     0.42044   0.71889   0.45020   0.00000  Uiso   1.00
O38    O     0.77651   0.40312   0.25241   0.00000  Uiso   1.00
O39    O     0.70802   0.39113   0.61118   0.00000  Uiso   1.00
O40    O     0.38963   0.58311   0.56497   0.00000  Uiso   1.00
N41    N     0.74637   0.46867   0.36711   0.00000  Uiso   1.00
N42    N     0.69758   0.17275   0.62276   0.00000  Uiso   1.00
N43    N     0.47069   0.59698   0.58985   0.00000  Uiso   1.00
N44    N     0.71937   0.56125   0.26633   0.00000  Uiso   1.00
N45    N     0.67058   0.26533   0.52198   0.00000  Uiso   1.00
N46    N     0.44369   0.68956   0.48906   0.00000  Uiso   1.00
C47    C     0.85941   0.76208   0.03543   0.00000  Uiso   1.00
C48    C     0.83686   0.81368   0.96441   0.00000  Uiso   1.00
C49    C     0.80286   0.90861   0.96084   0.00000  Uiso   1.00
C50    C     0.78669   0.94237   0.89053   0.00000  Uiso   1.00
C51    C     0.74903   0.03143   0.79005   0.00000  Uiso   1.00
C52    C     0.85030   0.61962   0.03486   0.00000  Uiso   1.00
C53    C     0.82760   0.55141   0.09054   0.00000  Uiso   1.00
C54    C     0.82275   0.42180   0.07954   0.00000  Uiso   1.00
C55    C     0.80599   0.20959   0.08847   0.00000  Uiso   1.00
C56    C     0.91283   0.77832   0.02579   0.00000  Uiso   1.00
C57    C     0.94271   0.84351   0.07384   0.00000  Uiso   1.00
C58    C     0.99051   0.84750   0.05520   0.00000  Uiso   1.00
C59    C     0.07083   0.88169   0.05004   0.00000  Uiso   1.00
C60    C     0.89117   0.65320   0.91691   0.00000  Uiso   1.00
C61    C     0.85411   0.75453   0.90003   0.00000  Uiso   1.00
C62    C     0.83799   0.78815   0.82971   0.00000  Uiso   1.00
C63    C     0.80397   0.88313   0.82603   0.00000  Uiso   1.00
C64    C     0.86755   0.56048   0.97049   0.00000  Uiso   1.00
C65    C     0.86274   0.43095   0.95941   0.00000  Uiso   1.00
C66    C     0.84003   0.36256   0.01504   0.00000  Uiso   1.00
C67    C     0.93008   0.71919   0.96141   0.00000  Uiso   1.00
C68    C     0.97784   0.72306   0.94270   0.00000  Uiso   1.00
C69    C     0.00779   0.78825   0.99071   0.00000  Uiso   1.00
H70    H     0.84598   0.80811   0.08555   0.00000  Uiso   1.00
H71    H     0.78951   0.95435   0.01067   0.00000  Uiso   1.00
H72    H     0.81426   0.59720   0.14035   0.00000  Uiso   1.00
H73    H     0.92935   0.88926   0.12365   0.00000  Uiso   1.00
H74    H     0.73450   0.09036   0.89927   0.00000  Uiso   1.00
H75    H     0.78670   0.33729   0.17272   0.00000  Uiso   1.00
H76    H     0.02938   0.95316   0.13750   0.00000  Uiso   1.00
H77    H     0.90460   0.60716   0.86678   0.00000  Uiso   1.00
H78    H     0.85135   0.74237   0.77990   0.00000  Uiso   1.00
H79    H     0.87609   0.38522   0.90958   0.00000  Uiso   1.00
H80    H     0.99118   0.67729   0.89288   0.00000  Uiso   1.00
H81    H     0.78469   0.91831   0.71197   0.00000  Uiso   1.00
H82    H     0.83688   0.16523   0.98542   0.00000  Uiso   1.00
H83    H     0.07956   0.78111   0.95020   0.00000  Uiso   1.00
O84    O     0.72349   0.09688   0.75241   0.00000  Uiso   1.00
O85    O     0.79198   0.10887   0.11118   0.00000  Uiso   1.00
O86    O     0.11037   0.91689   0.06497   0.00000  Uiso   1.00
N87    N     0.75363   0.03133   0.86711   0.00000  Uiso   1.00
N88    N     0.80242   0.32725   0.12276   0.00000  Uiso   1.00
N89    N     0.02931   0.90302   0.08985   0.00000  Uiso   1.00
N90    N     0.78063   0.93875   0.76633   0.00000  Uiso   1.00
N91    N     0.82942   0.23467   0.02198   0.00000  Uiso   1.00
N92    N     0.05631   0.81044   0.98906   0.00000  Uiso   1.00
C93    C     0.35941   0.73792   0.96457   0.00000  Uiso   1.00
C94    C     0.33686   0.68632   0.03559   0.00000  Uiso   1.00
C95    C     0.30286   0.59139   0.03916   0.00000  Uiso   1.00
C96    C     0.28669   0.55763   0.10947   0.00000  Uiso   1.00
C97    C     0.24903   0.46857   0.20995   0.00000  Uiso   1.00
C98    C     0.35030   0.88038   0.96514   0.00000  Uiso   1.00
C99    C     0.32760   0.94859   0.90946   0.00000  Uiso   1.00
C100   C     0.32275   0.07820   0.92046   0.00000  Uiso   1.00
C101   C     0.30599   0.29041   0.91153   0.00000  Uiso   1.00
C102   C     0.41283   0.72168   0.97421   0.00000  Uiso   1.00
C103   C     0.44271   0.65649   0.92616   0.00000  Uiso   1.00
C104   C     0.49051   0.65250   0.94480   0.00000  Uiso   1.00
C105   C     0.57083   0.61831   0.94996   0.00000  Uiso   1.00
C106   C     0.39117   0.84680   0.08309   0.00000  Uiso   1.00
C107   C     0.35411   0.74547   0.09997   0.00000  Uiso   1.00
C108   C     0.33799   0.71185   0.17029   0.00000  Uiso   1.00
C109   C     0.30397   0.61687   0.17397   0.00000  Uiso   1.00
C110   C     0.36755   0.93952   0.02951   0.00000  Uiso   1.00
C111   C     0.36274   0.06905   0.04059   0.00000  Uiso   1.00
C112   C     0.34003   0.13744   0.98496   0.00000  Uiso   1.00
C113   C     0.43008   0.78081   0.03859   0.00000  Uiso   1.00
C114   C     0.47784   0.77694   0.05730   0.00000  Uiso   1.00
C115   C     0.50779   0.71175   0.00929   0.00000  Uiso   1.00
H116   H     0.34598   0.69189   0.91445   0.00000  Uiso   1.00
H117   H     0.28951   0.54565   0.98933   0.00000  Uiso   1.00
H118   H     0.31426   0.90280   0.85965   0.00000  Uiso   1.00
H119   H     0.42935   0.61074   0.87635   0.00000  Uiso   1.00
H120   H     0.23450   0.40964   0.10073   0.00000  Uiso   1.00
H121   H     0.28670   0.16271   0.82728   0.00000  Uiso   1.00
H122   H     0.52938   0.54684   0.86250   0.00000  Uiso   1.00
H123   H     0.40460   0.89284   0.13322   0.00000  Uiso   1.00
H124   H     0.35135   0.75763   0.22010   0.00000  Uiso   1.00
H125   H     0.37609   0.11478   0.09042   0.00000  Uiso   1.00
H126   H     0.49118   0.82271   0.10712   0.00000  Uiso   1.00
H127   H     0.28469   0.58169   0.28803   0.00000  Uiso   1.00
H128   H     0.33688   0.33477   0.01458   0.00000  Uiso   1.00
H129   H     0.57956   0.71889   0.04980   0.00000  Uiso   1.00
O130   O     0.22349   0.40312   0.24759   0.00000  Uiso   1.00
O131   O     0.29198   0.39113   0.88882   0.00000  Uiso   1.00
O132   O     0.61037   0.58311   0.93503   0.00000  Uiso   1.00
N133   N     0.25363   0.46867   0.13289   0.00000  Uiso   1.00
N134   N     0.30242   0.17275   0.87724   0.00000  Uiso   1.00
N135   N     0.52931   0.59698   0.91015   0.00000  Uiso   1.00
N136   N     0.28063   0.56125   0.23367   0.00000  Uiso   1.00
N137   N     0.32942   0.26533   0.97802   0.00000  Uiso   1.00
N138   N     0.55631   0.68956   0.01094   0.00000  Uiso   1.00
C139   C     0.14059   0.76208   0.46457   0.00000  Uiso   1.00
C140   C     0.16314   0.81368   0.53559   0.00000  Uiso   1.00
C141   C     0.19714   0.90861   0.53916   0.00000  Uiso   1.00
C142   C     0.21331   0.94237   0.60947   0.00000  Uiso   1.00
C143   C     0.25097   0.03143   0.70995   0.00000  Uiso   1.00
C144   C     0.14970   0.61962   0.46514   0.00000  Uiso   1.00
C145   C     0.17240   0.55141   0.40946   0.00000  Uiso   1.00
C146   C     0.17725   0.42180   0.42046   0.00000  Uiso   1.00
C147   C     0.19401   0.20959   0.41153   0.00000  Uiso   1.00
C148   C     0.08717   0.77832   0.47421   0.00000  Uiso   1.00
C149   C     0.05729   0.84351   0.42616   0.00000  Uiso   1.00
C150   C     0.00949   0.84750   0.44480   0.00000  Uiso   1.00
C151   C     0.92917   0.88169   0.44996   0.00000  Uiso   1.00
C152   C     0.10883   0.65320   0.58309   0.00000  Uiso   1.00
C153   C     0.14589   0.75453   0.59997   0.00000  Uiso   1.00
C154   C     0.16201   0.78815   0.67029   0.00000  Uiso   1.00
C155   C     0.19603   0.88313   0.67397   0.00000  Uiso   1.00
C156   C     0.13245   0.56048   0.52951   0.00000  Uiso   1.00
C157   C     0.13726   0.43095   0.54059   0.00000  Uiso   1.00
C158   C     0.15997   0.36256   0.48496   0.00000  Uiso   1.00
C159   C     0.06992   0.71919   0.53859   0.00000  Uiso   1.00
C160   C     0.02216   0.72306   0.55730   0.00000  Uiso   1.00
C161   C     0.99221   0.78825   0.50929   0.00000  Uiso   1.00
H162   H     0.15402   0.80811   0.41445   0.00000  Uiso   1.00
H163   H     0.21049   0.95435   0.48933   0.00000  Uiso   1.00
H164   H     0.18574   0.59720   0.35965   0.00000  Uiso   1.00
H165   H     0.07065   0.88926   0.37635   0.00000  Uiso   1.00
H166   H     0.26550   0.09036   0.60073   0.00000  Uiso   1.00
H167   H     0.21330   0.33729   0.32728   0.00000  Uiso   1.00
H168   H     0.97062   0.95316   0.36250   0.00000  Uiso   1.00
H169   H     0.09540   0.60716   0.63322   0.00000  Uiso   1.00
H170   H     0.14865   0.74237   0.72010   0.00000  Uiso   1.00
H171   H     0.12391   0.38522   0.59042   0.00000  Uiso   1.00
H172   H     0.00882   0.67729   0.60712   0.00000  Uiso   1.00
H173   H     0.21531   0.91831   0.78803   0.00000  Uiso   1.00
H174   H     0.16312   0.16523   0.51458   0.00000  Uiso   1.00
H175   H     0.92044   0.78111   0.54980   0.00000  Uiso   1.00
O176   O     0.27651   0.09688   0.74759   0.00000  Uiso   1.00
O177   O     0.20802   0.10887   0.38882   0.00000  Uiso   1.00
O178   O     0.88963   0.91689   0.43503   0.00000  Uiso   1.00
N179   N     0.24637   0.03133   0.63289   0.00000  Uiso   1.00
N180   N     0.19758   0.32725   0.37724   0.00000  Uiso   1.00
N181   N     0.97069   0.90302   0.41015   0.00000  Uiso   1.00
N182   N     0.21937   0.93875   0.73367   0.00000  Uiso   1.00
N183   N     0.17058   0.23467   0.47802   0.00000  Uiso   1.00
N184   N     0.94369   0.81044   0.51094   0.00000  Uiso   1.00
C185   C     0.35941   0.26208   0.46457   0.00000  Uiso   1.00
C186   C     0.33686   0.31368   0.53559   0.00000  Uiso   1.00
C187   C     0.30286   0.40861   0.53916   0.00000  Uiso   1.00
C188   C     0.28669   0.44237   0.60947   0.00000  Uiso   1.00
C189   C     0.24903   0.53143   0.70995   0.00000  Uiso   1.00
C190   C     0.35030   0.11962   0.46514   0.00000  Uiso   1.00
C191   C     0.32760   0.05141   0.40946   0.00000  Uiso   1.00
C192   C     0.32275   0.92180   0.42046   0.00000  Uiso   1.00
C193   C     0.30599   0.70959   0.41153   0.00000  Uiso   1.00
C194   C     0.41283   0.27832   0.47421   0.00000  Uiso   1.00
C195   C     0.44271   0.34351   0.42616   0.00000  Uiso   1.00
C196   C     0.49051   0.34750   0.44480   0.00000  Uiso   1.00
C197   C     0.57083   0.38169   0.44996   0.00000  Uiso   1.00
C198   C     0.39117   0.15320   0.58309   0.00000  Uiso   1.00
C199   C     0.35411   0.25453   0.59997   0.00000  Uiso   1.00
C200   C     0.33799   0.28815   0.67029   0.00000  Uiso   1.00
C201   C     0.30397   0.38313   0.67397   0.00000  Uiso   1.00
C202   C     0.36755   0.06048   0.52951   0.00000  Uiso   1.00
C203   C     0.36274   0.93095   0.54059   0.00000  Uiso   1.00
C204   C     0.34003   0.86256   0.48496   0.00000  Uiso   1.00
C205   C     0.43008   0.21919   0.53859   0.00000  Uiso   1.00
C206   C     0.47784   0.22306   0.55730   0.00000  Uiso   1.00
C207   C     0.50779   0.28825   0.50929   0.00000  Uiso   1.00
H208   H     0.34598   0.30811   0.41445   0.00000  Uiso   1.00
H209   H     0.28951   0.45435   0.48933   0.00000  Uiso   1.00
H210   H     0.31426   0.09720   0.35965   0.00000  Uiso   1.00
H211   H     0.42935   0.38926   0.37635   0.00000  Uiso   1.00
H212   H     0.23450   0.59036   0.60073   0.00000  Uiso   1.00
H213   H     0.28670   0.83729   0.32728   0.00000  Uiso   1.00
H214   H     0.52938   0.45316   0.36250   0.00000  Uiso   1.00
H215   H     0.40460   0.10716   0.63322   0.00000  Uiso   1.00
H216   H     0.35135   0.24237   0.72010   0.00000  Uiso   1.00
H217   H     0.37609   0.88522   0.59042   0.00000  Uiso   1.00
H218   H     0.49118   0.17729   0.60712   0.00000  Uiso   1.00
H219   H     0.28469   0.41831   0.78803   0.00000  Uiso   1.00
H220   H     0.33688   0.66523   0.51458   0.00000  Uiso   1.00
H221   H     0.57956   0.28111   0.54980   0.00000  Uiso   1.00
O222   O     0.22349   0.59688   0.74759   0.00000  Uiso   1.00
O223   O     0.29198   0.60887   0.38882   0.00000  Uiso   1.00
O224   O     0.61037   0.41689   0.43503   0.00000  Uiso   1.00
N225   N     0.25363   0.53133   0.63289   0.00000  Uiso   1.00
N226   N     0.30242   0.82725   0.37724   0.00000  Uiso   1.00
N227   N     0.52931   0.40302   0.41015   0.00000  Uiso   1.00
N228   N     0.28063   0.43875   0.73367   0.00000  Uiso   1.00
N229   N     0.32942   0.73467   0.47802   0.00000  Uiso   1.00
N230   N     0.55631   0.31044   0.51094   0.00000  Uiso   1.00
C231   C     0.14059   0.23792   0.96457   0.00000  Uiso   1.00
C232   C     0.16314   0.18632   0.03559   0.00000  Uiso   1.00
C233   C     0.19714   0.09139   0.03916   0.00000  Uiso   1.00
C234   C     0.21331   0.05763   0.10947   0.00000  Uiso   1.00
C235   C     0.25097   0.96857   0.20995   0.00000  Uiso   1.00
C236   C     0.14970   0.38038   0.96514   0.00000  Uiso   1.00
C237   C     0.17240   0.44859   0.90946   0.00000  Uiso   1.00
C238   C     0.17725   0.57820   0.92046   0.00000  Uiso   1.00
C239   C     0.19401   0.79041   0.91153   0.00000  Uiso   1.00
C240   C     0.08717   0.22168   0.97421   0.00000  Uiso   1.00
C241   C     0.05729   0.15649   0.92616   0.00000  Uiso   1.00
C242   C     0.00949   0.15250   0.94480   0.00000  Uiso   1.00
C243   C     0.92917   0.11831   0.94996   0.00000  Uiso   1.00
C244   C     0.10883   0.34680   0.08309   0.00000  Uiso   1.00
C245   C     0.14589   0.24547   0.09997   0.00000  Uiso   1.00
C246   C     0.16201   0.21185   0.17029   0.00000  Uiso   1.00
C247   C     0.19603   0.11687   0.17397   0.00000  Uiso   1.00
C248   C     0.13245   0.43952   0.02951   0.00000  Uiso   1.00
C249   C     0.13726   0.56905   0.04059   0.00000  Uiso   1.00
C250   C     0.15997   0.63744   0.98496   0.00000  Uiso   1.00
C251   C     0.06992   0.28081   0.03859   0.00000  Uiso   1.00
C252   C     0.02216   0.27694   0.05730   0.00000  Uiso   1.00
C253   C     0.99221   0.21175   0.00929   0.00000  Uiso   1.00
H254   H     0.15402   0.19189   0.91445   0.00000  Uiso   1.00
H255   H     0.21049   0.04565   0.98933   0.00000  Uiso   1.00
H256   H     0.18574   0.40280   0.85965   0.00000  Uiso   1.00
H257   H     0.07065   0.11074   0.87635   0.00000  Uiso   1.00
H258   H     0.26550   0.90964   0.10073   0.00000  Uiso   1.00
H259   H     0.21330   0.66271   0.82728   0.00000  Uiso   1.00
H260   H     0.97062   0.04684   0.86250   0.00000  Uiso   1.00
H261   H     0.09540   0.39284   0.13322   0.00000  Uiso   1.00
H262   H     0.14865   0.25763   0.22010   0.00000  Uiso   1.00
H263   H     0.12391   0.61478   0.09042   0.00000  Uiso   1.00
H264   H     0.00882   0.32271   0.10712   0.00000  Uiso   1.00
H265   H     0.21531   0.08169   0.28803   0.00000  Uiso   1.00
H266   H     0.16312   0.83477   0.01458   0.00000  Uiso   1.00
H267   H     0.92044   0.21889   0.04980   0.00000  Uiso   1.00
O268   O     0.27651   0.90312   0.24759   0.00000  Uiso   1.00
O269   O     0.20802   0.89113   0.88882   0.00000  Uiso   1.00
O270   O     0.88963   0.08311   0.93503   0.00000  Uiso   1.00
N271   N     0.24637   0.96867   0.13289   0.00000  Uiso   1.00
N272   N     0.19758   0.67275   0.87724   0.00000  Uiso   1.00
N273   N     0.97069   0.09698   0.91015   0.00000  Uiso   1.00
N274   N     0.21937   0.06125   0.23367   0.00000  Uiso   1.00
N275   N     0.17058   0.76533   0.97802   0.00000  Uiso   1.00
N276   N     0.94369   0.18956   0.01094   0.00000  Uiso   1.00
C277   C     0.64059   0.26208   0.03543   0.00000  Uiso   1.00
C278   C     0.66314   0.31368   0.96441   0.00000  Uiso   1.00
C279   C     0.69714   0.40861   0.96084   0.00000  Uiso   1.00
C280   C     0.71331   0.44237   0.89053   0.00000  Uiso   1.00
C281   C     0.75097   0.53143   0.79005   0.00000  Uiso   1.00
C282   C     0.64970   0.11962   0.03486   0.00000  Uiso   1.00
C283   C     0.67240   0.05141   0.09054   0.00000  Uiso   1.00
C284   C     0.67725   0.92180   0.07954   0.00000  Uiso   1.00
C285   C     0.69401   0.70959   0.08847   0.00000  Uiso   1.00
C286   C     0.58717   0.27832   0.02579   0.00000  Uiso   1.00
C287   C     0.55729   0.34351   0.07384   0.00000  Uiso   1.00
C288   C     0.50949   0.34750   0.05520   0.00000  Uiso   1.00
C289   C     0.42917   0.38169   0.05004   0.00000  Uiso   1.00
C290   C     0.60883   0.15320   0.91691   0.00000  Uiso   1.00
C291   C     0.64589   0.25453   0.90003   0.00000  Uiso   1.00
C292   C     0.66201   0.28815   0.82971   0.00000  Uiso   1.00
C293   C     0.69603   0.38313   0.82603   0.00000  Uiso   1.00
C294   C     0.63245   0.06048   0.97049   0.00000  Uiso   1.00
C295   C     0.63726   0.93095   0.95941   0.00000  Uiso   1.00
C296   C     0.65997   0.86256   0.01504   0.00000  Uiso   1.00
C297   C     0.56992   0.21919   0.96141   0.00000  Uiso   1.00
C298   C     0.52216   0.22306   0.94270   0.00000  Uiso   1.00
C299   C     0.49221   0.28825   0.99071   0.00000  Uiso   1.00
H300   H     0.65402   0.30811   0.08555   0.00000  Uiso   1.00
H301   H     0.71049   0.45435   0.01067   0.00000  Uiso   1.00
H302   H     0.68574   0.09720   0.14035   0.00000  Uiso   1.00
H303   H     0.57065   0.38926   0.12365   0.00000  Uiso   1.00
H304   H     0.76550   0.59036   0.89927   0.00000  Uiso   1.00
H305   H     0.71330   0.83729   0.17272   0.00000  Uiso   1.00
H306   H     0.47062   0.45316   0.13750   0.00000  Uiso   1.00
H307   H     0.59540   0.10716   0.86678   0.00000  Uiso   1.00
H308   H     0.64865   0.24237   0.77990   0.00000  Uiso   1.00
H309   H     0.62391   0.88522   0.90958   0.00000  Uiso   1.00
H310   H     0.50882   0.17729   0.89288   0.00000  Uiso   1.00
H311   H     0.71531   0.41831   0.71197   0.00000  Uiso   1.00
H312   H     0.66312   0.66523   0.98542   0.00000  Uiso   1.00
H313   H     0.42044   0.28111   0.95020   0.00000  Uiso   1.00
O314   O     0.77651   0.59688   0.75241   0.00000  Uiso   1.00
O315   O     0.70802   0.60887   0.11118   0.00000  Uiso   1.00
O316   O     0.38963   0.41689   0.06497   0.00000  Uiso   1.00
N317   N     0.74637   0.53133   0.86711   0.00000  Uiso   1.00
N318   N     0.69758   0.82725   0.12276   0.00000  Uiso   1.00
N319   N     0.47069   0.40302   0.08985   0.00000  Uiso   1.00
N320   N     0.71937   0.43875   0.76633   0.00000  Uiso   1.00
N321   N     0.67058   0.73467   0.02198   0.00000  Uiso   1.00
N322   N     0.44369   0.31044   0.98906   0.00000  Uiso   1.00
C323   C     0.85941   0.23792   0.53543   0.00000  Uiso   1.00
C324   C     0.83686   0.18632   0.46441   0.00000  Uiso   1.00
C325   C     0.80286   0.09139   0.46084   0.00000  Uiso   1.00
C326   C     0.78669   0.05763   0.39053   0.00000  Uiso   1.00
C327   C     0.74903   0.96857   0.29005   0.00000  Uiso   1.00
C328   C     0.85030   0.38038   0.53486   0.00000  Uiso   1.00
C329   C     0.82760   0.44859   0.59054   0.00000  Uiso   1.00
C330   C     0.82275   0.57820   0.57954   0.00000  Uiso   1.00
C331   C     0.80599   0.79041   0.58847   0.00000  Uiso   1.00
C332   C     0.91283   0.22168   0.52579   0.00000  Uiso   1.00
C333   C     0.94271   0.15649   0.57384   0.00000  Uiso   1.00
C334   C     0.99051   0.15250   0.55520   0.00000  Uiso   1.00
C335   C     0.07083   0.11831   0.55004   0.00000  Uiso   1.00
C336   C     0.89117   0.34680   0.41691   0.00000  Uiso   1.00
C337   C     0.85411   0.24547   0.40003   0.00000  Uiso   1.00
C338   C     0.83799   0.21185   0.32971   0.00000  Uiso   1.00
C339   C     0.80397   0.11687   0.32603   0.00000  Uiso   1.00
C340   C     0.86755   0.43952   0.47049   0.00000  Uiso   1.00
C341   C     0.86274   0.56905   0.45941   0.00000  Uiso   1.00
C342   C     0.84003   0.63744   0.51504   0.00000  Uiso   1.00
C343   C     0.93008   0.28081   0.46141   0.00000  Uiso   1.00
C344   C     0.97784   0.27694   0.44270   0.00000  Uiso   1.00
C345   C     0.00779   0.21175   0.49071   0.00000  Uiso   1.00
H346   H     0.84598   0.19189   0.58555   0.00000  Uiso   1.00
H347   H     0.78951   0.04565   0.51067   0.00000  Uiso   1.00
H348   H     0.81426   0.40280   0.64035   0.00000  Uiso   1.00
H349   H     0.92935   0.11074   0.62365   0.00000  Uiso   1.00
H350   H     0.73450   0.90964   0.39927   0.00000  Uiso   1.00
H351   H     0.78670   0.66271   0.67272   0.00000  Uiso   1.00
H352   H     0.02938   0.04684   0.63750   0.00000  Uiso   1.00
H353   H     0.90460   0.39284   0.36678   0.00000  Uiso   1.00
H354   H     0.85135   0.25763   0.27990   0.00000  Uiso   1.00
H355   H     0.87609   0.61478   0.40958   0.00000  Uiso   1.00
H356   H     0.99118   0.32271   0.39288   0.00000  Uiso   1.00
H357   H     0.78469   0.08169   0.21197   0.00000  Uiso   1.00
H358   H     0.83688   0.83477   0.48542   0.00000  Uiso   1.00
H359   H     0.07956   0.21889   0.45020   0.00000  Uiso   1.00
O360   O     0.72349   0.90312   0.25241   0.00000  Uiso   1.00
O361   O     0.79198   0.89113   0.61118   0.00000  Uiso   1.00
O362   O     0.11037   0.08311   0.56497   0.00000  Uiso   1.00
N363   N     0.75363   0.96867   0.36711   0.00000  Uiso   1.00
N364   N     0.80242   0.67275   0.62276   0.00000  Uiso   1.00
N365   N     0.02931   0.09698   0.58985   0.00000  Uiso   1.00
N366   N     0.78063   0.06125   0.26633   0.00000  Uiso   1.00
N367   N     0.82942   0.76533   0.52198   0.00000  Uiso   1.00
N368   N     0.05631   0.18956   0.48906   0.00000  Uiso   1.00
