data_job_00176
_audit_creation_date              2018-12-19
_audit_creation_method            'Materials Studio'
_symmetry_space_group_name_H-M    'P1'
_symmetry_Int_Tables_number       1
_symmetry_cell_setting            triclinic
loop_
_symmetry_equiv_pos_as_xyz
  x,y,z
_cell_length_a                    30.0647
_cell_length_b                    10.2545
_cell_length_c                    15.0208
_cell_angle_alpha                 90.0000
_cell_angle_beta                  95.9932
_cell_angle_gamma                 90.0000
loop_
_atom_site_label
_atom_site_type_symbol
_atom_site_fract_x
_atom_site_fract_y
_atom_site_fract_z
_atom_site_U_iso_or_equiv
_atom_site_adp_type
_atom_site_occupancy
C1     C     0.61004   0.35627   0.13064   0.00000  Uiso   1.00
C2     C     0.62279   0.30831   0.04062   0.00000  Uiso   1.00
C3     C     0.60785   0.19416   0.99778   0.00000  Uiso   1.00
C4     C     0.62340   0.16761   0.91585   0.00000  Uiso   1.00
C5     C     0.63875   0.08024   0.78182   0.00000  Uiso   1.00
C6     C     0.65392   0.37488   0.18997   0.00000  Uiso   1.00
C7     C     0.66514   0.31671   0.27269   0.00000  Uiso   1.00
C8     C     0.70690   0.34621   0.31648   0.00000  Uiso   1.00
C9     C     0.77056   0.36225   0.41434   0.00000  Uiso   1.00
C10    C     0.59055   0.49242   0.11384   0.00000  Uiso   1.00
C11    C     0.54850   0.53309   0.13258   0.00000  Uiso   1.00
C12    C     0.53691   0.66157   0.11229   0.00000  Uiso   1.00
C13    C     0.50217   0.86010   0.09195   0.00000  Uiso   1.00
C14    C     0.66424   0.51212   0.06132   0.00000  Uiso   1.00
C15    C     0.65223   0.39296   0.00298   0.00000  Uiso   1.00
C16    C     0.66781   0.36659   0.92108   0.00000  Uiso   1.00
C17    C     0.65289   0.25242   0.87812   0.00000  Uiso   1.00
C18    C     0.68336   0.45952   0.15232   0.00000  Uiso   1.00
C19    C     0.72511   0.48913   0.19600   0.00000  Uiso   1.00
C20    C     0.73639   0.43101   0.27876   0.00000  Uiso   1.00
C21    C     0.61999   0.57707   0.07619   0.00000  Uiso   1.00
C22    C     0.60846   0.70551   0.05587   0.00000  Uiso   1.00
C23    C     0.56640   0.74637   0.07457   0.00000  Uiso   1.00
H24    H     0.58712   0.29037   0.15996   0.00000  Uiso   1.00
H25    H     0.58507   0.12867   0.02694   0.00000  Uiso   1.00
H26    H     0.64235   0.25121   0.30181   0.00000  Uiso   1.00
H27    H     0.52573   0.46756   0.16171   0.00000  Uiso   1.00
H28    H     0.59579   0.98671   0.86288   0.00000  Uiso   1.00
H29    H     0.71657   0.24512   0.44247   0.00000  Uiso   1.00
H30    H     0.47064   0.70133   0.14705   0.00000  Uiso   1.00
H31    H     0.68716   0.57803   0.03201   0.00000  Uiso   1.00
H32    H     0.69059   0.43211   0.89196   0.00000  Uiso   1.00
H33    H     0.74788   0.55465   0.16684   0.00000  Uiso   1.00
H34    H     0.63125   0.77099   0.02674   0.00000  Uiso   1.00
H35    H     0.68144   0.23299   0.75333   0.00000  Uiso   1.00
H36    H     0.80222   0.49141   0.33293   0.00000  Uiso   1.00
H37    H     0.55628   0.94761   0.03750   0.00000  Uiso   1.00
O38    O     0.63908   0.00865   0.71830   0.00000  Uiso   1.00
O39    O     0.79753   0.34770   0.47871   0.00000  Uiso   1.00
O40    O     0.47488   0.94622   0.09112   0.00000  Uiso   1.00
N41    N     0.61547   0.06471   0.85631   0.00000  Uiso   1.00
N42    N     0.72839   0.30629   0.39819   0.00000  Uiso   1.00
N43    N     0.49847   0.73282   0.12201   0.00000  Uiso   1.00
N44    N     0.66155   0.19723   0.79736   0.00000  Uiso   1.00
N45    N     0.77448   0.43881   0.33924   0.00000  Uiso   1.00
N46    N     0.54456   0.86534   0.06306   0.00000  Uiso   1.00
C47    C     0.11004   0.85627   0.13064   0.00000  Uiso   1.00
C48    C     0.12279   0.80831   0.04062   0.00000  Uiso   1.00
C49    C     0.10785   0.69416   0.99778   0.00000  Uiso   1.00
C50    C     0.12340   0.66761   0.91585   0.00000  Uiso   1.00
C51    C     0.13875   0.58024   0.78182   0.00000  Uiso   1.00
C52    C     0.15392   0.87488   0.18997   0.00000  Uiso   1.00
C53    C     0.16514   0.81671   0.27269   0.00000  Uiso   1.00
C54    C     0.20690   0.84621   0.31648   0.00000  Uiso   1.00
C55    C     0.27056   0.86225   0.41434   0.00000  Uiso   1.00
C56    C     0.09055   0.99242   0.11384   0.00000  Uiso   1.00
C57    C     0.04850   0.03309   0.13258   0.00000  Uiso   1.00
C58    C     0.03691   0.16157   0.11229   0.00000  Uiso   1.00
C59    C     0.00217   0.36010   0.09195   0.00000  Uiso   1.00
C60    C     0.16424   0.01212   0.06132   0.00000  Uiso   1.00
C61    C     0.15223   0.89296   0.00298   0.00000  Uiso   1.00
C62    C     0.16781   0.86659   0.92108   0.00000  Uiso   1.00
C63    C     0.15289   0.75242   0.87812   0.00000  Uiso   1.00
C64    C     0.18336   0.95952   0.15232   0.00000  Uiso   1.00
C65    C     0.22511   0.98913   0.19600   0.00000  Uiso   1.00
C66    C     0.23639   0.93101   0.27876   0.00000  Uiso   1.00
C67    C     0.11999   0.07707   0.07619   0.00000  Uiso   1.00
C68    C     0.10846   0.20551   0.05587   0.00000  Uiso   1.00
C69    C     0.06640   0.24637   0.07457   0.00000  Uiso   1.00
H70    H     0.08712   0.79037   0.15996   0.00000  Uiso   1.00
H71    H     0.08507   0.62867   0.02694   0.00000  Uiso   1.00
H72    H     0.14235   0.75121   0.30181   0.00000  Uiso   1.00
H73    H     0.02573   0.96756   0.16171   0.00000  Uiso   1.00
H74    H     0.09579   0.48671   0.86288   0.00000  Uiso   1.00
H75    H     0.21657   0.74512   0.44247   0.00000  Uiso   1.00
H76    H     0.97064   0.20133   0.14705   0.00000  Uiso   1.00
H77    H     0.18716   0.07803   0.03201   0.00000  Uiso   1.00
H78    H     0.19059   0.93211   0.89196   0.00000  Uiso   1.00
H79    H     0.24788   0.05465   0.16684   0.00000  Uiso   1.00
H80    H     0.13125   0.27099   0.02674   0.00000  Uiso   1.00
H81    H     0.18144   0.73299   0.75333   0.00000  Uiso   1.00
H82    H     0.30222   0.99141   0.33293   0.00000  Uiso   1.00
H83    H     0.05628   0.44761   0.03750   0.00000  Uiso   1.00
O84    O     0.13908   0.50865   0.71830   0.00000  Uiso   1.00
O85    O     0.29753   0.84770   0.47871   0.00000  Uiso   1.00
O86    O     0.97488   0.44622   0.09112   0.00000  Uiso   1.00
N87    N     0.11547   0.56471   0.85631   0.00000  Uiso   1.00
N88    N     0.22839   0.80629   0.39819   0.00000  Uiso   1.00
N89    N     0.99847   0.23282   0.12201   0.00000  Uiso   1.00
N90    N     0.16155   0.69723   0.79736   0.00000  Uiso   1.00
N91    N     0.27448   0.93881   0.33924   0.00000  Uiso   1.00
N92    N     0.04456   0.36534   0.06306   0.00000  Uiso   1.00
C93    C     0.38996   0.35627   0.36936   0.00000  Uiso   1.00
C94    C     0.37721   0.30831   0.45938   0.00000  Uiso   1.00
C95    C     0.39215   0.19416   0.50222   0.00000  Uiso   1.00
C96    C     0.37660   0.16761   0.58415   0.00000  Uiso   1.00
C97    C     0.36125   0.08024   0.71818   0.00000  Uiso   1.00
C98    C     0.34608   0.37488   0.31003   0.00000  Uiso   1.00
C99    C     0.33486   0.31671   0.22731   0.00000  Uiso   1.00
C100   C     0.29310   0.34621   0.18352   0.00000  Uiso   1.00
C101   C     0.22944   0.36225   0.08566   0.00000  Uiso   1.00
C102   C     0.40945   0.49242   0.38616   0.00000  Uiso   1.00
C103   C     0.45150   0.53309   0.36742   0.00000  Uiso   1.00
C104   C     0.46309   0.66157   0.38771   0.00000  Uiso   1.00
C105   C     0.49783   0.86010   0.40805   0.00000  Uiso   1.00
C106   C     0.33576   0.51212   0.43868   0.00000  Uiso   1.00
C107   C     0.34777   0.39296   0.49702   0.00000  Uiso   1.00
C108   C     0.33219   0.36659   0.57892   0.00000  Uiso   1.00
C109   C     0.34711   0.25242   0.62188   0.00000  Uiso   1.00
C110   C     0.31664   0.45952   0.34768   0.00000  Uiso   1.00
C111   C     0.27489   0.48913   0.30400   0.00000  Uiso   1.00
C112   C     0.26361   0.43101   0.22124   0.00000  Uiso   1.00
C113   C     0.38001   0.57707   0.42381   0.00000  Uiso   1.00
C114   C     0.39154   0.70551   0.44413   0.00000  Uiso   1.00
C115   C     0.43360   0.74637   0.42543   0.00000  Uiso   1.00
H116   H     0.41288   0.29037   0.34004   0.00000  Uiso   1.00
H117   H     0.41493   0.12867   0.47306   0.00000  Uiso   1.00
H118   H     0.35765   0.25121   0.19819   0.00000  Uiso   1.00
H119   H     0.47427   0.46756   0.33829   0.00000  Uiso   1.00
H120   H     0.40421   0.98671   0.63712   0.00000  Uiso   1.00
H121   H     0.28343   0.24512   0.05753   0.00000  Uiso   1.00
H122   H     0.52936   0.70133   0.35295   0.00000  Uiso   1.00
H123   H     0.31284   0.57803   0.46799   0.00000  Uiso   1.00
H124   H     0.30941   0.43211   0.60804   0.00000  Uiso   1.00
H125   H     0.25212   0.55465   0.33316   0.00000  Uiso   1.00
H126   H     0.36875   0.77099   0.47326   0.00000  Uiso   1.00
H127   H     0.31856   0.23299   0.74667   0.00000  Uiso   1.00
H128   H     0.19778   0.49141   0.16707   0.00000  Uiso   1.00
H129   H     0.44372   0.94761   0.46250   0.00000  Uiso   1.00
O130   O     0.36092   0.00865   0.78170   0.00000  Uiso   1.00
O131   O     0.20247   0.34770   0.02129   0.00000  Uiso   1.00
O132   O     0.52512   0.94622   0.40888   0.00000  Uiso   1.00
N133   N     0.38453   0.06471   0.64369   0.00000  Uiso   1.00
N134   N     0.27161   0.30629   0.10181   0.00000  Uiso   1.00
N135   N     0.50153   0.73282   0.37799   0.00000  Uiso   1.00
N136   N     0.33845   0.19723   0.70264   0.00000  Uiso   1.00
N137   N     0.22552   0.43881   0.16076   0.00000  Uiso   1.00
N138   N     0.45544   0.86534   0.43694   0.00000  Uiso   1.00
C139   C     0.88996   0.85627   0.36936   0.00000  Uiso   1.00
C140   C     0.87721   0.80831   0.45938   0.00000  Uiso   1.00
C141   C     0.89215   0.69416   0.50222   0.00000  Uiso   1.00
C142   C     0.87660   0.66761   0.58415   0.00000  Uiso   1.00
C143   C     0.86125   0.58024   0.71818   0.00000  Uiso   1.00
C144   C     0.84608   0.87488   0.31003   0.00000  Uiso   1.00
C145   C     0.83486   0.81671   0.22731   0.00000  Uiso   1.00
C146   C     0.79310   0.84621   0.18352   0.00000  Uiso   1.00
C147   C     0.72944   0.86225   0.08566   0.00000  Uiso   1.00
C148   C     0.90945   0.99242   0.38616   0.00000  Uiso   1.00
C149   C     0.95150   0.03309   0.36742   0.00000  Uiso   1.00
C150   C     0.96309   0.16157   0.38771   0.00000  Uiso   1.00
C151   C     0.99783   0.36010   0.40805   0.00000  Uiso   1.00
C152   C     0.83576   0.01212   0.43868   0.00000  Uiso   1.00
C153   C     0.84777   0.89296   0.49702   0.00000  Uiso   1.00
C154   C     0.83219   0.86659   0.57892   0.00000  Uiso   1.00
C155   C     0.84711   0.75242   0.62188   0.00000  Uiso   1.00
C156   C     0.81664   0.95952   0.34768   0.00000  Uiso   1.00
C157   C     0.77489   0.98913   0.30400   0.00000  Uiso   1.00
C158   C     0.76361   0.93101   0.22124   0.00000  Uiso   1.00
C159   C     0.88001   0.07707   0.42381   0.00000  Uiso   1.00
C160   C     0.89154   0.20551   0.44413   0.00000  Uiso   1.00
C161   C     0.93360   0.24637   0.42543   0.00000  Uiso   1.00
H162   H     0.91288   0.79037   0.34004   0.00000  Uiso   1.00
H163   H     0.91493   0.62867   0.47306   0.00000  Uiso   1.00
H164   H     0.85765   0.75121   0.19819   0.00000  Uiso   1.00
H165   H     0.97427   0.96756   0.33829   0.00000  Uiso   1.00
H166   H     0.90421   0.48671   0.63712   0.00000  Uiso   1.00
H167   H     0.78343   0.74512   0.05753   0.00000  Uiso   1.00
H168   H     0.02936   0.20133   0.35295   0.00000  Uiso   1.00
H169   H     0.81284   0.07803   0.46799   0.00000  Uiso   1.00
H170   H     0.80941   0.93211   0.60804   0.00000  Uiso   1.00
H171   H     0.75212   0.05465   0.33316   0.00000  Uiso   1.00
H172   H     0.86875   0.27099   0.47326   0.00000  Uiso   1.00
H173   H     0.81856   0.73299   0.74667   0.00000  Uiso   1.00
H174   H     0.69778   0.99141   0.16707   0.00000  Uiso   1.00
H175   H     0.94372   0.44761   0.46250   0.00000  Uiso   1.00
O176   O     0.86092   0.50865   0.78170   0.00000  Uiso   1.00
O177   O     0.70247   0.84770   0.02129   0.00000  Uiso   1.00
O178   O     0.02512   0.44622   0.40888   0.00000  Uiso   1.00
N179   N     0.88453   0.56471   0.64369   0.00000  Uiso   1.00
N180   N     0.77161   0.80629   0.10181   0.00000  Uiso   1.00
N181   N     0.00153   0.23282   0.37799   0.00000  Uiso   1.00
N182   N     0.83845   0.69723   0.70264   0.00000  Uiso   1.00
N183   N     0.72552   0.93881   0.16076   0.00000  Uiso   1.00
N184   N     0.95544   0.36534   0.43694   0.00000  Uiso   1.00
C185   C     0.38996   0.64373   0.86936   0.00000  Uiso   1.00
C186   C     0.37721   0.69169   0.95938   0.00000  Uiso   1.00
C187   C     0.39215   0.80584   0.00222   0.00000  Uiso   1.00
C188   C     0.37660   0.83239   0.08415   0.00000  Uiso   1.00
C189   C     0.36125   0.91976   0.21818   0.00000  Uiso   1.00
C190   C     0.34608   0.62512   0.81003   0.00000  Uiso   1.00
C191   C     0.33486   0.68329   0.72731   0.00000  Uiso   1.00
C192   C     0.29310   0.65379   0.68352   0.00000  Uiso   1.00
C193   C     0.22944   0.63775   0.58566   0.00000  Uiso   1.00
C194   C     0.40945   0.50758   0.88616   0.00000  Uiso   1.00
C195   C     0.45150   0.46691   0.86742   0.00000  Uiso   1.00
C196   C     0.46309   0.33843   0.88771   0.00000  Uiso   1.00
C197   C     0.49783   0.13990   0.90805   0.00000  Uiso   1.00
C198   C     0.33576   0.48788   0.93868   0.00000  Uiso   1.00
C199   C     0.34777   0.60704   0.99702   0.00000  Uiso   1.00
C200   C     0.33219   0.63341   0.07892   0.00000  Uiso   1.00
C201   C     0.34711   0.74758   0.12188   0.00000  Uiso   1.00
C202   C     0.31664   0.54048   0.84768   0.00000  Uiso   1.00
C203   C     0.27489   0.51087   0.80400   0.00000  Uiso   1.00
C204   C     0.26361   0.56899   0.72124   0.00000  Uiso   1.00
C205   C     0.38001   0.42293   0.92381   0.00000  Uiso   1.00
C206   C     0.39154   0.29449   0.94413   0.00000  Uiso   1.00
C207   C     0.43360   0.25363   0.92543   0.00000  Uiso   1.00
H208   H     0.41288   0.70963   0.84004   0.00000  Uiso   1.00
H209   H     0.41493   0.87133   0.97306   0.00000  Uiso   1.00
H210   H     0.35765   0.74879   0.69819   0.00000  Uiso   1.00
H211   H     0.47427   0.53244   0.83829   0.00000  Uiso   1.00
H212   H     0.40421   0.01329   0.13712   0.00000  Uiso   1.00
H213   H     0.28343   0.75488   0.55753   0.00000  Uiso   1.00
H214   H     0.52936   0.29867   0.85295   0.00000  Uiso   1.00
H215   H     0.31284   0.42197   0.96799   0.00000  Uiso   1.00
H216   H     0.30941   0.56789   0.10804   0.00000  Uiso   1.00
H217   H     0.25212   0.44535   0.83316   0.00000  Uiso   1.00
H218   H     0.36875   0.22901   0.97326   0.00000  Uiso   1.00
H219   H     0.31856   0.76701   0.24667   0.00000  Uiso   1.00
H220   H     0.19778   0.50859   0.66707   0.00000  Uiso   1.00
H221   H     0.44372   0.05239   0.96250   0.00000  Uiso   1.00
O222   O     0.36092   0.99135   0.28170   0.00000  Uiso   1.00
O223   O     0.20247   0.65230   0.52129   0.00000  Uiso   1.00
O224   O     0.52512   0.05378   0.90888   0.00000  Uiso   1.00
N225   N     0.38453   0.93529   0.14369   0.00000  Uiso   1.00
N226   N     0.27161   0.69371   0.60181   0.00000  Uiso   1.00
N227   N     0.50153   0.26718   0.87799   0.00000  Uiso   1.00
N228   N     0.33845   0.80277   0.20264   0.00000  Uiso   1.00
N229   N     0.22552   0.56119   0.66076   0.00000  Uiso   1.00
N230   N     0.45544   0.13466   0.93694   0.00000  Uiso   1.00
C231   C     0.88996   0.14373   0.86936   0.00000  Uiso   1.00
C232   C     0.87721   0.19169   0.95938   0.00000  Uiso   1.00
C233   C     0.89215   0.30584   0.00222   0.00000  Uiso   1.00
C234   C     0.87660   0.33239   0.08415   0.00000  Uiso   1.00
C235   C     0.86125   0.41976   0.21818   0.00000  Uiso   1.00
C236   C     0.84608   0.12512   0.81003   0.00000  Uiso   1.00
C237   C     0.83486   0.18329   0.72731   0.00000  Uiso   1.00
C238   C     0.79310   0.15379   0.68352   0.00000  Uiso   1.00
C239   C     0.72944   0.13775   0.58566   0.00000  Uiso   1.00
C240   C     0.90945   0.00758   0.88616   0.00000  Uiso   1.00
C241   C     0.95150   0.96691   0.86742   0.00000  Uiso   1.00
C242   C     0.96309   0.83843   0.88771   0.00000  Uiso   1.00
C243   C     0.99783   0.63990   0.90805   0.00000  Uiso   1.00
C244   C     0.83576   0.98788   0.93868   0.00000  Uiso   1.00
C245   C     0.84777   0.10704   0.99702   0.00000  Uiso   1.00
C246   C     0.83219   0.13341   0.07892   0.00000  Uiso   1.00
C247   C     0.84711   0.24758   0.12188   0.00000  Uiso   1.00
C248   C     0.81664   0.04048   0.84768   0.00000  Uiso   1.00
C249   C     0.77489   0.01087   0.80400   0.00000  Uiso   1.00
C250   C     0.76361   0.06899   0.72124   0.00000  Uiso   1.00
C251   C     0.88001   0.92293   0.92381   0.00000  Uiso   1.00
C252   C     0.89154   0.79449   0.94413   0.00000  Uiso   1.00
C253   C     0.93360   0.75363   0.92543   0.00000  Uiso   1.00
H254   H     0.91288   0.20963   0.84004   0.00000  Uiso   1.00
H255   H     0.91493   0.37133   0.97306   0.00000  Uiso   1.00
H256   H     0.85765   0.24879   0.69819   0.00000  Uiso   1.00
H257   H     0.97427   0.03244   0.83829   0.00000  Uiso   1.00
H258   H     0.90421   0.51329   0.13712   0.00000  Uiso   1.00
H259   H     0.78343   0.25488   0.55753   0.00000  Uiso   1.00
H260   H     0.02936   0.79867   0.85295   0.00000  Uiso   1.00
H261   H     0.81284   0.92197   0.96799   0.00000  Uiso   1.00
H262   H     0.80941   0.06789   0.10804   0.00000  Uiso   1.00
H263   H     0.75212   0.94535   0.83316   0.00000  Uiso   1.00
H264   H     0.86875   0.72901   0.97326   0.00000  Uiso   1.00
H265   H     0.81856   0.26701   0.24667   0.00000  Uiso   1.00
H266   H     0.69778   0.00859   0.66707   0.00000  Uiso   1.00
H267   H     0.94372   0.55239   0.96250   0.00000  Uiso   1.00
O268   O     0.86092   0.49135   0.28170   0.00000  Uiso   1.00
O269   O     0.70247   0.15230   0.52129   0.00000  Uiso   1.00
O270   O     0.02512   0.55378   0.90888   0.00000  Uiso   1.00
N271   N     0.88453   0.43529   0.14369   0.00000  Uiso   1.00
N272   N     0.77161   0.19371   0.60181   0.00000  Uiso   1.00
N273   N     0.00153   0.76718   0.87799   0.00000  Uiso   1.00
N274   N     0.83845   0.30277   0.20264   0.00000  Uiso   1.00
N275   N     0.72552   0.06119   0.66076   0.00000  Uiso   1.00
N276   N     0.95544   0.63466   0.93694   0.00000  Uiso   1.00
C277   C     0.61004   0.64373   0.63064   0.00000  Uiso   1.00
C278   C     0.62279   0.69169   0.54062   0.00000  Uiso   1.00
C279   C     0.60785   0.80584   0.49778   0.00000  Uiso   1.00
C280   C     0.62340   0.83239   0.41585   0.00000  Uiso   1.00
C281   C     0.63875   0.91976   0.28182   0.00000  Uiso   1.00
C282   C     0.65392   0.62512   0.68997   0.00000  Uiso   1.00
C283   C     0.66514   0.68329   0.77269   0.00000  Uiso   1.00
C284   C     0.70690   0.65379   0.81648   0.00000  Uiso   1.00
C285   C     0.77056   0.63775   0.91434   0.00000  Uiso   1.00
C286   C     0.59055   0.50758   0.61384   0.00000  Uiso   1.00
C287   C     0.54850   0.46691   0.63258   0.00000  Uiso   1.00
C288   C     0.53691   0.33843   0.61229   0.00000  Uiso   1.00
C289   C     0.50217   0.13990   0.59195   0.00000  Uiso   1.00
C290   C     0.66424   0.48788   0.56132   0.00000  Uiso   1.00
C291   C     0.65223   0.60704   0.50298   0.00000  Uiso   1.00
C292   C     0.66781   0.63341   0.42108   0.00000  Uiso   1.00
C293   C     0.65289   0.74758   0.37812   0.00000  Uiso   1.00
C294   C     0.68336   0.54048   0.65232   0.00000  Uiso   1.00
C295   C     0.72511   0.51087   0.69600   0.00000  Uiso   1.00
C296   C     0.73639   0.56899   0.77876   0.00000  Uiso   1.00
C297   C     0.61999   0.42293   0.57619   0.00000  Uiso   1.00
C298   C     0.60846   0.29449   0.55587   0.00000  Uiso   1.00
C299   C     0.56640   0.25363   0.57457   0.00000  Uiso   1.00
H300   H     0.58712   0.70963   0.65996   0.00000  Uiso   1.00
H301   H     0.58507   0.87133   0.52694   0.00000  Uiso   1.00
H302   H     0.64235   0.74879   0.80181   0.00000  Uiso   1.00
H303   H     0.52573   0.53244   0.66171   0.00000  Uiso   1.00
H304   H     0.59579   0.01329   0.36288   0.00000  Uiso   1.00
H305   H     0.71657   0.75488   0.94247   0.00000  Uiso   1.00
H306   H     0.47064   0.29867   0.64705   0.00000  Uiso   1.00
H307   H     0.68716   0.42197   0.53201   0.00000  Uiso   1.00
H308   H     0.69059   0.56789   0.39196   0.00000  Uiso   1.00
H309   H     0.74788   0.44535   0.66684   0.00000  Uiso   1.00
H310   H     0.63125   0.22901   0.52674   0.00000  Uiso   1.00
H311   H     0.68144   0.76701   0.25333   0.00000  Uiso   1.00
H312   H     0.80222   0.50859   0.83293   0.00000  Uiso   1.00
H313   H     0.55628   0.05239   0.53750   0.00000  Uiso   1.00
O314   O     0.63908   0.99135   0.21830   0.00000  Uiso   1.00
O315   O     0.79753   0.65230   0.97871   0.00000  Uiso   1.00
O316   O     0.47488   0.05378   0.59112   0.00000  Uiso   1.00
N317   N     0.61547   0.93529   0.35631   0.00000  Uiso   1.00
N318   N     0.72839   0.69371   0.89819   0.00000  Uiso   1.00
N319   N     0.49847   0.26718   0.62201   0.00000  Uiso   1.00
N320   N     0.66155   0.80277   0.29736   0.00000  Uiso   1.00
N321   N     0.77448   0.56119   0.83924   0.00000  Uiso   1.00
N322   N     0.54456   0.13466   0.56306   0.00000  Uiso   1.00
C323   C     0.11004   0.14373   0.63064   0.00000  Uiso   1.00
C324   C     0.12279   0.19169   0.54062   0.00000  Uiso   1.00
C325   C     0.10785   0.30584   0.49778   0.00000  Uiso   1.00
C326   C     0.12340   0.33239   0.41585   0.00000  Uiso   1.00
C327   C     0.13875   0.41976   0.28182   0.00000  Uiso   1.00
C328   C     0.15392   0.12512   0.68997   0.00000  Uiso   1.00
C329   C     0.16514   0.18329   0.77269   0.00000  Uiso   1.00
C330   C     0.20690   0.15379   0.81648   0.00000  Uiso   1.00
C331   C     0.27056   0.13775   0.91434   0.00000  Uiso   1.00
C332   C     0.09055   0.00758   0.61384   0.00000  Uiso   1.00
C333   C     0.04850   0.96691   0.63258   0.00000  Uiso   1.00
C334   C     0.03691   0.83843   0.61229   0.00000  Uiso   1.00
C335   C     0.00217   0.63990   0.59195   0.00000  Uiso   1.00
C336   C     0.16424   0.98788   0.56132   0.00000  Uiso   1.00
C337   C     0.15223   0.10704   0.50298   0.00000  Uiso   1.00
C338   C     0.16781   0.13341   0.42108   0.00000  Uiso   1.00
C339   C     0.15289   0.24758   0.37812   0.00000  Uiso   1.00
C340   C     0.18336   0.04048   0.65232   0.00000  Uiso   1.00
C341   C     0.22511   0.01087   0.69600   0.00000  Uiso   1.00
C342   C     0.23639   0.06899   0.77876   0.00000  Uiso   1.00
C343   C     0.11999   0.92293   0.57619   0.00000  Uiso   1.00
C344   C     0.10846   0.79449   0.55587   0.00000  Uiso   1.00
C345   C     0.06640   0.75363   0.57457   0.00000  Uiso   1.00
H346   H     0.08712   0.20963   0.65996   0.00000  Uiso   1.00
H347   H     0.08507   0.37133   0.52694   0.00000  Uiso   1.00
H348   H     0.14235   0.24879   0.80181   0.00000  Uiso   1.00
H349   H     0.02573   0.03244   0.66171   0.00000  Uiso   1.00
H350   H     0.09579   0.51329   0.36288   0.00000  Uiso   1.00
H351   H     0.21657   0.25488   0.94247   0.00000  Uiso   1.00
H352   H     0.97064   0.79867   0.64705   0.00000  Uiso   1.00
H353   H     0.18716   0.92197   0.53201   0.00000  Uiso   1.00
H354   H     0.19059   0.06789   0.39196   0.00000  Uiso   1.00
H355   H     0.24788   0.94535   0.66684   0.00000  Uiso   1.00
H356   H     0.13125   0.72901   0.52674   0.00000  Uiso   1.00
H357   H     0.18144   0.26701   0.25333   0.00000  Uiso   1.00
H358   H     0.30222   0.00859   0.83293   0.00000  Uiso   1.00
H359   H     0.05628   0.55239   0.53750   0.00000  Uiso   1.00
O360   O     0.13908   0.49135   0.21830   0.00000  Uiso   1.00
O361   O     0.29753   0.15230   0.97871   0.00000  Uiso   1.00
O362   O     0.97488   0.55378   0.59112   0.00000  Uiso   1.00
N363   N     0.11547   0.43529   0.35631   0.00000  Uiso   1.00
N364   N     0.22839   0.19371   0.89819   0.00000  Uiso   1.00
N365   N     0.99847   0.76718   0.62201   0.00000  Uiso   1.00
N366   N     0.16155   0.30277   0.29736   0.00000  Uiso   1.00
N367   N     0.27448   0.06119   0.83924   0.00000  Uiso   1.00
N368   N     0.04456   0.63466   0.56306   0.00000  Uiso   1.00
