data_job_01823
_audit_creation_date              2018-12-19
_audit_creation_method            'Materials Studio'
_symmetry_space_group_name_H-M    'P1'
_symmetry_Int_Tables_number       1
_symmetry_cell_setting            triclinic
loop_
_symmetry_equiv_pos_as_xyz
  x,y,z
_cell_length_a                    27.5686
_cell_length_b                    27.5686
_cell_length_c                    7.9146
_cell_angle_alpha                 90.0000
_cell_angle_beta                  90.0000
_cell_angle_gamma                 90.0000
loop_
_atom_site_label
_atom_site_type_symbol
_atom_site_fract_x
_atom_site_fract_y
_atom_site_fract_z
_atom_site_U_iso_or_equiv
_atom_site_adp_type
_atom_site_occupancy
C1     C     0.59599   0.29794   0.87883   0.00000  Uiso   1.00
C2     C     0.58694   0.33905   0.00383   0.00000  Uiso   1.00
C3     C     0.59800   0.38759   0.97773   0.00000  Uiso   1.00
C4     C     0.58690   0.41957   0.10758   0.00000  Uiso   1.00
C5     C     0.57613   0.48584   0.27883   0.00000  Uiso   1.00
C6     C     0.62709   0.26086   0.97208   0.00000  Uiso   1.00
C7     C     0.67190   0.24364   0.91926   0.00000  Uiso   1.00
C8     C     0.69459   0.20980   0.02237   0.00000  Uiso   1.00
C9     C     0.74614   0.15464   0.14426   0.00000  Uiso   1.00
C10    C     0.54694   0.27371   0.85042   0.00000  Uiso   1.00
C11    C     0.52436   0.26728   0.69530   0.00000  Uiso   1.00
C12    C     0.47958   0.24425   0.69598   0.00000  Uiso   1.00
C13    C     0.40668   0.20904   0.62896   0.00000  Uiso   1.00
C14    C     0.55660   0.26845   0.15586   0.00000  Uiso   1.00
C15    C     0.56555   0.32303   0.15431   0.00000  Uiso   1.00
C16    C     0.55442   0.35495   0.28423   0.00000  Uiso   1.00
C17    C     0.56546   0.40352   0.25832   0.00000  Uiso   1.00
C18    C     0.60570   0.24483   0.12255   0.00000  Uiso   1.00
C19    C     0.62833   0.21101   0.22576   0.00000  Uiso   1.00
C20    C     0.67316   0.19375   0.17312   0.00000  Uiso   1.00
C21    C     0.52555   0.25768   0.00089   0.00000  Uiso   1.00
C22    C     0.48079   0.23465   0.00181   0.00000  Uiso   1.00
C23    C     0.45815   0.22820   0.84672   0.00000  Uiso   1.00
H24    H     0.61264   0.31041   0.76168   0.00000  Uiso   1.00
H25    H     0.61456   0.39997   0.86127   0.00000  Uiso   1.00
H26    H     0.68844   0.25604   0.80280   0.00000  Uiso   1.00
H27    H     0.54093   0.27968   0.57888   0.00000  Uiso   1.00
H28    H     0.60726   0.49219   0.03806   0.00000  Uiso   1.00
H29    H     0.76305   0.18870   0.91475   0.00000  Uiso   1.00
H30    H     0.45199   0.23855   0.44257   0.00000  Uiso   1.00
H31    H     0.53995   0.25597   0.27301   0.00000  Uiso   1.00
H32    H     0.53787   0.34254   0.40066   0.00000  Uiso   1.00
H33    H     0.61176   0.19862   0.34219   0.00000  Uiso   1.00
H34    H     0.46425   0.22226   0.11827   0.00000  Uiso   1.00
H35    H     0.54502   0.44558   0.47586   0.00000  Uiso   1.00
H36    H     0.70081   0.14209   0.35254   0.00000  Uiso   1.00
H37    H     0.38975   0.19194   0.88036   0.00000  Uiso   1.00
O38    O     0.57611   0.52681   0.33173   0.00000  Uiso   1.00
O39    O     0.78049   0.12864   0.16993   0.00000  Uiso   1.00
O40    O     0.37238   0.19405   0.55044   0.00000  Uiso   1.00
N41    N     0.59289   0.46934   0.12357   0.00000  Uiso   1.00
N42    N     0.73855   0.18560   0.00829   0.00000  Uiso   1.00
N43    N     0.44773   0.23220   0.56683   0.00000  Uiso   1.00
N44    N     0.55940   0.44426   0.35914   0.00000  Uiso   1.00
N45    N     0.70506   0.16052   0.24386   0.00000  Uiso   1.00
N46    N     0.41424   0.20712   0.80240   0.00000  Uiso   1.00
C47    C     0.40401   0.70206   0.87883   0.00000  Uiso   1.00
C48    C     0.41306   0.66095   0.00383   0.00000  Uiso   1.00
C49    C     0.40200   0.61241   0.97773   0.00000  Uiso   1.00
C50    C     0.41310   0.58043   0.10758   0.00000  Uiso   1.00
C51    C     0.42387   0.51416   0.27883   0.00000  Uiso   1.00
C52    C     0.37291   0.73914   0.97208   0.00000  Uiso   1.00
C53    C     0.32810   0.75636   0.91926   0.00000  Uiso   1.00
C54    C     0.30541   0.79020   0.02237   0.00000  Uiso   1.00
C55    C     0.25386   0.84536   0.14426   0.00000  Uiso   1.00
C56    C     0.45306   0.72629   0.85042   0.00000  Uiso   1.00
C57    C     0.47564   0.73272   0.69530   0.00000  Uiso   1.00
C58    C     0.52042   0.75575   0.69598   0.00000  Uiso   1.00
C59    C     0.59332   0.79096   0.62896   0.00000  Uiso   1.00
C60    C     0.44340   0.73155   0.15586   0.00000  Uiso   1.00
C61    C     0.43445   0.67697   0.15431   0.00000  Uiso   1.00
C62    C     0.44558   0.64505   0.28423   0.00000  Uiso   1.00
C63    C     0.43454   0.59648   0.25832   0.00000  Uiso   1.00
C64    C     0.39430   0.75517   0.12255   0.00000  Uiso   1.00
C65    C     0.37167   0.78899   0.22576   0.00000  Uiso   1.00
C66    C     0.32684   0.80625   0.17312   0.00000  Uiso   1.00
C67    C     0.47445   0.74232   0.00089   0.00000  Uiso   1.00
C68    C     0.51921   0.76535   0.00181   0.00000  Uiso   1.00
C69    C     0.54185   0.77180   0.84672   0.00000  Uiso   1.00
H70    H     0.38736   0.68959   0.76168   0.00000  Uiso   1.00
H71    H     0.38544   0.60003   0.86127   0.00000  Uiso   1.00
H72    H     0.31156   0.74396   0.80280   0.00000  Uiso   1.00
H73    H     0.45907   0.72032   0.57888   0.00000  Uiso   1.00
H74    H     0.39274   0.50781   0.03806   0.00000  Uiso   1.00
H75    H     0.23695   0.81130   0.91475   0.00000  Uiso   1.00
H76    H     0.54801   0.76145   0.44257   0.00000  Uiso   1.00
H77    H     0.46005   0.74403   0.27301   0.00000  Uiso   1.00
H78    H     0.46213   0.65746   0.40066   0.00000  Uiso   1.00
H79    H     0.38824   0.80138   0.34219   0.00000  Uiso   1.00
H80    H     0.53575   0.77774   0.11827   0.00000  Uiso   1.00
H81    H     0.45498   0.55442   0.47586   0.00000  Uiso   1.00
H82    H     0.29919   0.85791   0.35254   0.00000  Uiso   1.00
H83    H     0.61025   0.80806   0.88036   0.00000  Uiso   1.00
O84    O     0.42389   0.47319   0.33173   0.00000  Uiso   1.00
O85    O     0.21951   0.87136   0.16993   0.00000  Uiso   1.00
O86    O     0.62762   0.80595   0.55044   0.00000  Uiso   1.00
N87    N     0.40711   0.53066   0.12357   0.00000  Uiso   1.00
N88    N     0.26145   0.81440   0.00829   0.00000  Uiso   1.00
N89    N     0.55227   0.76780   0.56683   0.00000  Uiso   1.00
N90    N     0.44060   0.55574   0.35914   0.00000  Uiso   1.00
N91    N     0.29494   0.83948   0.24386   0.00000  Uiso   1.00
N92    N     0.58576   0.79288   0.80240   0.00000  Uiso   1.00
C93    C     0.20206   0.09599   0.87883   0.00000  Uiso   1.00
C94    C     0.16095   0.08694   0.00383   0.00000  Uiso   1.00
C95    C     0.11241   0.09800   0.97773   0.00000  Uiso   1.00
C96    C     0.08043   0.08690   0.10758   0.00000  Uiso   1.00
C97    C     0.01416   0.07613   0.27883   0.00000  Uiso   1.00
C98    C     0.23914   0.12709   0.97208   0.00000  Uiso   1.00
C99    C     0.25636   0.17190   0.91926   0.00000  Uiso   1.00
C100   C     0.29020   0.19459   0.02237   0.00000  Uiso   1.00
C101   C     0.34536   0.24614   0.14426   0.00000  Uiso   1.00
C102   C     0.22629   0.04694   0.85042   0.00000  Uiso   1.00
C103   C     0.23272   0.02436   0.69530   0.00000  Uiso   1.00
C104   C     0.25575   0.97958   0.69598   0.00000  Uiso   1.00
C105   C     0.29096   0.90668   0.62896   0.00000  Uiso   1.00
C106   C     0.23155   0.05660   0.15586   0.00000  Uiso   1.00
C107   C     0.17697   0.06555   0.15431   0.00000  Uiso   1.00
C108   C     0.14505   0.05442   0.28423   0.00000  Uiso   1.00
C109   C     0.09648   0.06546   0.25832   0.00000  Uiso   1.00
C110   C     0.25517   0.10570   0.12255   0.00000  Uiso   1.00
C111   C     0.28899   0.12833   0.22576   0.00000  Uiso   1.00
C112   C     0.30625   0.17316   0.17312   0.00000  Uiso   1.00
C113   C     0.24232   0.02555   0.00089   0.00000  Uiso   1.00
C114   C     0.26535   0.98079   0.00181   0.00000  Uiso   1.00
C115   C     0.27180   0.95815   0.84672   0.00000  Uiso   1.00
H116   H     0.18959   0.11264   0.76168   0.00000  Uiso   1.00
H117   H     0.10003   0.11456   0.86127   0.00000  Uiso   1.00
H118   H     0.24396   0.18844   0.80280   0.00000  Uiso   1.00
H119   H     0.22032   0.04093   0.57888   0.00000  Uiso   1.00
H120   H     0.00781   0.10726   0.03806   0.00000  Uiso   1.00
H121   H     0.31130   0.26305   0.91475   0.00000  Uiso   1.00
H122   H     0.26145   0.95199   0.44257   0.00000  Uiso   1.00
H123   H     0.24403   0.03995   0.27301   0.00000  Uiso   1.00
H124   H     0.15746   0.03787   0.40066   0.00000  Uiso   1.00
H125   H     0.30138   0.11176   0.34219   0.00000  Uiso   1.00
H126   H     0.27774   0.96425   0.11827   0.00000  Uiso   1.00
H127   H     0.05442   0.04502   0.47586   0.00000  Uiso   1.00
H128   H     0.35791   0.20081   0.35254   0.00000  Uiso   1.00
H129   H     0.30806   0.88975   0.88036   0.00000  Uiso   1.00
O130   O     0.97319   0.07611   0.33173   0.00000  Uiso   1.00
O131   O     0.37136   0.28049   0.16993   0.00000  Uiso   1.00
O132   O     0.30595   0.87238   0.55044   0.00000  Uiso   1.00
N133   N     0.03066   0.09289   0.12357   0.00000  Uiso   1.00
N134   N     0.31440   0.23855   0.00829   0.00000  Uiso   1.00
N135   N     0.26780   0.94773   0.56683   0.00000  Uiso   1.00
N136   N     0.05574   0.05940   0.35914   0.00000  Uiso   1.00
N137   N     0.33948   0.20506   0.24386   0.00000  Uiso   1.00
N138   N     0.29288   0.91424   0.80240   0.00000  Uiso   1.00
C139   C     0.79794   0.90401   0.87883   0.00000  Uiso   1.00
C140   C     0.83905   0.91306   0.00383   0.00000  Uiso   1.00
C141   C     0.88759   0.90200   0.97773   0.00000  Uiso   1.00
C142   C     0.91957   0.91310   0.10758   0.00000  Uiso   1.00
C143   C     0.98584   0.92387   0.27883   0.00000  Uiso   1.00
C144   C     0.76086   0.87291   0.97208   0.00000  Uiso   1.00
C145   C     0.74364   0.82810   0.91926   0.00000  Uiso   1.00
C146   C     0.70980   0.80541   0.02237   0.00000  Uiso   1.00
C147   C     0.65464   0.75386   0.14426   0.00000  Uiso   1.00
C148   C     0.77371   0.95306   0.85042   0.00000  Uiso   1.00
C149   C     0.76728   0.97564   0.69530   0.00000  Uiso   1.00
C150   C     0.74425   0.02042   0.69598   0.00000  Uiso   1.00
C151   C     0.70904   0.09332   0.62896   0.00000  Uiso   1.00
C152   C     0.76845   0.94340   0.15586   0.00000  Uiso   1.00
C153   C     0.82303   0.93445   0.15431   0.00000  Uiso   1.00
C154   C     0.85495   0.94558   0.28423   0.00000  Uiso   1.00
C155   C     0.90352   0.93454   0.25832   0.00000  Uiso   1.00
C156   C     0.74483   0.89430   0.12255   0.00000  Uiso   1.00
C157   C     0.71101   0.87167   0.22576   0.00000  Uiso   1.00
C158   C     0.69375   0.82684   0.17312   0.00000  Uiso   1.00
C159   C     0.75768   0.97445   0.00089   0.00000  Uiso   1.00
C160   C     0.73465   0.01921   0.00181   0.00000  Uiso   1.00
C161   C     0.72820   0.04185   0.84672   0.00000  Uiso   1.00
H162   H     0.81041   0.88736   0.76168   0.00000  Uiso   1.00
H163   H     0.89997   0.88544   0.86127   0.00000  Uiso   1.00
H164   H     0.75604   0.81156   0.80280   0.00000  Uiso   1.00
H165   H     0.77968   0.95907   0.57888   0.00000  Uiso   1.00
H166   H     0.99219   0.89274   0.03806   0.00000  Uiso   1.00
H167   H     0.68870   0.73695   0.91475   0.00000  Uiso   1.00
H168   H     0.73855   0.04801   0.44257   0.00000  Uiso   1.00
H169   H     0.75597   0.96005   0.27301   0.00000  Uiso   1.00
H170   H     0.84254   0.96213   0.40066   0.00000  Uiso   1.00
H171   H     0.69862   0.88824   0.34219   0.00000  Uiso   1.00
H172   H     0.72226   0.03575   0.11827   0.00000  Uiso   1.00
H173   H     0.94558   0.95498   0.47586   0.00000  Uiso   1.00
H174   H     0.64209   0.79919   0.35254   0.00000  Uiso   1.00
H175   H     0.69194   0.11025   0.88036   0.00000  Uiso   1.00
O176   O     0.02681   0.92389   0.33173   0.00000  Uiso   1.00
O177   O     0.62864   0.71951   0.16993   0.00000  Uiso   1.00
O178   O     0.69405   0.12762   0.55044   0.00000  Uiso   1.00
N179   N     0.96934   0.90711   0.12357   0.00000  Uiso   1.00
N180   N     0.68560   0.76145   0.00829   0.00000  Uiso   1.00
N181   N     0.73220   0.05227   0.56683   0.00000  Uiso   1.00
N182   N     0.94426   0.94060   0.35914   0.00000  Uiso   1.00
N183   N     0.66052   0.79494   0.24386   0.00000  Uiso   1.00
N184   N     0.70712   0.08576   0.80240   0.00000  Uiso   1.00
C185   C     0.90401   0.20206   0.12117   0.00000  Uiso   1.00
C186   C     0.91306   0.16095   0.99617   0.00000  Uiso   1.00
C187   C     0.90200   0.11241   0.02227   0.00000  Uiso   1.00
C188   C     0.91310   0.08043   0.89242   0.00000  Uiso   1.00
C189   C     0.92387   0.01416   0.72117   0.00000  Uiso   1.00
C190   C     0.87291   0.23914   0.02792   0.00000  Uiso   1.00
C191   C     0.82810   0.25636   0.08074   0.00000  Uiso   1.00
C192   C     0.80541   0.29020   0.97763   0.00000  Uiso   1.00
C193   C     0.75386   0.34536   0.85574   0.00000  Uiso   1.00
C194   C     0.95306   0.22629   0.14958   0.00000  Uiso   1.00
C195   C     0.97564   0.23272   0.30470   0.00000  Uiso   1.00
C196   C     0.02042   0.25575   0.30402   0.00000  Uiso   1.00
C197   C     0.09332   0.29096   0.37104   0.00000  Uiso   1.00
C198   C     0.94340   0.23155   0.84414   0.00000  Uiso   1.00
C199   C     0.93445   0.17697   0.84569   0.00000  Uiso   1.00
C200   C     0.94558   0.14505   0.71577   0.00000  Uiso   1.00
C201   C     0.93454   0.09648   0.74168   0.00000  Uiso   1.00
C202   C     0.89430   0.25517   0.87745   0.00000  Uiso   1.00
C203   C     0.87167   0.28899   0.77424   0.00000  Uiso   1.00
C204   C     0.82684   0.30625   0.82688   0.00000  Uiso   1.00
C205   C     0.97445   0.24232   0.99911   0.00000  Uiso   1.00
C206   C     0.01921   0.26535   0.99819   0.00000  Uiso   1.00
C207   C     0.04185   0.27180   0.15328   0.00000  Uiso   1.00
H208   H     0.88736   0.18959   0.23832   0.00000  Uiso   1.00
H209   H     0.88544   0.10003   0.13873   0.00000  Uiso   1.00
H210   H     0.81156   0.24396   0.19720   0.00000  Uiso   1.00
H211   H     0.95907   0.22032   0.42112   0.00000  Uiso   1.00
H212   H     0.89274   0.00781   0.96194   0.00000  Uiso   1.00
H213   H     0.73695   0.31130   0.08525   0.00000  Uiso   1.00
H214   H     0.04801   0.26145   0.55743   0.00000  Uiso   1.00
H215   H     0.96005   0.24403   0.72699   0.00000  Uiso   1.00
H216   H     0.96213   0.15746   0.59934   0.00000  Uiso   1.00
H217   H     0.88824   0.30138   0.65781   0.00000  Uiso   1.00
H218   H     0.03575   0.27774   0.88173   0.00000  Uiso   1.00
H219   H     0.95498   0.05442   0.52414   0.00000  Uiso   1.00
H220   H     0.79919   0.35791   0.64746   0.00000  Uiso   1.00
H221   H     0.11025   0.30806   0.11964   0.00000  Uiso   1.00
O222   O     0.92389   0.97319   0.66827   0.00000  Uiso   1.00
O223   O     0.71951   0.37136   0.83007   0.00000  Uiso   1.00
O224   O     0.12762   0.30595   0.44956   0.00000  Uiso   1.00
N225   N     0.90711   0.03066   0.87643   0.00000  Uiso   1.00
N226   N     0.76145   0.31440   0.99171   0.00000  Uiso   1.00
N227   N     0.05227   0.26780   0.43317   0.00000  Uiso   1.00
N228   N     0.94060   0.05574   0.64086   0.00000  Uiso   1.00
N229   N     0.79494   0.33948   0.75614   0.00000  Uiso   1.00
N230   N     0.08576   0.29288   0.19760   0.00000  Uiso   1.00
C231   C     0.09599   0.79794   0.12117   0.00000  Uiso   1.00
C232   C     0.08694   0.83905   0.99617   0.00000  Uiso   1.00
C233   C     0.09800   0.88759   0.02227   0.00000  Uiso   1.00
C234   C     0.08690   0.91957   0.89242   0.00000  Uiso   1.00
C235   C     0.07613   0.98584   0.72117   0.00000  Uiso   1.00
C236   C     0.12709   0.76086   0.02792   0.00000  Uiso   1.00
C237   C     0.17190   0.74364   0.08074   0.00000  Uiso   1.00
C238   C     0.19459   0.70980   0.97763   0.00000  Uiso   1.00
C239   C     0.24614   0.65464   0.85574   0.00000  Uiso   1.00
C240   C     0.04694   0.77371   0.14958   0.00000  Uiso   1.00
C241   C     0.02436   0.76728   0.30470   0.00000  Uiso   1.00
C242   C     0.97958   0.74425   0.30402   0.00000  Uiso   1.00
C243   C     0.90668   0.70904   0.37104   0.00000  Uiso   1.00
C244   C     0.05660   0.76845   0.84414   0.00000  Uiso   1.00
C245   C     0.06555   0.82303   0.84569   0.00000  Uiso   1.00
C246   C     0.05442   0.85495   0.71577   0.00000  Uiso   1.00
C247   C     0.06546   0.90352   0.74168   0.00000  Uiso   1.00
C248   C     0.10570   0.74483   0.87745   0.00000  Uiso   1.00
C249   C     0.12833   0.71101   0.77424   0.00000  Uiso   1.00
C250   C     0.17316   0.69375   0.82688   0.00000  Uiso   1.00
C251   C     0.02555   0.75768   0.99911   0.00000  Uiso   1.00
C252   C     0.98079   0.73465   0.99819   0.00000  Uiso   1.00
C253   C     0.95815   0.72820   0.15328   0.00000  Uiso   1.00
H254   H     0.11264   0.81041   0.23832   0.00000  Uiso   1.00
H255   H     0.11456   0.89997   0.13873   0.00000  Uiso   1.00
H256   H     0.18844   0.75604   0.19720   0.00000  Uiso   1.00
H257   H     0.04093   0.77968   0.42112   0.00000  Uiso   1.00
H258   H     0.10726   0.99219   0.96194   0.00000  Uiso   1.00
H259   H     0.26305   0.68870   0.08525   0.00000  Uiso   1.00
H260   H     0.95199   0.73855   0.55743   0.00000  Uiso   1.00
H261   H     0.03995   0.75597   0.72699   0.00000  Uiso   1.00
H262   H     0.03787   0.84254   0.59934   0.00000  Uiso   1.00
H263   H     0.11176   0.69862   0.65781   0.00000  Uiso   1.00
H264   H     0.96425   0.72226   0.88173   0.00000  Uiso   1.00
H265   H     0.04502   0.94558   0.52414   0.00000  Uiso   1.00
H266   H     0.20081   0.64209   0.64746   0.00000  Uiso   1.00
H267   H     0.88975   0.69194   0.11964   0.00000  Uiso   1.00
O268   O     0.07611   0.02681   0.66827   0.00000  Uiso   1.00
O269   O     0.28049   0.62864   0.83007   0.00000  Uiso   1.00
O270   O     0.87238   0.69405   0.44956   0.00000  Uiso   1.00
N271   N     0.09289   0.96934   0.87643   0.00000  Uiso   1.00
N272   N     0.23855   0.68560   0.99171   0.00000  Uiso   1.00
N273   N     0.94773   0.73220   0.43317   0.00000  Uiso   1.00
N274   N     0.05940   0.94426   0.64086   0.00000  Uiso   1.00
N275   N     0.20506   0.66052   0.75614   0.00000  Uiso   1.00
N276   N     0.91424   0.70712   0.19760   0.00000  Uiso   1.00
C277   C     0.29794   0.40401   0.12117   0.00000  Uiso   1.00
C278   C     0.33905   0.41306   0.99617   0.00000  Uiso   1.00
C279   C     0.38759   0.40200   0.02227   0.00000  Uiso   1.00
C280   C     0.41957   0.41310   0.89242   0.00000  Uiso   1.00
C281   C     0.48584   0.42387   0.72117   0.00000  Uiso   1.00
C282   C     0.26086   0.37291   0.02792   0.00000  Uiso   1.00
C283   C     0.24364   0.32810   0.08074   0.00000  Uiso   1.00
C284   C     0.20980   0.30541   0.97763   0.00000  Uiso   1.00
C285   C     0.15464   0.25386   0.85574   0.00000  Uiso   1.00
C286   C     0.27371   0.45306   0.14958   0.00000  Uiso   1.00
C287   C     0.26728   0.47564   0.30470   0.00000  Uiso   1.00
C288   C     0.24425   0.52042   0.30402   0.00000  Uiso   1.00
C289   C     0.20904   0.59332   0.37104   0.00000  Uiso   1.00
C290   C     0.26845   0.44340   0.84414   0.00000  Uiso   1.00
C291   C     0.32303   0.43445   0.84569   0.00000  Uiso   1.00
C292   C     0.35495   0.44558   0.71577   0.00000  Uiso   1.00
C293   C     0.40352   0.43454   0.74168   0.00000  Uiso   1.00
C294   C     0.24483   0.39430   0.87745   0.00000  Uiso   1.00
C295   C     0.21101   0.37167   0.77424   0.00000  Uiso   1.00
C296   C     0.19375   0.32684   0.82688   0.00000  Uiso   1.00
C297   C     0.25768   0.47445   0.99911   0.00000  Uiso   1.00
C298   C     0.23465   0.51921   0.99819   0.00000  Uiso   1.00
C299   C     0.22820   0.54185   0.15328   0.00000  Uiso   1.00
H300   H     0.31041   0.38736   0.23832   0.00000  Uiso   1.00
H301   H     0.39997   0.38544   0.13873   0.00000  Uiso   1.00
H302   H     0.25604   0.31156   0.19720   0.00000  Uiso   1.00
H303   H     0.27968   0.45907   0.42112   0.00000  Uiso   1.00
H304   H     0.49219   0.39274   0.96194   0.00000  Uiso   1.00
H305   H     0.18870   0.23695   0.08525   0.00000  Uiso   1.00
H306   H     0.23855   0.54801   0.55743   0.00000  Uiso   1.00
H307   H     0.25597   0.46005   0.72699   0.00000  Uiso   1.00
H308   H     0.34254   0.46213   0.59934   0.00000  Uiso   1.00
H309   H     0.19862   0.38824   0.65781   0.00000  Uiso   1.00
H310   H     0.22226   0.53575   0.88173   0.00000  Uiso   1.00
H311   H     0.44558   0.45498   0.52414   0.00000  Uiso   1.00
H312   H     0.14209   0.29919   0.64746   0.00000  Uiso   1.00
H313   H     0.19194   0.61025   0.11964   0.00000  Uiso   1.00
O314   O     0.52681   0.42389   0.66827   0.00000  Uiso   1.00
O315   O     0.12864   0.21951   0.83007   0.00000  Uiso   1.00
O316   O     0.19405   0.62762   0.44956   0.00000  Uiso   1.00
N317   N     0.46934   0.40711   0.87643   0.00000  Uiso   1.00
N318   N     0.18560   0.26145   0.99171   0.00000  Uiso   1.00
N319   N     0.23220   0.55227   0.43317   0.00000  Uiso   1.00
N320   N     0.44426   0.44060   0.64086   0.00000  Uiso   1.00
N321   N     0.16052   0.29494   0.75614   0.00000  Uiso   1.00
N322   N     0.20712   0.58576   0.19760   0.00000  Uiso   1.00
C323   C     0.70206   0.59599   0.12117   0.00000  Uiso   1.00
C324   C     0.66095   0.58694   0.99617   0.00000  Uiso   1.00
C325   C     0.61241   0.59800   0.02227   0.00000  Uiso   1.00
C326   C     0.58043   0.58690   0.89242   0.00000  Uiso   1.00
C327   C     0.51416   0.57613   0.72117   0.00000  Uiso   1.00
C328   C     0.73914   0.62709   0.02792   0.00000  Uiso   1.00
C329   C     0.75636   0.67190   0.08074   0.00000  Uiso   1.00
C330   C     0.79020   0.69459   0.97763   0.00000  Uiso   1.00
C331   C     0.84536   0.74614   0.85574   0.00000  Uiso   1.00
C332   C     0.72629   0.54694   0.14958   0.00000  Uiso   1.00
C333   C     0.73272   0.52436   0.30470   0.00000  Uiso   1.00
C334   C     0.75575   0.47958   0.30402   0.00000  Uiso   1.00
C335   C     0.79096   0.40668   0.37104   0.00000  Uiso   1.00
C336   C     0.73155   0.55660   0.84414   0.00000  Uiso   1.00
C337   C     0.67697   0.56555   0.84569   0.00000  Uiso   1.00
C338   C     0.64505   0.55442   0.71577   0.00000  Uiso   1.00
C339   C     0.59648   0.56546   0.74168   0.00000  Uiso   1.00
C340   C     0.75517   0.60570   0.87745   0.00000  Uiso   1.00
C341   C     0.78899   0.62833   0.77424   0.00000  Uiso   1.00
C342   C     0.80625   0.67316   0.82688   0.00000  Uiso   1.00
C343   C     0.74232   0.52555   0.99911   0.00000  Uiso   1.00
C344   C     0.76535   0.48079   0.99819   0.00000  Uiso   1.00
C345   C     0.77180   0.45815   0.15328   0.00000  Uiso   1.00
H346   H     0.68959   0.61264   0.23832   0.00000  Uiso   1.00
H347   H     0.60003   0.61456   0.13873   0.00000  Uiso   1.00
H348   H     0.74396   0.68844   0.19720   0.00000  Uiso   1.00
H349   H     0.72032   0.54093   0.42112   0.00000  Uiso   1.00
H350   H     0.50781   0.60726   0.96194   0.00000  Uiso   1.00
H351   H     0.81130   0.76305   0.08525   0.00000  Uiso   1.00
H352   H     0.76145   0.45199   0.55743   0.00000  Uiso   1.00
H353   H     0.74403   0.53995   0.72699   0.00000  Uiso   1.00
H354   H     0.65746   0.53787   0.59934   0.00000  Uiso   1.00
H355   H     0.80138   0.61176   0.65781   0.00000  Uiso   1.00
H356   H     0.77774   0.46425   0.88173   0.00000  Uiso   1.00
H357   H     0.55442   0.54502   0.52414   0.00000  Uiso   1.00
H358   H     0.85791   0.70081   0.64746   0.00000  Uiso   1.00
H359   H     0.80806   0.38975   0.11964   0.00000  Uiso   1.00
O360   O     0.47319   0.57611   0.66827   0.00000  Uiso   1.00
O361   O     0.87136   0.78049   0.83007   0.00000  Uiso   1.00
O362   O     0.80595   0.37238   0.44956   0.00000  Uiso   1.00
N363   N     0.53066   0.59289   0.87643   0.00000  Uiso   1.00
N364   N     0.81440   0.73855   0.99171   0.00000  Uiso   1.00
N365   N     0.76780   0.44773   0.43317   0.00000  Uiso   1.00
N366   N     0.55574   0.55940   0.64086   0.00000  Uiso   1.00
N367   N     0.83948   0.70506   0.75614   0.00000  Uiso   1.00
N368   N     0.79288   0.41424   0.19760   0.00000  Uiso   1.00
