data_job_06480
_audit_creation_date              2018-12-19
_audit_creation_method            'Materials Studio'
_symmetry_space_group_name_H-M    'P1'
_symmetry_Int_Tables_number       1
_symmetry_cell_setting            triclinic
loop_
_symmetry_equiv_pos_as_xyz
  x,y,z
_cell_length_a                    20.6910
_cell_length_b                    21.4735
_cell_length_c                    21.8389
_cell_angle_alpha                 112.0194
_cell_angle_beta                  113.3180
_cell_angle_gamma                 100.2295
loop_
_atom_site_label
_atom_site_type_symbol
_atom_site_fract_x
_atom_site_fract_y
_atom_site_fract_z
_atom_site_U_iso_or_equiv
_atom_site_adp_type
_atom_site_occupancy
C1     C     0.10971   0.94917   0.78572   0.00000  Uiso   1.00
C2     C     0.19368   0.98125   0.81117   0.00000  Uiso   1.00
C3     C     0.22832   0.04189   0.80978   0.00000  Uiso   1.00
C4     C     0.30575   0.06259   0.83547   0.00000  Uiso   1.00
C5     C     0.42985   0.11827   0.87098   0.00000  Uiso   1.00
C6     C     0.07958   0.86992   0.72469   0.00000  Uiso   1.00
C7     C     0.01829   0.83696   0.65057   0.00000  Uiso   1.00
C8     C     0.99967   0.76393   0.60346   0.00000  Uiso   1.00
C9     C     0.94660   0.64676   0.50472   0.00000  Uiso   1.00
C10    C     0.10788   0.94761   0.85426   0.00000  Uiso   1.00
C11    C     0.07036   0.97994   0.88909   0.00000  Uiso   1.00
C12    C     0.07555   0.97230   0.95107   0.00000  Uiso   1.00
C13    C     0.06643   0.97573   0.05351   0.00000  Uiso   1.00
C14    C     0.18562   0.87809   0.83383   0.00000  Uiso   1.00
C15    C     0.23491   0.94265   0.83730   0.00000  Uiso   1.00
C16    C     0.31231   0.96326   0.86301   0.00000  Uiso   1.00
C17    C     0.34706   0.02392   0.86165   0.00000  Uiso   1.00
C18    C     0.12081   0.83132   0.75081   0.00000  Uiso   1.00
C19    C     0.10227   0.75832   0.70380   0.00000  Uiso   1.00
C20    C     0.04097   0.72526   0.62964   0.00000  Uiso   1.00
C21    C     0.14911   0.90900   0.88040   0.00000  Uiso   1.00
C22    C     0.15436   0.90131   0.94232   0.00000  Uiso   1.00
C23    C     0.11686   0.93362   0.97724   0.00000  Uiso   1.00
H24    H     0.07760   0.97922   0.76537   0.00000  Uiso   1.00
H25    H     0.19639   0.07175   0.78954   0.00000  Uiso   1.00
H26    H     0.98639   0.86685   0.63037   0.00000  Uiso   1.00
H27    H     0.03846   0.00981   0.86885   0.00000  Uiso   1.00
H28    H     0.34626   0.15730   0.82784   0.00000  Uiso   1.00
H29    H     0.90345   0.72524   0.49222   0.00000  Uiso   1.00
H30    H     0.01325   0.02670   0.99511   0.00000  Uiso   1.00
H31    H     0.21772   0.84803   0.85418   0.00000  Uiso   1.00
H32    H     0.34420   0.93337   0.88323   0.00000  Uiso   1.00
H33    H     0.13419   0.72847   0.72405   0.00000  Uiso   1.00
H34    H     0.18627   0.87143   0.96253   0.00000  Uiso   1.00
H35    H     0.46623   0.04499   0.90387   0.00000  Uiso   1.00
H36    H     0.02341   0.61293   0.56825   0.00000  Uiso   1.00
H37    H     0.13322   0.91439   0.07114   0.00000  Uiso   1.00
O38    O     0.48691   0.15964   0.88334   0.00000  Uiso   1.00
O39    O     0.90595   0.59279   0.44302   0.00000  Uiso   1.00
O40    O     0.05001   0.98830   0.10281   0.00000  Uiso   1.00
N41    N     0.35714   0.11917   0.84176   0.00000  Uiso   1.00
N42    N     0.94314   0.71522   0.52797   0.00000  Uiso   1.00
N43    N     0.04578   0.99704   0.99812   0.00000  Uiso   1.00
N44    N     0.42170   0.05873   0.88267   0.00000  Uiso   1.00
N45    N     0.00769   0.65478   0.56889   0.00000  Uiso   1.00
N46    N     0.11034   0.93661   0.03904   0.00000  Uiso   1.00
C47    C     0.66854   0.81851   0.00531   0.00000  Uiso   1.00
C48    C     0.61080   0.79863   0.92416   0.00000  Uiso   1.00
C49    C     0.58264   0.84552   0.90245   0.00000  Uiso   1.00
C50    C     0.53021   0.81685   0.82542   0.00000  Uiso   1.00
C51    C     0.44410   0.79707   0.70754   0.00000  Uiso   1.00
C52    C     0.63086   0.76587   0.02377   0.00000  Uiso   1.00
C53    C     0.61957   0.78523   0.08582   0.00000  Uiso   1.00
C54    C     0.58403   0.72898   0.09264   0.00000  Uiso   1.00
C55    C     0.52911   0.65835   0.12943   0.00000  Uiso   1.00
C56    C     0.73444   0.79900   0.00070   0.00000  Uiso   1.00
C57    C     0.81025   0.84620   0.04336   0.00000  Uiso   1.00
C58    C     0.86192   0.81784   0.03077   0.00000  Uiso   1.00
C59    C     0.96781   0.79863   0.03174   0.00000  Uiso   1.00
C60    C     0.62549   0.68421   0.90710   0.00000  Uiso   1.00
C61    C     0.58742   0.72568   0.87082   0.00000  Uiso   1.00
C62    C     0.53502   0.69693   0.79380   0.00000  Uiso   1.00
C63    C     0.50679   0.74378   0.77198   0.00000  Uiso   1.00
C64    C     0.60748   0.69293   0.97043   0.00000  Uiso   1.00
C65    C     0.57195   0.63664   0.97716   0.00000  Uiso   1.00
C66    C     0.56061   0.65591   0.03920   0.00000  Uiso   1.00
C67    C     0.71106   0.72605   0.94736   0.00000  Uiso   1.00
C68    C     0.76262   0.69761   0.93470   0.00000  Uiso   1.00
C69    C     0.83850   0.74476   0.97733   0.00000  Uiso   1.00
H70    H     0.68674   0.87530   0.04684   0.00000  Uiso   1.00
H71    H     0.60075   0.90197   0.94376   0.00000  Uiso   1.00
H72    H     0.63768   0.84168   0.12709   0.00000  Uiso   1.00
H73    H     0.82832   0.90264   0.08464   0.00000  Uiso   1.00
H74    H     0.49508   0.89936   0.80594   0.00000  Uiso   1.00
H75    H     0.57298   0.77224   0.19254   0.00000  Uiso   1.00
H76    H     0.97498   0.90079   0.10301   0.00000  Uiso   1.00
H77    H     0.60729   0.62741   0.86557   0.00000  Uiso   1.00
H78    H     0.51694   0.64048   0.75253   0.00000  Uiso   1.00
H79    H     0.55387   0.58020   0.93587   0.00000  Uiso   1.00
H80    H     0.74451   0.64116   0.89342   0.00000  Uiso   1.00
H81    H     0.42706   0.68712   0.65074   0.00000  Uiso   1.00
H82    H     0.50496   0.56001   0.03734   0.00000  Uiso   1.00
H83    H     0.90696   0.68855   0.94781   0.00000  Uiso   1.00
O84    O     0.40305   0.80630   0.65725   0.00000  Uiso   1.00
O85    O     0.50526   0.63954   0.16446   0.00000  Uiso   1.00
O86    O     0.03268   0.80818   0.04700   0.00000  Uiso   1.00
N87    N     0.49148   0.84762   0.78493   0.00000  Uiso   1.00
N88    N     0.56430   0.72878   0.14636   0.00000  Uiso   1.00
N89    N     0.94014   0.84895   0.06268   0.00000  Uiso   1.00
N90    N     0.45488   0.73342   0.70141   0.00000  Uiso   1.00
N91    N     0.52770   0.61457   0.06285   0.00000  Uiso   1.00
N92    N     0.90354   0.73475   0.97917   0.00000  Uiso   1.00
C93    C     0.39198   0.22915   0.42903   0.00000  Uiso   1.00
C94    C     0.39476   0.30404   0.47601   0.00000  Uiso   1.00
C95    C     0.40399   0.36122   0.46083   0.00000  Uiso   1.00
C96    C     0.40506   0.42536   0.51064   0.00000  Uiso   1.00
C97    C     0.41061   0.54065   0.57408   0.00000  Uiso   1.00
C98    C     0.45448   0.21725   0.48482   0.00000  Uiso   1.00
C99    C     0.51390   0.20144   0.47704   0.00000  Uiso   1.00
C100   C     0.56523   0.19252   0.53426   0.00000  Uiso   1.00
C101   C     0.66346   0.17301   0.61134   0.00000  Uiso   1.00
C102   C     0.31677   0.17454   0.40538   0.00000  Uiso   1.00
C103   C     0.26041   0.12280   0.33081   0.00000  Uiso   1.00
C104   C     0.19580   0.07790   0.32116   0.00000  Uiso   1.00
C105   C     0.08021   0.99208   0.27490   0.00000  Uiso   1.00
C106   C     0.37747   0.24138   0.54449   0.00000  Uiso   1.00
C107   C     0.38689   0.31068   0.53873   0.00000  Uiso   1.00
C108   C     0.38794   0.37476   0.58857   0.00000  Uiso   1.00
C109   C     0.39716   0.43202   0.57347   0.00000  Uiso   1.00
C110   C     0.44660   0.22390   0.54753   0.00000  Uiso   1.00
C111   C     0.49785   0.21498   0.60478   0.00000  Uiso   1.00
C112   C     0.55734   0.19917   0.59709   0.00000  Uiso   1.00
C113   C     0.30889   0.18118   0.46810   0.00000  Uiso   1.00
C114   C     0.24435   0.13635   0.45856   0.00000  Uiso   1.00
C115   C     0.18790   0.08456   0.38398   0.00000  Uiso   1.00
H116   H     0.39812   0.22397   0.38021   0.00000  Uiso   1.00
H117   H     0.41009   0.35606   0.41230   0.00000  Uiso   1.00
H118   H     0.51998   0.19630   0.42849   0.00000  Uiso   1.00
H119   H     0.26652   0.11768   0.28230   0.00000  Uiso   1.00
H120   H     0.41992   0.50543   0.47555   0.00000  Uiso   1.00
H121   H     0.65161   0.16856   0.50969   0.00000  Uiso   1.00
H122   H     0.11715   0.00276   0.20140   0.00000  Uiso   1.00
H123   H     0.37134   0.24655   0.59332   0.00000  Uiso   1.00
H124   H     0.38184   0.37988   0.63710   0.00000  Uiso   1.00
H125   H     0.49173   0.22012   0.65330   0.00000  Uiso   1.00
H126   H     0.23828   0.14150   0.50710   0.00000  Uiso   1.00
H127   H     0.39699   0.52477   0.65801   0.00000  Uiso   1.00
H128   H     0.62868   0.18789   0.69215   0.00000  Uiso   1.00
H129   H     0.09422   0.02210   0.38386   0.00000  Uiso   1.00
O130   O     0.41587   0.60241   0.59175   0.00000  Uiso   1.00
O131   O     0.71983   0.16042   0.63653   0.00000  Uiso   1.00
O132   O     0.01863   0.94291   0.23206   0.00000  Uiso   1.00
N133   N     0.41306   0.49168   0.51247   0.00000  Uiso   1.00
N134   N     0.62969   0.17673   0.54440   0.00000  Uiso   1.00
N135   N     0.13002   0.02172   0.25617   0.00000  Uiso   1.00
N136   N     0.40073   0.50209   0.61065   0.00000  Uiso   1.00
N137   N     0.61735   0.18714   0.64258   0.00000  Uiso   1.00
N138   N     0.11769   0.03213   0.35435   0.00000  Uiso   1.00
C139   C     0.01265   0.47704   0.70437   0.00000  Uiso   1.00
C140   C     0.95197   0.49732   0.65750   0.00000  Uiso   1.00
C141   C     0.95574   0.56749   0.67489   0.00000  Uiso   1.00
C142   C     0.89438   0.57461   0.62478   0.00000  Uiso   1.00
C143   C     0.80972   0.61537   0.56189   0.00000  Uiso   1.00
C144   C     0.03416   0.42993   0.64961   0.00000  Uiso   1.00
C145   C     0.10704   0.44342   0.66038   0.00000  Uiso   1.00
C146   C     0.11486   0.39380   0.60362   0.00000  Uiso   1.00
C147   C     0.15782   0.32990   0.52852   0.00000  Uiso   1.00
C148   C     0.97257   0.42703   0.72380   0.00000  Uiso   1.00
C149   C     0.99368   0.43807   0.79696   0.00000  Uiso   1.00
C150   C     0.94966   0.38600   0.80267   0.00000  Uiso   1.00
C151   C     0.89699   0.31761   0.84275   0.00000  Uiso   1.00
C152   C     0.89697   0.36492   0.58443   0.00000  Uiso   1.00
C153   C     0.88913   0.43642   0.59235   0.00000  Uiso   1.00
C154   C     0.82775   0.44344   0.54219   0.00000  Uiso   1.00
C155   C     0.83143   0.51360   0.55952   0.00000  Uiso   1.00
C156   C     0.97133   0.36903   0.58446   0.00000  Uiso   1.00
C157   C     0.97905   0.31938   0.52768   0.00000  Uiso   1.00
C158   C     0.05192   0.33279   0.53836   0.00000  Uiso   1.00
C159   C     0.90973   0.36613   0.65866   0.00000  Uiso   1.00
C160   C     0.86568   0.31403   0.66425   0.00000  Uiso   1.00
C161   C     0.88672   0.32500   0.73740   0.00000  Uiso   1.00
H162   H     0.06158   0.52445   0.75509   0.00000  Uiso   1.00
H163   H     0.00438   0.61460   0.72531   0.00000  Uiso   1.00
H164   H     0.15565   0.49055   0.71080   0.00000  Uiso   1.00
H165   H     0.04230   0.48521   0.84736   0.00000  Uiso   1.00
H166   H     0.91327   0.68770   0.66356   0.00000  Uiso   1.00
H167   H     0.23224   0.42611   0.63298   0.00000  Uiso   1.00
H168   H     0.99323   0.41485   0.92093   0.00000  Uiso   1.00
H169   H     0.84805   0.31751   0.53371   0.00000  Uiso   1.00
H170   H     0.77913   0.39631   0.49178   0.00000  Uiso   1.00
H171   H     0.93041   0.27225   0.47728   0.00000  Uiso   1.00
H172   H     0.81706   0.26691   0.61383   0.00000  Uiso   1.00
H173   H     0.73045   0.51052   0.47402   0.00000  Uiso   1.00
H174   H     0.04943   0.24893   0.44344   0.00000  Uiso   1.00
H175   H     0.81041   0.23767   0.73139   0.00000  Uiso   1.00
O176   O     0.78039   0.65468   0.54519   0.00000  Uiso   1.00
O177   O     0.19887   0.31148   0.50508   0.00000  Uiso   1.00
O178   O     0.88529   0.29671   0.88286   0.00000  Uiso   1.00
N179   N     0.87969   0.63518   0.62471   0.00000  Uiso   1.00
N180   N     0.17791   0.39062   0.59612   0.00000  Uiso   1.00
N181   N     0.95447   0.38008   0.86532   0.00000  Uiso   1.00
N182   N     0.78132   0.53985   0.52272   0.00000  Uiso   1.00
N183   N     0.07954   0.29529   0.49412   0.00000  Uiso   1.00
N184   N     0.85610   0.28475   0.76333   0.00000  Uiso   1.00
C185   C     0.42282   0.76537   0.41624   0.00000  Uiso   1.00
C186   C     0.47421   0.81774   0.40757   0.00000  Uiso   1.00
C187   C     0.48914   0.89151   0.43637   0.00000  Uiso   1.00
C188   C     0.53772   0.93003   0.42233   0.00000  Uiso   1.00
C189   C     0.61262   0.01655   0.41520   0.00000  Uiso   1.00
C190   C     0.47191   0.73071   0.45380   0.00000  Uiso   1.00
C191   C     0.48491   0.73130   0.52147   0.00000  Uiso   1.00
C192   C     0.53154   0.69655   0.54633   0.00000  Uiso   1.00
C193   C     0.60283   0.64790   0.61094   0.00000  Uiso   1.00
C194   C     0.36326   0.70463   0.33515   0.00000  Uiso   1.00
C195   C     0.28489   0.68328   0.30306   0.00000  Uiso   1.00
C196   C     0.24004   0.62655   0.22803   0.00000  Uiso   1.00
C197   C     0.14262   0.53741   0.10842   0.00000  Uiso   1.00
C198   C     0.48253   0.70258   0.34008   0.00000  Uiso   1.00
C199   C     0.50664   0.78364   0.36621   0.00000  Uiso   1.00
C200   C     0.55521   0.82205   0.35211   0.00000  Uiso   1.00
C201   C     0.57021   0.89587   0.38088   0.00000  Uiso   1.00
C202   C     0.50435   0.69661   0.41244   0.00000  Uiso   1.00
C203   C     0.55097   0.66184   0.43720   0.00000  Uiso   1.00
C204   C     0.56404   0.66238   0.50488   0.00000  Uiso   1.00
C205   C     0.39569   0.67053   0.29378   0.00000  Uiso   1.00
C206   C     0.35095   0.61382   0.21879   0.00000  Uiso   1.00
C207   C     0.27253   0.59239   0.18659   0.00000  Uiso   1.00
H208   H     0.39757   0.79191   0.44845   0.00000  Uiso   1.00
H209   H     0.46404   0.91789   0.46839   0.00000  Uiso   1.00
H210   H     0.45979   0.75769   0.55346   0.00000  Uiso   1.00
H211   H     0.25981   0.70968   0.33509   0.00000  Uiso   1.00
H212   H     0.55206   0.04252   0.47228   0.00000  Uiso   1.00
H213   H     0.54309   0.70471   0.65165   0.00000  Uiso   1.00
H214   H     0.12138   0.60347   0.19116   0.00000  Uiso   1.00
H215   H     0.50778   0.67603   0.30787   0.00000  Uiso   1.00
H216   H     0.58030   0.79565   0.32009   0.00000  Uiso   1.00
H217   H     0.57606   0.63545   0.40517   0.00000  Uiso   1.00
H218   H     0.37607   0.58744   0.18680   0.00000  Uiso   1.00
H219   H     0.64642   0.94330   0.35192   0.00000  Uiso   1.00
H220   H     0.63745   0.60550   0.53129   0.00000  Uiso   1.00
H221   H     0.21574   0.50425   0.07080   0.00000  Uiso   1.00
O222   O     0.64498   0.07369   0.42271   0.00000  Uiso   1.00
O223   O     0.63319   0.63050   0.65801   0.00000  Uiso   1.00
O224   O     0.07993   0.49767   0.05387   0.00000  Uiso   1.00
N225   N     0.56430   0.00275   0.44226   0.00000  Uiso   1.00
N226   N     0.55592   0.68693   0.60997   0.00000  Uiso   1.00
N227   N     0.16166   0.59226   0.17946   0.00000  Uiso   1.00
N228   N     0.61508   0.94936   0.37750   0.00000  Uiso   1.00
N229   N     0.60670   0.63355   0.54520   0.00000  Uiso   1.00
N230   N     0.21244   0.53888   0.11469   0.00000  Uiso   1.00
C231   C     0.68958   0.42515   0.07873   0.00000  Uiso   1.00
C232   C     0.71603   0.50402   0.13881   0.00000  Uiso   1.00
C233   C     0.70740   0.56037   0.12397   0.00000  Uiso   1.00
C234   C     0.73544   0.62863   0.18679   0.00000  Uiso   1.00
C235   C     0.77110   0.74936   0.26867   0.00000  Uiso   1.00
C236   C     0.63729   0.37971   0.09270   0.00000  Uiso   1.00
C237   C     0.56246   0.33152   0.03909   0.00000  Uiso   1.00
C238   C     0.52423   0.29513   0.06310   0.00000  Uiso   1.00
C239   C     0.43765   0.22281   0.07339   0.00000  Uiso   1.00
C240   C     0.76006   0.40614   0.09924   0.00000  Uiso   1.00
C241   C     0.78844   0.38016   0.05112   0.00000  Uiso   1.00
C242   C     0.85356   0.36601   0.08063   0.00000  Uiso   1.00
C243   C     0.95760   0.33473   0.10106   0.00000  Uiso   1.00
C244   C     0.75473   0.44619   0.21671   0.00000  Uiso   1.00
C245   C     0.75142   0.51545   0.21375   0.00000  Uiso   1.00
C246   C     0.77948   0.58365   0.27662   0.00000  Uiso   1.00
C247   C     0.77090   0.64009   0.26187   0.00000  Uiso   1.00
C248   C     0.67268   0.39113   0.16764   0.00000  Uiso   1.00
C249   C     0.63454   0.35480   0.19174   0.00000  Uiso   1.00
C250   C     0.55968   0.30658   0.13818   0.00000  Uiso   1.00
C251   C     0.79545   0.41757   0.17418   0.00000  Uiso   1.00
C252   C     0.86053   0.40345   0.20377   0.00000  Uiso   1.00
C253   C     0.88901   0.37746   0.15570   0.00000  Uiso   1.00
H254   H     0.66203   0.41625   0.02039   0.00000  Uiso   1.00
H255   H     0.68000   0.55150   0.06596   0.00000  Uiso   1.00
H256   H     0.53510   0.32268   0.98110   0.00000  Uiso   1.00
H257   H     0.76104   0.37132   0.99313   0.00000  Uiso   1.00
H258   H     0.71552   0.70648   0.14953   0.00000  Uiso   1.00
H259   H     0.40998   0.22399   0.97059   0.00000  Uiso   1.00
H260   H     0.88643   0.32656   0.99595   0.00000  Uiso   1.00
H261   H     0.78228   0.45509   0.27505   0.00000  Uiso   1.00
H262   H     0.80686   0.59248   0.33460   0.00000  Uiso   1.00
H263   H     0.66195   0.36366   0.24974   0.00000  Uiso   1.00
H264   H     0.88790   0.41230   0.26177   0.00000  Uiso   1.00
H265   H     0.81848   0.73974   0.36757   0.00000  Uiso   1.00
H266   H     0.51293   0.25725   0.18862   0.00000  Uiso   1.00
H267   H     0.98939   0.35982   0.21399   0.00000  Uiso   1.00
O268   O     0.78097   0.81278   0.29313   0.00000  Uiso   1.00
O269   O     0.38012   0.17977   0.05836   0.00000  Uiso   1.00
O270   O     0.00522   0.31433   0.09163   0.00000  Uiso   1.00
N271   N     0.73639   0.69546   0.19268   0.00000  Uiso   1.00
N272   N     0.45072   0.24437   0.02538   0.00000  Uiso   1.00
N273   N     0.89616   0.34024   0.04908   0.00000  Uiso   1.00
N274   N     0.79179   0.71336   0.31000   0.00000  Uiso   1.00
N275   N     0.50612   0.26227   0.14270   0.00000  Uiso   1.00
N276   N     0.95156   0.35814   0.16641   0.00000  Uiso   1.00
C277   C     0.84617   0.18611   0.21456   0.00000  Uiso   1.00
C278   C     0.79588   0.13634   0.22658   0.00000  Uiso   1.00
C279   C     0.80520   0.07626   0.23308   0.00000  Uiso   1.00
C280   C     0.75320   0.03778   0.24389   0.00000  Uiso   1.00
C281   C     0.68414   0.95735   0.26197   0.00000  Uiso   1.00
C282   C     0.87503   0.26271   0.28031   0.00000  Uiso   1.00
C283   C     0.95089   0.30888   0.33196   0.00000  Uiso   1.00
C284   C     0.96552   0.37680   0.38800   0.00000  Uiso   1.00
C285   C     0.01933   0.49257   0.48944   0.00000  Uiso   1.00
C286   C     0.79296   0.18568   0.14204   0.00000  Uiso   1.00
C287   C     0.79983   0.16709   0.07745   0.00000  Uiso   1.00
C288   C     0.74536   0.17017   0.01708   0.00000  Uiso   1.00
C289   C     0.67176   0.16633   0.90386   0.00000  Uiso   1.00
C290   C     0.73725   0.22463   0.22222   0.00000  Uiso   1.00
C291   C     0.73673   0.15727   0.23075   0.00000  Uiso   1.00
C292   C     0.68470   0.11888   0.24155   0.00000  Uiso   1.00
C293   C     0.69393   0.05874   0.24806   0.00000  Uiso   1.00
C294   C     0.81588   0.28364   0.28447   0.00000  Uiso   1.00
C295   C     0.83039   0.35150   0.34044   0.00000  Uiso   1.00
C296   C     0.90625   0.39776   0.39217   0.00000  Uiso   1.00
C297   C     0.73380   0.20660   0.14620   0.00000  Uiso   1.00
C298   C     0.67932   0.20971   0.08592   0.00000  Uiso   1.00
C299   C     0.68610   0.19113   0.02125   0.00000  Uiso   1.00
H300   H     0.89223   0.16982   0.21132   0.00000  Uiso   1.00
H301   H     0.85099   0.06008   0.22986   0.00000  Uiso   1.00
H302   H     0.99666   0.29268   0.32872   0.00000  Uiso   1.00
H303   H     0.84561   0.15090   0.07425   0.00000  Uiso   1.00
H304   H     0.77920   0.94766   0.25228   0.00000  Uiso   1.00
H305   H     0.08635   0.43810   0.46072   0.00000  Uiso   1.00
H306   H     0.76784   0.13915   0.92411   0.00000  Uiso   1.00
H307   H     0.69120   0.24093   0.22546   0.00000  Uiso   1.00
H308   H     0.63892   0.13508   0.24477   0.00000  Uiso   1.00
H309   H     0.78460   0.36768   0.34364   0.00000  Uiso   1.00
H310   H     0.63355   0.22591   0.08916   0.00000  Uiso   1.00
H311   H     0.60708   0.00854   0.26438   0.00000  Uiso   1.00
H312   H     0.91423   0.49898   0.47282   0.00000  Uiso   1.00
H313   H     0.59572   0.20003   0.93622   0.00000  Uiso   1.00
O314   O     0.66240   0.90720   0.27080   0.00000  Uiso   1.00
O315   O     0.06536   0.55065   0.54426   0.00000  Uiso   1.00
O316   O     0.64749   0.15843   0.84025   0.00000  Uiso   1.00
N317   N     0.74586   0.97650   0.25246   0.00000  Uiso   1.00
N318   N     0.03302   0.43504   0.44735   0.00000  Uiso   1.00
N319   N     0.73526   0.15556   0.94568   0.00000  Uiso   1.00
N320   N     0.65324   0.00926   0.25897   0.00000  Uiso   1.00
N321   N     0.94041   0.46779   0.45386   0.00000  Uiso   1.00
N322   N     0.64264   0.18832   0.95219   0.00000  Uiso   1.00
C323   C     0.33596   0.29868   0.17711   0.00000  Uiso   1.00
C324   C     0.40942   0.30574   0.23989   0.00000  Uiso   1.00
C325   C     0.43155   0.24882   0.24168   0.00000  Uiso   1.00
C326   C     0.50083   0.26655   0.30408   0.00000  Uiso   1.00
C327   C     0.60800   0.26655   0.39265   0.00000  Uiso   1.00
C328   C     0.36013   0.34774   0.14810   0.00000  Uiso   1.00
C329   C     0.34081   0.32613   0.07271   0.00000  Uiso   1.00
C330   C     0.36860   0.37922   0.05786   0.00000  Uiso   1.00
C331   C     0.39919   0.44444   0.00391   0.00000  Uiso   1.00
C332   C     0.29567   0.33350   0.21711   0.00000  Uiso   1.00
C333   C     0.22215   0.29993   0.19973   0.00000  Uiso   1.00
C334   C     0.19566   0.34104   0.24296   0.00000  Uiso   1.00
C335   C     0.12618   0.38416   0.29616   0.00000  Uiso   1.00
C336   C     0.41963   0.43139   0.28477   0.00000  Uiso   1.00
C337   C     0.45486   0.37783   0.29836   0.00000  Uiso   1.00
C338   C     0.52412   0.39565   0.36079   0.00000  Uiso   1.00
C339   C     0.54636   0.33876   0.36266   0.00000  Uiso   1.00
C340   C     0.40557   0.41982   0.20658   0.00000  Uiso   1.00
C341   C     0.43338   0.47296   0.19183   0.00000  Uiso   1.00
C342   C     0.41412   0.45144   0.11644   0.00000  Uiso   1.00
C343   C     0.34112   0.40559   0.27559   0.00000  Uiso   1.00
C344   C     0.31473   0.44676   0.31885   0.00000  Uiso   1.00
C345   C     0.24118   0.41326   0.30154   0.00000  Uiso   1.00
H346   H     0.30058   0.24256   0.13158   0.00000  Uiso   1.00
H347   H     0.39637   0.19304   0.19641   0.00000  Uiso   1.00
H348   H     0.30564   0.27034   0.02747   0.00000  Uiso   1.00
H349   H     0.18700   0.24415   0.15448   0.00000  Uiso   1.00
H350   H     0.52263   0.16993   0.29405   0.00000  Uiso   1.00
H351   H     0.33130   0.33293   0.93784   0.00000  Uiso   1.00
H352   H     0.08112   0.27769   0.20564   0.00000  Uiso   1.00
H353   H     0.45501   0.48752   0.33030   0.00000  Uiso   1.00
H354   H     0.55928   0.45144   0.40603   0.00000  Uiso   1.00
H355   H     0.46855   0.52874   0.23709   0.00000  Uiso   1.00
H356   H     0.34991   0.50255   0.36409   0.00000  Uiso   1.00
H357   H     0.65486   0.37966   0.46419   0.00000  Uiso   1.00
H358   H     0.46352   0.54266   0.10797   0.00000  Uiso   1.00
H359   H     0.21334   0.48742   0.37578   0.00000  Uiso   1.00
O360   O     0.65456   0.24664   0.42534   0.00000  Uiso   1.00
O361   O     0.40352   0.46049   0.95800   0.00000  Uiso   1.00
O362   O     0.07530   0.38802   0.30936   0.00000  Uiso   1.00
N363   N     0.53943   0.22424   0.32371   0.00000  Uiso   1.00
N364   N     0.36056   0.37663   0.99067   0.00000  Uiso   1.00
N365   N     0.12665   0.32500   0.24103   0.00000  Uiso   1.00
N366   N     0.61058   0.33709   0.41526   0.00000  Uiso   1.00
N367   N     0.43171   0.48949   0.08222   0.00000  Uiso   1.00
N368   N     0.19780   0.43785   0.33258   0.00000  Uiso   1.00
C369   C     0.72805   0.92176   0.74935   0.00000  Uiso   1.00
C370   C     0.75622   0.90858   0.69256   0.00000  Uiso   1.00
C371   C     0.76057   0.84394   0.65084   0.00000  Uiso   1.00
C372   C     0.78789   0.84287   0.60189   0.00000  Uiso   1.00
C373   C     0.82823   0.81304   0.51474   0.00000  Uiso   1.00
C374   C     0.66331   0.94726   0.72181   0.00000  Uiso   1.00
C375   C     0.58954   0.91514   0.70469   0.00000  Uiso   1.00
C376   C     0.53865   0.94665   0.68038   0.00000  Uiso   1.00
C377   C     0.43475   0.97690   0.63870   0.00000  Uiso   1.00
C378   C     0.79257   0.98693   0.82494   0.00000  Uiso   1.00
C379   C     0.82748   0.98818   0.89454   0.00000  Uiso   1.00
C380   C     0.88543   0.05309   0.95705   0.00000  Uiso   1.00
C381   C     0.98224   0.14494   0.07549   0.00000  Uiso   1.00
C382   C     0.76885   0.03482   0.73662   0.00000  Uiso   1.00
C383   C     0.77838   0.96998   0.68565   0.00000  Uiso   1.00
C384   C     0.80571   0.96902   0.63675   0.00000  Uiso   1.00
C385   C     0.81010   0.90439   0.59497   0.00000  Uiso   1.00
C386   C     0.68547   0.00866   0.71490   0.00000  Uiso   1.00
C387   C     0.63468   0.04022   0.69061   0.00000  Uiso   1.00
C388   C     0.56086   0.00816   0.67346   0.00000  Uiso   1.00
C389   C     0.81474   0.04833   0.81803   0.00000  Uiso   1.00
C390   C     0.87263   0.11326   0.88045   0.00000  Uiso   1.00
C391   C     0.90763   0.11461   0.95013   0.00000  Uiso   1.00
H392   H     0.71079   0.87395   0.75473   0.00000  Uiso   1.00
H393   H     0.74340   0.79642   0.65620   0.00000  Uiso   1.00
H394   H     0.57240   0.86763   0.71006   0.00000  Uiso   1.00
H395   H     0.81032   0.94065   0.89986   0.00000  Uiso   1.00
H396   H     0.78931   0.73754   0.54389   0.00000  Uiso   1.00
H397   H     0.42876   0.88769   0.65748   0.00000  Uiso   1.00
H398   H     0.93044   0.04166   0.05772   0.00000  Uiso   1.00
H399   H     0.78611   0.08263   0.73124   0.00000  Uiso   1.00
H400   H     0.82286   0.01655   0.63142   0.00000  Uiso   1.00
H401   H     0.65186   0.08775   0.68527   0.00000  Uiso   1.00
H402   H     0.88977   0.16077   0.87508   0.00000  Uiso   1.00
H403   H     0.85379   0.91620   0.52377   0.00000  Uiso   1.00
H404   H     0.49324   0.06635   0.63736   0.00000  Uiso   1.00
H405   H     0.99493   0.22032   0.03761   0.00000  Uiso   1.00
O406   O     0.84434   0.77962   0.46857   0.00000  Uiso   1.00
O407   O     0.37132   0.97662   0.61761   0.00000  Uiso   1.00
O408   O     0.02952   0.17863   0.14272   0.00000  Uiso   1.00
N409   N     0.79946   0.78866   0.55287   0.00000  Uiso   1.00
N410   N     0.46236   0.92903   0.65905   0.00000  Uiso   1.00
N411   N     0.93138   0.07299   0.03325   0.00000  Uiso   1.00
N412   N     0.83416   0.88479   0.54204   0.00000  Uiso   1.00
N413   N     0.49706   0.02517   0.64823   0.00000  Uiso   1.00
N414   N     0.96608   0.16913   0.02243   0.00000  Uiso   1.00
C415   C     0.07253   0.78424   0.33430   0.00000  Uiso   1.00
C416   C     0.12172   0.75682   0.38265   0.00000  Uiso   1.00
C417   C     0.10544   0.68478   0.36537   0.00000  Uiso   1.00
C418   C     0.15764   0.67088   0.41694   0.00000  Uiso   1.00
C419   C     0.22395   0.61977   0.48192   0.00000  Uiso   1.00
C420   C     0.05545   0.84012   0.38697   0.00000  Uiso   1.00
C421   C     0.98345   0.83811   0.37332   0.00000  Uiso   1.00
C422   C     0.97987   0.89434   0.42853   0.00000  Uiso   1.00
C423   C     0.94329   0.97258   0.50020   0.00000  Uiso   1.00
C424   C     0.12380   0.82666   0.31710   0.00000  Uiso   1.00
C425   C     0.10927   0.81336   0.24471   0.00000  Uiso   1.00
C426   C     0.16323   0.85827   0.24109   0.00000  Uiso   1.00
C427   C     0.23278   0.91561   0.20427   0.00000  Uiso   1.00
C428   C     0.19420   0.88768   0.45660   0.00000  Uiso   1.00
C429   C     0.18780   0.81301   0.44908   0.00000  Uiso   1.00
C430   C     0.24005   0.79922   0.50069   0.00000  Uiso   1.00
C431   C     0.22385   0.72716   0.48349   0.00000  Uiso   1.00
C432   C     0.12153   0.89630   0.45340   0.00000  Uiso   1.00
C433   C     0.11806   0.95255   0.50864   0.00000  Uiso   1.00
C434   C     0.04608   0.95063   0.49508   0.00000  Uiso   1.00
C435   C     0.18989   0.88285   0.38353   0.00000  Uiso   1.00
C436   C     0.24389   0.92780   0.38002   0.00000  Uiso   1.00
C437   C     0.22944   0.91456   0.30764   0.00000  Uiso   1.00
H438   H     0.02108   0.74050   0.28258   0.00000  Uiso   1.00
H439   H     0.05428   0.64131   0.31396   0.00000  Uiso   1.00
H440   H     0.93231   0.79463   0.32191   0.00000  Uiso   1.00
H441   H     0.05812   0.76987   0.19331   0.00000  Uiso   1.00
H442   H     0.12023   0.55612   0.37805   0.00000  Uiso   1.00
H443   H     0.86305   0.87941   0.39480   0.00000  Uiso   1.00
H444   H     0.12833   0.82721   0.12363   0.00000  Uiso   1.00
H445   H     0.24566   0.93143   0.50833   0.00000  Uiso   1.00
H446   H     0.29119   0.84271   0.55209   0.00000  Uiso   1.00
H447   H     0.16922   0.99603   0.56003   0.00000  Uiso   1.00
H448   H     0.29502   0.97127   0.43144   0.00000  Uiso   1.00
H449   H     0.31251   0.71958   0.57133   0.00000  Uiso   1.00
H450   H     0.05533   0.04288   0.58807   0.00000  Uiso   1.00
H451   H     0.32061   0.99068   0.31691   0.00000  Uiso   1.00
O452   O     0.24226   0.57605   0.49942   0.00000  Uiso   1.00
O453   O     0.90485   0.00020   0.52138   0.00000  Uiso   1.00
O454   O     0.25289   0.93171   0.16562   0.00000  Uiso   1.00
N455   N     0.15924   0.60677   0.41753   0.00000  Uiso   1.00
N456   N     0.91879   0.90902   0.43319   0.00000  Uiso   1.00
N457   N     0.16680   0.86023   0.17967   0.00000  Uiso   1.00
N458   N     0.26271   0.69472   0.52153   0.00000  Uiso   1.00
N459   N     0.02226   0.99697   0.53719   0.00000  Uiso   1.00
N460   N     0.27027   0.94818   0.28367   0.00000  Uiso   1.00
C461   C     0.70379   0.38649   0.83202   0.00000  Uiso   1.00
C462   C     0.63270   0.37313   0.83890   0.00000  Uiso   1.00
C463   C     0.58694   0.30731   0.82359   0.00000  Uiso   1.00
C464   C     0.52446   0.30629   0.83331   0.00000  Uiso   1.00
C465   C     0.41650   0.27602   0.84027   0.00000  Uiso   1.00
C466   C     0.69024   0.41708   0.77733   0.00000  Uiso   1.00
C467   C     0.69287   0.38822   0.71027   0.00000  Uiso   1.00
C468   C     0.67883   0.42420   0.66817   0.00000  Uiso   1.00
C469   C     0.66026   0.46219   0.57958   0.00000  Uiso   1.00
C470   C     0.76815   0.44823   0.91032   0.00000  Uiso   1.00
C471   C     0.83629   0.44557   0.95508   0.00000  Uiso   1.00
C472   C     0.88786   0.50779   0.02494   0.00000  Uiso   1.00
C473   C     0.99025   0.59415   0.14284   0.00000  Uiso   1.00
C474   C     0.67421   0.50173   0.87650   0.00000  Uiso   1.00
C475   C     0.61664   0.43572   0.86305   0.00000  Uiso   1.00
C476   C     0.55421   0.43481   0.87280   0.00000  Uiso   1.00
C477   C     0.50836   0.36900   0.85752   0.00000  Uiso   1.00
C478   C     0.67418   0.47967   0.80149   0.00000  Uiso   1.00
C479   C     0.66014   0.51571   0.75948   0.00000  Uiso   1.00
C480   C     0.66274   0.48691   0.69238   0.00000  Uiso   1.00
C481   C     0.75208   0.51082   0.93448   0.00000  Uiso   1.00
C482   C     0.80356   0.57306   0.00429   0.00000  Uiso   1.00
C483   C     0.87177   0.57050   0.04914   0.00000  Uiso   1.00
H484   H     0.71630   0.33776   0.81321   0.00000  Uiso   1.00
H485   H     0.59939   0.25888   0.80489   0.00000  Uiso   1.00
H486   H     0.70531   0.33978   0.69159   0.00000  Uiso   1.00
H487   H     0.84871   0.39713   0.93636   0.00000  Uiso   1.00
H488   H     0.46267   0.19903   0.80629   0.00000  Uiso   1.00
H489   H     0.68604   0.36962   0.56741   0.00000  Uiso   1.00
H490   H     0.98842   0.49054   0.08355   0.00000  Uiso   1.00
H491   H     0.66170   0.55046   0.89531   0.00000  Uiso   1.00
H492   H     0.54179   0.48325   0.89150   0.00000  Uiso   1.00
H493   H     0.64771   0.56415   0.77820   0.00000  Uiso   1.00
H494   H     0.79111   0.62149   0.02297   0.00000  Uiso   1.00
H495   H     0.41592   0.38113   0.87658   0.00000  Uiso   1.00
H496   H     0.63929   0.55173   0.63770   0.00000  Uiso   1.00
H497   H     0.94167   0.67265   0.15384   0.00000  Uiso   1.00
O498   O     0.36138   0.24202   0.83742   0.00000  Uiso   1.00
O499   O     0.65445   0.46584   0.52403   0.00000  Uiso   1.00
O500   O     0.05116   0.62449   0.20119   0.00000  Uiso   1.00
N501   N     0.46813   0.25111   0.82337   0.00000  Uiso   1.00
N502   N     0.67695   0.41060   0.60003   0.00000  Uiso   1.00
N503   N     0.95967   0.52366   0.08257   0.00000  Uiso   1.00
N504   N     0.44297   0.34910   0.86120   0.00000  Uiso   1.00
N505   N     0.65180   0.50859   0.63785   0.00000  Uiso   1.00
N506   N     0.93451   0.62165   0.12039   0.00000  Uiso   1.00
C507   C     0.29142   0.69659   0.01714   0.00000  Uiso   1.00
C508   C     0.30498   0.66634   0.95002   0.00000  Uiso   1.00
C509   C     0.34072   0.61781   0.93773   0.00000  Uiso   1.00
C510   C     0.34759   0.59669   0.87296   0.00000  Uiso   1.00
C511   C     0.37293   0.54573   0.77647   0.00000  Uiso   1.00
C512   C     0.32826   0.77914   0.05564   0.00000  Uiso   1.00
C513   C     0.38357   0.82544   0.13214   0.00000  Uiso   1.00
C514   C     0.41002   0.89928   0.15628   0.00000  Uiso   1.00
C515   C     0.47147   0.02343   0.22376   0.00000  Uiso   1.00
C516   C     0.20583   0.67772   0.98192   0.00000  Uiso   1.00
C517   C     0.15818   0.63877   0.99645   0.00000  Uiso   1.00
C518   C     0.08156   0.62723   0.95854   0.00000  Uiso   1.00
C519   C     0.95290   0.59391   0.91157   0.00000  Uiso   1.00
C520   C     0.24007   0.74537   0.92398   0.00000  Uiso   1.00
C521   C     0.27709   0.69284   0.89943   0.00000  Uiso   1.00
C522   C     0.28390   0.67179   0.83466   0.00000  Uiso   1.00
C523   C     0.31964   0.62324   0.82227   0.00000  Uiso   1.00
C524   C     0.30037   0.80564   0.00504   0.00000  Uiso   1.00
C525   C     0.32675   0.87942   0.02907   0.00000  Uiso   1.00
C526   C     0.38208   0.92582   0.10559   0.00000  Uiso   1.00
C527   C     0.17793   0.70422   0.93132   0.00000  Uiso   1.00
C528   C     0.10137   0.69274   0.89338   0.00000  Uiso   1.00
C529   C     0.05362   0.65377   0.90785   0.00000  Uiso   1.00
H530   H     0.31313   0.67596   0.05653   0.00000  Uiso   1.00
H531   H     0.36230   0.59732   0.97690   0.00000  Uiso   1.00
H532   H     0.40513   0.80492   0.17128   0.00000  Uiso   1.00
H533   H     0.17979   0.61827   0.03561   0.00000  Uiso   1.00
H534   H     0.40454   0.52185   0.86631   0.00000  Uiso   1.00
H535   H     0.49483   0.95958   0.27619   0.00000  Uiso   1.00
H536   H     0.01965   0.56599   0.99010   0.00000  Uiso   1.00
H537   H     0.21835   0.76601   0.88459   0.00000  Uiso   1.00
H538   H     0.26231   0.69230   0.79551   0.00000  Uiso   1.00
H539   H     0.30515   0.89991   0.98990   0.00000  Uiso   1.00
H540   H     0.07980   0.71325   0.85423   0.00000  Uiso   1.00
H541   H     0.32339   0.59894   0.71909   0.00000  Uiso   1.00
H542   H     0.41368   0.03668   0.12897   0.00000  Uiso   1.00
H543   H     0.93850   0.64308   0.84288   0.00000  Uiso   1.00
O544   O     0.39462   0.51031   0.73723   0.00000  Uiso   1.00
O545   O     0.51307   0.08459   0.27497   0.00000  Uiso   1.00
O546   O     0.88964   0.56821   0.89963   0.00000  Uiso   1.00
N547   N     0.37939   0.55009   0.84388   0.00000  Uiso   1.00
N548   N     0.46382   0.95935   0.22709   0.00000  Uiso   1.00
N549   N     0.01957   0.59139   0.95964   0.00000  Uiso   1.00
N550   N     0.33573   0.59158   0.76466   0.00000  Uiso   1.00
N551   N     0.42015   0.00083   0.14787   0.00000  Uiso   1.00
N552   N     0.97590   0.63287   0.88042   0.00000  Uiso   1.00
