data_job_05203
_audit_creation_date              2018-12-19
_audit_creation_method            'Materials Studio'
_symmetry_space_group_name_H-M    'P1'
_symmetry_Int_Tables_number       1
_symmetry_cell_setting            triclinic
loop_
_symmetry_equiv_pos_as_xyz
  x,y,z
_cell_length_a                    35.4672
_cell_length_b                    7.2650
_cell_length_c                    41.2433
_cell_angle_alpha                 90.0000
_cell_angle_beta                  90.0000
_cell_angle_gamma                 90.0000
loop_
_atom_site_label
_atom_site_type_symbol
_atom_site_fract_x
_atom_site_fract_y
_atom_site_fract_z
_atom_site_U_iso_or_equiv
_atom_site_adp_type
_atom_site_occupancy
C1     C     0.84115   0.33768   0.33712   0.00000  Uiso   1.00
C2     C     0.87420   0.42237   0.31877   0.00000  Uiso   1.00
C3     C     0.90302   0.32556   0.30369   0.00000  Uiso   1.00
C4     C     0.93065   0.42836   0.28818   0.00000  Uiso   1.00
C5     C     0.98216   0.53055   0.25976   0.00000  Uiso   1.00
C6     C     0.84219   0.42120   0.37103   0.00000  Uiso   1.00
C7     C     0.84408   0.32340   0.39989   0.00000  Uiso   1.00
C8     C     0.84476   0.42521   0.42838   0.00000  Uiso   1.00
C9     C     0.84653   0.52558   0.48109   0.00000  Uiso   1.00
C10    C     0.80559   0.41256   0.32107   0.00000  Uiso   1.00
C11    C     0.77671   0.30750   0.30792   0.00000  Uiso   1.00
C12    C     0.74657   0.40205   0.29435   0.00000  Uiso   1.00
C13    C     0.69152   0.48900   0.26948   0.00000  Uiso   1.00
C14    C     0.83899   0.69240   0.33639   0.00000  Uiso   1.00
C15    C     0.87303   0.61504   0.31837   0.00000  Uiso   1.00
C16    C     0.90063   0.71801   0.30288   0.00000  Uiso   1.00
C17    C     0.92948   0.62137   0.28778   0.00000  Uiso   1.00
C18    C     0.84101   0.61386   0.37064   0.00000  Uiso   1.00
C19    C     0.84169   0.71584   0.39908   0.00000  Uiso   1.00
C20    C     0.84358   0.61822   0.42798   0.00000  Uiso   1.00
C21    C     0.80442   0.60523   0.32067   0.00000  Uiso   1.00
C22    C     0.77432   0.69995   0.30711   0.00000  Uiso   1.00
C23    C     0.74539   0.59506   0.29395   0.00000  Uiso   1.00
H24    H     0.84207   0.18769   0.33743   0.00000  Uiso   1.00
H25    H     0.90392   0.17646   0.30400   0.00000  Uiso   1.00
H26    H     0.84498   0.17430   0.40019   0.00000  Uiso   1.00
H27    H     0.77763   0.15841   0.30823   0.00000  Uiso   1.00
H28    H     0.97198   0.24898   0.26678   0.00000  Uiso   1.00
H29    H     0.84770   0.24442   0.46959   0.00000  Uiso   1.00
H30    H     0.70566   0.21091   0.27569   0.00000  Uiso   1.00
H31    H     0.83808   0.84240   0.33608   0.00000  Uiso   1.00
H32    H     0.89971   0.86710   0.30258   0.00000  Uiso   1.00
H33    H     0.84078   0.86494   0.39877   0.00000  Uiso   1.00
H34    H     0.77342   0.84905   0.30681   0.00000  Uiso   1.00
H35    H     0.96857   0.80953   0.26562   0.00000  Uiso   1.00
H36    H     0.84428   0.80497   0.46844   0.00000  Uiso   1.00
H37    H     0.70225   0.77146   0.27453   0.00000  Uiso   1.00
O38    O     0.01090   0.53369   0.24420   0.00000  Uiso   1.00
O39    O     0.84784   0.52771   0.51028   0.00000  Uiso   1.00
O40    O     0.66149   0.48374   0.25588   0.00000  Uiso   1.00
N41    N     0.96272   0.37752   0.27110   0.00000  Uiso   1.00
N42    N     0.84652   0.37325   0.46072   0.00000  Uiso   1.00
N43    N     0.71373   0.34192   0.27944   0.00000  Uiso   1.00
N44    N     0.96088   0.67914   0.27048   0.00000  Uiso   1.00
N45    N     0.84469   0.67488   0.46010   0.00000  Uiso   1.00
N46    N     0.71189   0.64355   0.27882   0.00000  Uiso   1.00
C47    C     0.33937   0.30982   0.33637   0.00000  Uiso   1.00
C48    C     0.37325   0.38886   0.31837   0.00000  Uiso   1.00
C49    C     0.40105   0.28726   0.30285   0.00000  Uiso   1.00
C50    C     0.42971   0.38531   0.28778   0.00000  Uiso   1.00
C51    C     0.48222   0.47872   0.25977   0.00000  Uiso   1.00
C52    C     0.34124   0.38820   0.37063   0.00000  Uiso   1.00
C53    C     0.34210   0.28604   0.39906   0.00000  Uiso   1.00
C54    C     0.34381   0.38355   0.42797   0.00000  Uiso   1.00
C55    C     0.34658   0.47594   0.48111   0.00000  Uiso   1.00
C56    C     0.30463   0.39552   0.32067   0.00000  Uiso   1.00
C57    C     0.27470   0.29953   0.30709   0.00000  Uiso   1.00
C58    C     0.24558   0.40320   0.29395   0.00000  Uiso   1.00
C59    C     0.19151   0.50697   0.26951   0.00000  Uiso   1.00
C60    C     0.34085   0.66460   0.33718   0.00000  Uiso   1.00
C61    C     0.37406   0.58157   0.31881   0.00000  Uiso   1.00
C62    C     0.40269   0.67980   0.30375   0.00000  Uiso   1.00
C63    C     0.43052   0.57836   0.28822   0.00000  Uiso   1.00
C64    C     0.34204   0.58090   0.37107   0.00000  Uiso   1.00
C65    C     0.34374   0.67858   0.39995   0.00000  Uiso   1.00
C66    C     0.34462   0.57660   0.42842   0.00000  Uiso   1.00
C67    C     0.30543   0.58823   0.32111   0.00000  Uiso   1.00
C68    C     0.27635   0.69207   0.30799   0.00000  Uiso   1.00
C69    C     0.24639   0.59626   0.29439   0.00000  Uiso   1.00
H70    H     0.33874   0.15979   0.33603   0.00000  Uiso   1.00
H71    H     0.40041   0.13813   0.30252   0.00000  Uiso   1.00
H72    H     0.34148   0.13692   0.39871   0.00000  Uiso   1.00
H73    H     0.27409   0.15041   0.30675   0.00000  Uiso   1.00
H74    H     0.46916   0.19910   0.26558   0.00000  Uiso   1.00
H75    H     0.34487   0.19655   0.46839   0.00000  Uiso   1.00
H76    H     0.20277   0.22499   0.27449   0.00000  Uiso   1.00
H77    H     0.34147   0.81464   0.33753   0.00000  Uiso   1.00
H78    H     0.40330   0.82892   0.30410   0.00000  Uiso   1.00
H79    H     0.34436   0.82770   0.40029   0.00000  Uiso   1.00
H80    H     0.27698   0.84119   0.30833   0.00000  Uiso   1.00
H81    H     0.47150   0.75977   0.26686   0.00000  Uiso   1.00
H82    H     0.34721   0.75721   0.46967   0.00000  Uiso   1.00
H83    H     0.20512   0.78566   0.27577   0.00000  Uiso   1.00
O84    O     0.51096   0.47701   0.24421   0.00000  Uiso   1.00
O85    O     0.34789   0.47366   0.51029   0.00000  Uiso   1.00
O86    O     0.16147   0.51097   0.25590   0.00000  Uiso   1.00
N87    N     0.46122   0.32910   0.27046   0.00000  Uiso   1.00
N88    N     0.34503   0.32671   0.46008   0.00000  Uiso   1.00
N89    N     0.21217   0.35330   0.27881   0.00000  Uiso   1.00
N90    N     0.46248   0.63079   0.27115   0.00000  Uiso   1.00
N91    N     0.34629   0.62840   0.46077   0.00000  Uiso   1.00
N92    N     0.21343   0.65499   0.27950   0.00000  Uiso   1.00
C93    C     0.65885   0.66232   0.83712   0.00000  Uiso   1.00
C94    C     0.62580   0.57763   0.81877   0.00000  Uiso   1.00
C95    C     0.59698   0.67444   0.80369   0.00000  Uiso   1.00
C96    C     0.56935   0.57164   0.78818   0.00000  Uiso   1.00
C97    C     0.51784   0.46945   0.75976   0.00000  Uiso   1.00
C98    C     0.65781   0.57880   0.87103   0.00000  Uiso   1.00
C99    C     0.65592   0.67660   0.89989   0.00000  Uiso   1.00
C100   C     0.65524   0.57479   0.92838   0.00000  Uiso   1.00
C101   C     0.65347   0.47442   0.98109   0.00000  Uiso   1.00
C102   C     0.69441   0.58744   0.82107   0.00000  Uiso   1.00
C103   C     0.72329   0.69250   0.80792   0.00000  Uiso   1.00
C104   C     0.75343   0.59795   0.79435   0.00000  Uiso   1.00
C105   C     0.80848   0.51100   0.76948   0.00000  Uiso   1.00
C106   C     0.66101   0.30760   0.83639   0.00000  Uiso   1.00
C107   C     0.62697   0.38496   0.81837   0.00000  Uiso   1.00
C108   C     0.59937   0.28199   0.80288   0.00000  Uiso   1.00
C109   C     0.57052   0.37863   0.78778   0.00000  Uiso   1.00
C110   C     0.65899   0.38614   0.87064   0.00000  Uiso   1.00
C111   C     0.65831   0.28416   0.89908   0.00000  Uiso   1.00
C112   C     0.65642   0.38178   0.92798   0.00000  Uiso   1.00
C113   C     0.69558   0.39477   0.82067   0.00000  Uiso   1.00
C114   C     0.72568   0.30005   0.80711   0.00000  Uiso   1.00
C115   C     0.75461   0.40494   0.79395   0.00000  Uiso   1.00
H116   H     0.65793   0.81231   0.83743   0.00000  Uiso   1.00
H117   H     0.59608   0.82354   0.80400   0.00000  Uiso   1.00
H118   H     0.65502   0.82570   0.90019   0.00000  Uiso   1.00
H119   H     0.72237   0.84159   0.80823   0.00000  Uiso   1.00
H120   H     0.52802   0.75102   0.76678   0.00000  Uiso   1.00
H121   H     0.65230   0.75558   0.96959   0.00000  Uiso   1.00
H122   H     0.79434   0.78909   0.77569   0.00000  Uiso   1.00
H123   H     0.66192   0.15760   0.83608   0.00000  Uiso   1.00
H124   H     0.60029   0.13290   0.80258   0.00000  Uiso   1.00
H125   H     0.65922   0.13506   0.89877   0.00000  Uiso   1.00
H126   H     0.72658   0.15095   0.80681   0.00000  Uiso   1.00
H127   H     0.53143   0.19047   0.76562   0.00000  Uiso   1.00
H128   H     0.65572   0.19503   0.96844   0.00000  Uiso   1.00
H129   H     0.79775   0.22854   0.77453   0.00000  Uiso   1.00
O130   O     0.48910   0.46631   0.74420   0.00000  Uiso   1.00
O131   O     0.65216   0.47229   0.01028   0.00000  Uiso   1.00
O132   O     0.83851   0.51626   0.75588   0.00000  Uiso   1.00
N133   N     0.53728   0.62248   0.77110   0.00000  Uiso   1.00
N134   N     0.65348   0.62675   0.96072   0.00000  Uiso   1.00
N135   N     0.78627   0.65808   0.77944   0.00000  Uiso   1.00
N136   N     0.53912   0.32086   0.77048   0.00000  Uiso   1.00
N137   N     0.65531   0.32512   0.96010   0.00000  Uiso   1.00
N138   N     0.78811   0.35645   0.77882   0.00000  Uiso   1.00
C139   C     0.16063   0.69018   0.83637   0.00000  Uiso   1.00
C140   C     0.12675   0.61114   0.81837   0.00000  Uiso   1.00
C141   C     0.09895   0.71274   0.80285   0.00000  Uiso   1.00
C142   C     0.07029   0.61469   0.78778   0.00000  Uiso   1.00
C143   C     0.01778   0.52128   0.75977   0.00000  Uiso   1.00
C144   C     0.15876   0.61180   0.87063   0.00000  Uiso   1.00
C145   C     0.15790   0.71396   0.89906   0.00000  Uiso   1.00
C146   C     0.15619   0.61645   0.92797   0.00000  Uiso   1.00
C147   C     0.15342   0.52406   0.98111   0.00000  Uiso   1.00
C148   C     0.19537   0.60448   0.82067   0.00000  Uiso   1.00
C149   C     0.22530   0.70047   0.80709   0.00000  Uiso   1.00
C150   C     0.25442   0.59680   0.79395   0.00000  Uiso   1.00
C151   C     0.30849   0.49303   0.76951   0.00000  Uiso   1.00
C152   C     0.15915   0.33540   0.83718   0.00000  Uiso   1.00
C153   C     0.12594   0.41843   0.81881   0.00000  Uiso   1.00
C154   C     0.09731   0.32020   0.80375   0.00000  Uiso   1.00
C155   C     0.06948   0.42164   0.78822   0.00000  Uiso   1.00
C156   C     0.15796   0.41910   0.87107   0.00000  Uiso   1.00
C157   C     0.15626   0.32142   0.89995   0.00000  Uiso   1.00
C158   C     0.15538   0.42340   0.92842   0.00000  Uiso   1.00
C159   C     0.19457   0.41177   0.82111   0.00000  Uiso   1.00
C160   C     0.22365   0.30793   0.80799   0.00000  Uiso   1.00
C161   C     0.25361   0.40374   0.79439   0.00000  Uiso   1.00
H162   H     0.16126   0.84021   0.83603   0.00000  Uiso   1.00
H163   H     0.09959   0.86187   0.80252   0.00000  Uiso   1.00
H164   H     0.15852   0.86308   0.89871   0.00000  Uiso   1.00
H165   H     0.22591   0.84959   0.80675   0.00000  Uiso   1.00
H166   H     0.03084   0.80090   0.76558   0.00000  Uiso   1.00
H167   H     0.15513   0.80345   0.96839   0.00000  Uiso   1.00
H168   H     0.29723   0.77501   0.77449   0.00000  Uiso   1.00
H169   H     0.15853   0.18536   0.83753   0.00000  Uiso   1.00
H170   H     0.09670   0.17108   0.80410   0.00000  Uiso   1.00
H171   H     0.15564   0.17230   0.90029   0.00000  Uiso   1.00
H172   H     0.22302   0.15881   0.80833   0.00000  Uiso   1.00
H173   H     0.02850   0.24023   0.76686   0.00000  Uiso   1.00
H174   H     0.15279   0.24279   0.96967   0.00000  Uiso   1.00
H175   H     0.29488   0.21434   0.77577   0.00000  Uiso   1.00
O176   O     0.98904   0.52299   0.74421   0.00000  Uiso   1.00
O177   O     0.15211   0.52634   0.01029   0.00000  Uiso   1.00
O178   O     0.33853   0.48903   0.75590   0.00000  Uiso   1.00
N179   N     0.03878   0.67090   0.77046   0.00000  Uiso   1.00
N180   N     0.15497   0.67329   0.96008   0.00000  Uiso   1.00
N181   N     0.28783   0.64670   0.77881   0.00000  Uiso   1.00
N182   N     0.03752   0.36921   0.77115   0.00000  Uiso   1.00
N183   N     0.15371   0.37160   0.96077   0.00000  Uiso   1.00
N184   N     0.28657   0.34501   0.77950   0.00000  Uiso   1.00
C185   C     0.15885   0.83768   0.16288   0.00000  Uiso   1.00
C186   C     0.12580   0.92237   0.18123   0.00000  Uiso   1.00
C187   C     0.09698   0.82556   0.19631   0.00000  Uiso   1.00
C188   C     0.06935   0.92836   0.21182   0.00000  Uiso   1.00
C189   C     0.01784   0.03055   0.24024   0.00000  Uiso   1.00
C190   C     0.15781   0.92120   0.12897   0.00000  Uiso   1.00
C191   C     0.15592   0.82340   0.10011   0.00000  Uiso   1.00
C192   C     0.15524   0.92521   0.07162   0.00000  Uiso   1.00
C193   C     0.15347   0.02558   0.01891   0.00000  Uiso   1.00
C194   C     0.19441   0.91256   0.17893   0.00000  Uiso   1.00
C195   C     0.22329   0.80750   0.19208   0.00000  Uiso   1.00
C196   C     0.25343   0.90205   0.20565   0.00000  Uiso   1.00
C197   C     0.30848   0.98900   0.23052   0.00000  Uiso   1.00
C198   C     0.16101   0.19240   0.16361   0.00000  Uiso   1.00
C199   C     0.12697   0.11504   0.18163   0.00000  Uiso   1.00
C200   C     0.09937   0.21801   0.19712   0.00000  Uiso   1.00
C201   C     0.07052   0.12137   0.21222   0.00000  Uiso   1.00
C202   C     0.15899   0.11386   0.12936   0.00000  Uiso   1.00
C203   C     0.15831   0.21584   0.10092   0.00000  Uiso   1.00
C204   C     0.15642   0.11822   0.07202   0.00000  Uiso   1.00
C205   C     0.19558   0.10523   0.17933   0.00000  Uiso   1.00
C206   C     0.22568   0.19995   0.19289   0.00000  Uiso   1.00
C207   C     0.25461   0.09506   0.20605   0.00000  Uiso   1.00
H208   H     0.15793   0.68769   0.16257   0.00000  Uiso   1.00
H209   H     0.09608   0.67646   0.19600   0.00000  Uiso   1.00
H210   H     0.15502   0.67430   0.09981   0.00000  Uiso   1.00
H211   H     0.22237   0.65841   0.19177   0.00000  Uiso   1.00
H212   H     0.02802   0.74898   0.23322   0.00000  Uiso   1.00
H213   H     0.15230   0.74442   0.03041   0.00000  Uiso   1.00
H214   H     0.29434   0.71091   0.22431   0.00000  Uiso   1.00
H215   H     0.16192   0.34240   0.16392   0.00000  Uiso   1.00
H216   H     0.10029   0.36710   0.19742   0.00000  Uiso   1.00
H217   H     0.15922   0.36494   0.10123   0.00000  Uiso   1.00
H218   H     0.22658   0.34905   0.19319   0.00000  Uiso   1.00
H219   H     0.03143   0.30953   0.23438   0.00000  Uiso   1.00
H220   H     0.15572   0.30497   0.03156   0.00000  Uiso   1.00
H221   H     0.29775   0.27146   0.22547   0.00000  Uiso   1.00
O222   O     0.98910   0.03369   0.25580   0.00000  Uiso   1.00
O223   O     0.15216   0.02771   0.98972   0.00000  Uiso   1.00
O224   O     0.33851   0.98374   0.24412   0.00000  Uiso   1.00
N225   N     0.03728   0.87752   0.22890   0.00000  Uiso   1.00
N226   N     0.15348   0.87325   0.03928   0.00000  Uiso   1.00
N227   N     0.28627   0.84192   0.22056   0.00000  Uiso   1.00
N228   N     0.03912   0.17914   0.22952   0.00000  Uiso   1.00
N229   N     0.15531   0.17488   0.03990   0.00000  Uiso   1.00
N230   N     0.28811   0.14355   0.22118   0.00000  Uiso   1.00
C231   C     0.66063   0.80982   0.16363   0.00000  Uiso   1.00
C232   C     0.62675   0.88886   0.18163   0.00000  Uiso   1.00
C233   C     0.59895   0.78726   0.19715   0.00000  Uiso   1.00
C234   C     0.57029   0.88531   0.21222   0.00000  Uiso   1.00
C235   C     0.51778   0.97872   0.24023   0.00000  Uiso   1.00
C236   C     0.65876   0.88820   0.12937   0.00000  Uiso   1.00
C237   C     0.65790   0.78604   0.10094   0.00000  Uiso   1.00
C238   C     0.65619   0.88355   0.07203   0.00000  Uiso   1.00
C239   C     0.65342   0.97594   0.01889   0.00000  Uiso   1.00
C240   C     0.69537   0.89552   0.17933   0.00000  Uiso   1.00
C241   C     0.72530   0.79953   0.19291   0.00000  Uiso   1.00
C242   C     0.75442   0.90320   0.20605   0.00000  Uiso   1.00
C243   C     0.80849   0.00697   0.23049   0.00000  Uiso   1.00
C244   C     0.65915   0.16460   0.16282   0.00000  Uiso   1.00
C245   C     0.62594   0.08157   0.18119   0.00000  Uiso   1.00
C246   C     0.59731   0.17980   0.19625   0.00000  Uiso   1.00
C247   C     0.56948   0.07836   0.21178   0.00000  Uiso   1.00
C248   C     0.65796   0.08090   0.12893   0.00000  Uiso   1.00
C249   C     0.65626   0.17858   0.10005   0.00000  Uiso   1.00
C250   C     0.65538   0.07660   0.07158   0.00000  Uiso   1.00
C251   C     0.69457   0.08823   0.17889   0.00000  Uiso   1.00
C252   C     0.72365   0.19207   0.19201   0.00000  Uiso   1.00
C253   C     0.75361   0.09626   0.20561   0.00000  Uiso   1.00
H254   H     0.66126   0.65979   0.16397   0.00000  Uiso   1.00
H255   H     0.59959   0.63813   0.19748   0.00000  Uiso   1.00
H256   H     0.65852   0.63692   0.10129   0.00000  Uiso   1.00
H257   H     0.72591   0.65041   0.19325   0.00000  Uiso   1.00
H258   H     0.53084   0.69910   0.23442   0.00000  Uiso   1.00
H259   H     0.65513   0.69655   0.03161   0.00000  Uiso   1.00
H260   H     0.79723   0.72499   0.22551   0.00000  Uiso   1.00
H261   H     0.65853   0.31464   0.16247   0.00000  Uiso   1.00
H262   H     0.59670   0.32892   0.19590   0.00000  Uiso   1.00
H263   H     0.65564   0.32770   0.09971   0.00000  Uiso   1.00
H264   H     0.72302   0.34119   0.19167   0.00000  Uiso   1.00
H265   H     0.52850   0.25977   0.23314   0.00000  Uiso   1.00
H266   H     0.65279   0.25721   0.03033   0.00000  Uiso   1.00
H267   H     0.79488   0.28566   0.22423   0.00000  Uiso   1.00
O268   O     0.48904   0.97701   0.25579   0.00000  Uiso   1.00
O269   O     0.65211   0.97366   0.98971   0.00000  Uiso   1.00
O270   O     0.83853   0.01097   0.24410   0.00000  Uiso   1.00
N271   N     0.53878   0.82910   0.22954   0.00000  Uiso   1.00
N272   N     0.65497   0.82671   0.03992   0.00000  Uiso   1.00
N273   N     0.78783   0.85330   0.22119   0.00000  Uiso   1.00
N274   N     0.53752   0.13079   0.22885   0.00000  Uiso   1.00
N275   N     0.65371   0.12840   0.03923   0.00000  Uiso   1.00
N276   N     0.78657   0.15499   0.22050   0.00000  Uiso   1.00
C277   C     0.34115   0.16232   0.66288   0.00000  Uiso   1.00
C278   C     0.37420   0.07763   0.68123   0.00000  Uiso   1.00
C279   C     0.40302   0.17444   0.69631   0.00000  Uiso   1.00
C280   C     0.43065   0.07164   0.71182   0.00000  Uiso   1.00
C281   C     0.48216   0.96945   0.74024   0.00000  Uiso   1.00
C282   C     0.34219   0.07880   0.62897   0.00000  Uiso   1.00
C283   C     0.34408   0.17660   0.60011   0.00000  Uiso   1.00
C284   C     0.34476   0.07479   0.57162   0.00000  Uiso   1.00
C285   C     0.34653   0.97442   0.51891   0.00000  Uiso   1.00
C286   C     0.30559   0.08744   0.67893   0.00000  Uiso   1.00
C287   C     0.27671   0.19250   0.69208   0.00000  Uiso   1.00
C288   C     0.24657   0.09795   0.70565   0.00000  Uiso   1.00
C289   C     0.19152   0.01100   0.73052   0.00000  Uiso   1.00
C290   C     0.33899   0.80760   0.66361   0.00000  Uiso   1.00
C291   C     0.37303   0.88496   0.68163   0.00000  Uiso   1.00
C292   C     0.40063   0.78199   0.69712   0.00000  Uiso   1.00
C293   C     0.42948   0.87863   0.71222   0.00000  Uiso   1.00
C294   C     0.34101   0.88614   0.62936   0.00000  Uiso   1.00
C295   C     0.34169   0.78416   0.60092   0.00000  Uiso   1.00
C296   C     0.34358   0.88178   0.57202   0.00000  Uiso   1.00
C297   C     0.30442   0.89477   0.67933   0.00000  Uiso   1.00
C298   C     0.27432   0.80005   0.69289   0.00000  Uiso   1.00
C299   C     0.24539   0.90494   0.70605   0.00000  Uiso   1.00
H300   H     0.34207   0.31231   0.66257   0.00000  Uiso   1.00
H301   H     0.40392   0.32354   0.69600   0.00000  Uiso   1.00
H302   H     0.34498   0.32570   0.59981   0.00000  Uiso   1.00
H303   H     0.27763   0.34159   0.69177   0.00000  Uiso   1.00
H304   H     0.47198   0.25102   0.73322   0.00000  Uiso   1.00
H305   H     0.34770   0.25558   0.53041   0.00000  Uiso   1.00
H306   H     0.20566   0.28909   0.72431   0.00000  Uiso   1.00
H307   H     0.33808   0.65760   0.66392   0.00000  Uiso   1.00
H308   H     0.39971   0.63290   0.69742   0.00000  Uiso   1.00
H309   H     0.34078   0.63506   0.60123   0.00000  Uiso   1.00
H310   H     0.27342   0.65095   0.69319   0.00000  Uiso   1.00
H311   H     0.46857   0.69047   0.73438   0.00000  Uiso   1.00
H312   H     0.34428   0.69503   0.53156   0.00000  Uiso   1.00
H313   H     0.20225   0.72854   0.72547   0.00000  Uiso   1.00
O314   O     0.51090   0.96631   0.75580   0.00000  Uiso   1.00
O315   O     0.34784   0.97229   0.48972   0.00000  Uiso   1.00
O316   O     0.16149   0.01626   0.74412   0.00000  Uiso   1.00
N317   N     0.46272   0.12248   0.72890   0.00000  Uiso   1.00
N318   N     0.34652   0.12675   0.53928   0.00000  Uiso   1.00
N319   N     0.21373   0.15808   0.72056   0.00000  Uiso   1.00
N320   N     0.46088   0.82086   0.72952   0.00000  Uiso   1.00
N321   N     0.34469   0.82512   0.53990   0.00000  Uiso   1.00
N322   N     0.21189   0.85645   0.72118   0.00000  Uiso   1.00
C323   C     0.83937   0.19018   0.66363   0.00000  Uiso   1.00
C324   C     0.87325   0.11114   0.68163   0.00000  Uiso   1.00
C325   C     0.90105   0.21274   0.69715   0.00000  Uiso   1.00
C326   C     0.92971   0.11469   0.71222   0.00000  Uiso   1.00
C327   C     0.98222   0.02128   0.74023   0.00000  Uiso   1.00
C328   C     0.84124   0.11180   0.62937   0.00000  Uiso   1.00
C329   C     0.84210   0.21396   0.60094   0.00000  Uiso   1.00
C330   C     0.84381   0.11645   0.57203   0.00000  Uiso   1.00
C331   C     0.84658   0.02406   0.51889   0.00000  Uiso   1.00
C332   C     0.80463   0.10448   0.67933   0.00000  Uiso   1.00
C333   C     0.77470   0.20047   0.69291   0.00000  Uiso   1.00
C334   C     0.74558   0.09680   0.70605   0.00000  Uiso   1.00
C335   C     0.69151   0.99303   0.73049   0.00000  Uiso   1.00
C336   C     0.84085   0.83540   0.66282   0.00000  Uiso   1.00
C337   C     0.87406   0.91843   0.68119   0.00000  Uiso   1.00
C338   C     0.90269   0.82020   0.69625   0.00000  Uiso   1.00
C339   C     0.93052   0.92164   0.71178   0.00000  Uiso   1.00
C340   C     0.84204   0.91910   0.62893   0.00000  Uiso   1.00
C341   C     0.84374   0.82142   0.60005   0.00000  Uiso   1.00
C342   C     0.84462   0.92340   0.57158   0.00000  Uiso   1.00
C343   C     0.80543   0.91177   0.67889   0.00000  Uiso   1.00
C344   C     0.77635   0.80793   0.69201   0.00000  Uiso   1.00
C345   C     0.74639   0.90374   0.70561   0.00000  Uiso   1.00
H346   H     0.83874   0.34021   0.66397   0.00000  Uiso   1.00
H347   H     0.90041   0.36187   0.69748   0.00000  Uiso   1.00
H348   H     0.84148   0.36308   0.60129   0.00000  Uiso   1.00
H349   H     0.77409   0.34959   0.69325   0.00000  Uiso   1.00
H350   H     0.96916   0.30090   0.73442   0.00000  Uiso   1.00
H351   H     0.84487   0.30345   0.53161   0.00000  Uiso   1.00
H352   H     0.70277   0.27501   0.72551   0.00000  Uiso   1.00
H353   H     0.84147   0.68536   0.66247   0.00000  Uiso   1.00
H354   H     0.90330   0.67108   0.69590   0.00000  Uiso   1.00
H355   H     0.84436   0.67230   0.59971   0.00000  Uiso   1.00
H356   H     0.77698   0.65881   0.69167   0.00000  Uiso   1.00
H357   H     0.97150   0.74023   0.73314   0.00000  Uiso   1.00
H358   H     0.84721   0.74279   0.53033   0.00000  Uiso   1.00
H359   H     0.70512   0.71434   0.72423   0.00000  Uiso   1.00
O360   O     0.01096   0.02299   0.75579   0.00000  Uiso   1.00
O361   O     0.84789   0.02634   0.48971   0.00000  Uiso   1.00
O362   O     0.66147   0.98903   0.74410   0.00000  Uiso   1.00
N363   N     0.96122   0.17090   0.72954   0.00000  Uiso   1.00
N364   N     0.84503   0.17329   0.53992   0.00000  Uiso   1.00
N365   N     0.71217   0.14670   0.72119   0.00000  Uiso   1.00
N366   N     0.96248   0.86921   0.72885   0.00000  Uiso   1.00
N367   N     0.84629   0.87160   0.53923   0.00000  Uiso   1.00
N368   N     0.71343   0.84501   0.72050   0.00000  Uiso   1.00
