data_job_05789
_audit_creation_date              2018-12-19
_audit_creation_method            'Materials Studio'
_symmetry_space_group_name_H-M    'P1'
_symmetry_Int_Tables_number       1
_symmetry_cell_setting            triclinic
loop_
_symmetry_equiv_pos_as_xyz
  x,y,z
_cell_length_a                    22.9676
_cell_length_b                    8.5225
_cell_length_c                    18.1736
_cell_angle_alpha                 90.0000
_cell_angle_beta                  138.8626
_cell_angle_gamma                 90.0000
loop_
_atom_site_label
_atom_site_type_symbol
_atom_site_fract_x
_atom_site_fract_y
_atom_site_fract_z
_atom_site_U_iso_or_equiv
_atom_site_adp_type
_atom_site_occupancy
C1     C     0.04683   0.54095   0.31486   0.00000  Uiso   1.00
C2     C     0.12478   0.46382   0.42820   0.00000  Uiso   1.00
C3     C     0.21282   0.50817   0.50563   0.00000  Uiso   1.00
C4     C     0.27423   0.42274   0.60439   0.00000  Uiso   1.00
C5     C     0.39919   0.32198   0.77723   0.00000  Uiso   1.00
C6     C     0.00064   0.41043   0.22824   0.00000  Uiso   1.00
C7     C     0.98430   0.40992   0.13754   0.00000  Uiso   1.00
C8     C     0.94120   0.27955   0.06796   0.00000  Uiso   1.00
C9     C     0.87338   0.09596   0.93032   0.00000  Uiso   1.00
C10    C     0.98251   0.59057   0.31397   0.00000  Uiso   1.00
C11    C     0.95091   0.74151   0.29533   0.00000  Uiso   1.00
C12    C     0.89252   0.76281   0.29790   0.00000  Uiso   1.00
C13    C     0.79656   0.85891   0.29338   0.00000  Uiso   1.00
C14    C     0.99932   0.31037   0.35256   0.00000  Uiso   1.00
C15    C     0.09897   0.33857   0.44867   0.00000  Uiso   1.00
C16    C     0.16026   0.25306   0.54734   0.00000  Uiso   1.00
C17    C     0.24838   0.29728   0.62490   0.00000  Uiso   1.00
C18    C     0.97484   0.28519   0.24871   0.00000  Uiso   1.00
C19    C     0.93174   0.15480   0.17925   0.00000  Uiso   1.00
C20    C     0.91535   0.15408   0.08847   0.00000  Uiso   1.00
C21    C     0.95671   0.46533   0.33445   0.00000  Uiso   1.00
C22    C     0.89836   0.48639   0.33704   0.00000  Uiso   1.00
C23    C     0.86667   0.63734   0.31841   0.00000  Uiso   1.00
H24    H     0.06691   0.63845   0.29891   0.00000  Uiso   1.00
H25    H     0.23276   0.60509   0.48975   0.00000  Uiso   1.00
H26    H     0.00427   0.50686   0.12171   0.00000  Uiso   1.00
H27    H     0.97089   0.83840   0.27948   0.00000  Uiso   1.00
H28    H     0.40526   0.51284   0.71034   0.00000  Uiso   1.00
H29    H     0.92345   0.30574   0.93429   0.00000  Uiso   1.00
H30    H     0.85305   0.00486   0.26697   0.00000  Uiso   1.00
H31    H     0.97923   0.21285   0.36850   0.00000  Uiso   1.00
H32    H     0.14027   0.15614   0.56316   0.00000  Uiso   1.00
H33    H     0.91178   0.05791   0.19512   0.00000  Uiso   1.00
H34    H     0.87840   0.38945   0.35289   0.00000  Uiso   1.00
H35    H     0.33019   0.14845   0.76992   0.00000  Uiso   1.00
H36    H     0.84837   0.94135   0.99386   0.00000  Uiso   1.00
H37    H     0.77799   0.64047   0.32656   0.00000  Uiso   1.00
O38    O     0.47525   0.30098   0.86691   0.00000  Uiso   1.00
O39    O     0.84311   0.02929   0.84875   0.00000  Uiso   1.00
O40    O     0.75077   0.94652   0.28524   0.00000  Uiso   1.00
N41    N     0.36549   0.43488   0.69765   0.00000  Uiso   1.00
N42    N     0.91503   0.24124   0.97210   0.00000  Uiso   1.00
N43    N     0.84920   0.89485   0.28311   0.00000  Uiso   1.00
N44    N     0.32510   0.23881   0.72972   0.00000  Uiso   1.00
N45    N     0.87464   0.04517   0.00416   0.00000  Uiso   1.00
N46    N     0.80881   0.69878   0.31517   0.00000  Uiso   1.00
C47    C     0.54683   0.04095   0.31486   0.00000  Uiso   1.00
C48    C     0.62478   0.96382   0.42820   0.00000  Uiso   1.00
C49    C     0.71282   0.00817   0.50563   0.00000  Uiso   1.00
C50    C     0.77423   0.92274   0.60439   0.00000  Uiso   1.00
C51    C     0.89919   0.82198   0.77723   0.00000  Uiso   1.00
C52    C     0.50064   0.91043   0.22824   0.00000  Uiso   1.00
C53    C     0.48430   0.90992   0.13754   0.00000  Uiso   1.00
C54    C     0.44120   0.77955   0.06796   0.00000  Uiso   1.00
C55    C     0.37338   0.59596   0.93032   0.00000  Uiso   1.00
C56    C     0.48251   0.09057   0.31397   0.00000  Uiso   1.00
C57    C     0.45091   0.24151   0.29533   0.00000  Uiso   1.00
C58    C     0.39252   0.26281   0.29790   0.00000  Uiso   1.00
C59    C     0.29656   0.35891   0.29338   0.00000  Uiso   1.00
C60    C     0.49932   0.81037   0.35256   0.00000  Uiso   1.00
C61    C     0.59897   0.83857   0.44867   0.00000  Uiso   1.00
C62    C     0.66026   0.75306   0.54734   0.00000  Uiso   1.00
C63    C     0.74838   0.79728   0.62490   0.00000  Uiso   1.00
C64    C     0.47484   0.78519   0.24871   0.00000  Uiso   1.00
C65    C     0.43174   0.65480   0.17925   0.00000  Uiso   1.00
C66    C     0.41535   0.65408   0.08847   0.00000  Uiso   1.00
C67    C     0.45671   0.96533   0.33445   0.00000  Uiso   1.00
C68    C     0.39836   0.98639   0.33704   0.00000  Uiso   1.00
C69    C     0.36667   0.13734   0.31841   0.00000  Uiso   1.00
H70    H     0.56691   0.13845   0.29891   0.00000  Uiso   1.00
H71    H     0.73276   0.10509   0.48975   0.00000  Uiso   1.00
H72    H     0.50427   0.00686   0.12171   0.00000  Uiso   1.00
H73    H     0.47089   0.33840   0.27948   0.00000  Uiso   1.00
H74    H     0.90526   0.01284   0.71034   0.00000  Uiso   1.00
H75    H     0.42345   0.80574   0.93429   0.00000  Uiso   1.00
H76    H     0.35305   0.50486   0.26697   0.00000  Uiso   1.00
H77    H     0.47923   0.71285   0.36850   0.00000  Uiso   1.00
H78    H     0.64027   0.65614   0.56316   0.00000  Uiso   1.00
H79    H     0.41178   0.55791   0.19512   0.00000  Uiso   1.00
H80    H     0.37840   0.88945   0.35289   0.00000  Uiso   1.00
H81    H     0.83019   0.64845   0.76992   0.00000  Uiso   1.00
H82    H     0.34837   0.44135   0.99386   0.00000  Uiso   1.00
H83    H     0.27799   0.14047   0.32656   0.00000  Uiso   1.00
O84    O     0.97525   0.80098   0.86691   0.00000  Uiso   1.00
O85    O     0.34311   0.52929   0.84875   0.00000  Uiso   1.00
O86    O     0.25077   0.44652   0.28524   0.00000  Uiso   1.00
N87    N     0.86549   0.93488   0.69765   0.00000  Uiso   1.00
N88    N     0.41503   0.74124   0.97210   0.00000  Uiso   1.00
N89    N     0.34920   0.39485   0.28311   0.00000  Uiso   1.00
N90    N     0.82510   0.73881   0.72972   0.00000  Uiso   1.00
N91    N     0.37464   0.54517   0.00416   0.00000  Uiso   1.00
N92    N     0.30881   0.19878   0.31517   0.00000  Uiso   1.00
C93    C     0.95317   0.54095   0.68514   0.00000  Uiso   1.00
C94    C     0.87522   0.46382   0.57180   0.00000  Uiso   1.00
C95    C     0.78718   0.50817   0.49437   0.00000  Uiso   1.00
C96    C     0.72577   0.42274   0.39561   0.00000  Uiso   1.00
C97    C     0.60081   0.32198   0.22277   0.00000  Uiso   1.00
C98    C     0.99936   0.41043   0.77176   0.00000  Uiso   1.00
C99    C     0.01570   0.40992   0.86246   0.00000  Uiso   1.00
C100   C     0.05880   0.27955   0.93204   0.00000  Uiso   1.00
C101   C     0.12662   0.09596   0.06968   0.00000  Uiso   1.00
C102   C     0.01749   0.59057   0.68603   0.00000  Uiso   1.00
C103   C     0.04909   0.74151   0.70467   0.00000  Uiso   1.00
C104   C     0.10748   0.76281   0.70210   0.00000  Uiso   1.00
C105   C     0.20344   0.85891   0.70662   0.00000  Uiso   1.00
C106   C     0.00068   0.31037   0.64744   0.00000  Uiso   1.00
C107   C     0.90103   0.33857   0.55133   0.00000  Uiso   1.00
C108   C     0.83974   0.25306   0.45266   0.00000  Uiso   1.00
C109   C     0.75162   0.29728   0.37510   0.00000  Uiso   1.00
C110   C     0.02516   0.28519   0.75129   0.00000  Uiso   1.00
C111   C     0.06826   0.15480   0.82075   0.00000  Uiso   1.00
C112   C     0.08465   0.15408   0.91153   0.00000  Uiso   1.00
C113   C     0.04329   0.46533   0.66555   0.00000  Uiso   1.00
C114   C     0.10164   0.48639   0.66296   0.00000  Uiso   1.00
C115   C     0.13333   0.63734   0.68159   0.00000  Uiso   1.00
H116   H     0.93309   0.63845   0.70109   0.00000  Uiso   1.00
H117   H     0.76724   0.60509   0.51025   0.00000  Uiso   1.00
H118   H     0.99573   0.50686   0.87829   0.00000  Uiso   1.00
H119   H     0.02911   0.83840   0.72052   0.00000  Uiso   1.00
H120   H     0.59474   0.51284   0.28966   0.00000  Uiso   1.00
H121   H     0.07655   0.30574   0.06571   0.00000  Uiso   1.00
H122   H     0.14695   0.00486   0.73303   0.00000  Uiso   1.00
H123   H     0.02077   0.21285   0.63150   0.00000  Uiso   1.00
H124   H     0.85973   0.15614   0.43684   0.00000  Uiso   1.00
H125   H     0.08822   0.05791   0.80488   0.00000  Uiso   1.00
H126   H     0.12160   0.38945   0.64711   0.00000  Uiso   1.00
H127   H     0.66981   0.14845   0.23008   0.00000  Uiso   1.00
H128   H     0.15163   0.94135   0.00614   0.00000  Uiso   1.00
H129   H     0.22201   0.64047   0.67344   0.00000  Uiso   1.00
O130   O     0.52475   0.30098   0.13309   0.00000  Uiso   1.00
O131   O     0.15689   0.02929   0.15125   0.00000  Uiso   1.00
O132   O     0.24923   0.94652   0.71476   0.00000  Uiso   1.00
N133   N     0.63451   0.43488   0.30235   0.00000  Uiso   1.00
N134   N     0.08497   0.24124   0.02790   0.00000  Uiso   1.00
N135   N     0.15080   0.89485   0.71689   0.00000  Uiso   1.00
N136   N     0.67490   0.23881   0.27028   0.00000  Uiso   1.00
N137   N     0.12536   0.04517   0.99584   0.00000  Uiso   1.00
N138   N     0.19119   0.69878   0.68483   0.00000  Uiso   1.00
C139   C     0.45317   0.04095   0.68514   0.00000  Uiso   1.00
C140   C     0.37522   0.96382   0.57180   0.00000  Uiso   1.00
C141   C     0.28718   0.00817   0.49437   0.00000  Uiso   1.00
C142   C     0.22577   0.92274   0.39561   0.00000  Uiso   1.00
C143   C     0.10081   0.82198   0.22277   0.00000  Uiso   1.00
C144   C     0.49936   0.91043   0.77176   0.00000  Uiso   1.00
C145   C     0.51570   0.90992   0.86246   0.00000  Uiso   1.00
C146   C     0.55880   0.77955   0.93204   0.00000  Uiso   1.00
C147   C     0.62662   0.59596   0.06968   0.00000  Uiso   1.00
C148   C     0.51749   0.09057   0.68603   0.00000  Uiso   1.00
C149   C     0.54909   0.24151   0.70467   0.00000  Uiso   1.00
C150   C     0.60748   0.26281   0.70210   0.00000  Uiso   1.00
C151   C     0.70344   0.35891   0.70662   0.00000  Uiso   1.00
C152   C     0.50068   0.81037   0.64744   0.00000  Uiso   1.00
C153   C     0.40103   0.83857   0.55133   0.00000  Uiso   1.00
C154   C     0.33974   0.75306   0.45266   0.00000  Uiso   1.00
C155   C     0.25162   0.79728   0.37510   0.00000  Uiso   1.00
C156   C     0.52516   0.78519   0.75129   0.00000  Uiso   1.00
C157   C     0.56826   0.65480   0.82075   0.00000  Uiso   1.00
C158   C     0.58465   0.65408   0.91153   0.00000  Uiso   1.00
C159   C     0.54329   0.96533   0.66555   0.00000  Uiso   1.00
C160   C     0.60164   0.98639   0.66296   0.00000  Uiso   1.00
C161   C     0.63333   0.13734   0.68159   0.00000  Uiso   1.00
H162   H     0.43309   0.13845   0.70109   0.00000  Uiso   1.00
H163   H     0.26724   0.10509   0.51025   0.00000  Uiso   1.00
H164   H     0.49573   0.00686   0.87829   0.00000  Uiso   1.00
H165   H     0.52911   0.33840   0.72052   0.00000  Uiso   1.00
H166   H     0.09474   0.01284   0.28966   0.00000  Uiso   1.00
H167   H     0.57655   0.80574   0.06571   0.00000  Uiso   1.00
H168   H     0.64695   0.50486   0.73303   0.00000  Uiso   1.00
H169   H     0.52077   0.71285   0.63150   0.00000  Uiso   1.00
H170   H     0.35973   0.65614   0.43684   0.00000  Uiso   1.00
H171   H     0.58822   0.55791   0.80488   0.00000  Uiso   1.00
H172   H     0.62160   0.88945   0.64711   0.00000  Uiso   1.00
H173   H     0.16981   0.64845   0.23008   0.00000  Uiso   1.00
H174   H     0.65163   0.44135   0.00614   0.00000  Uiso   1.00
H175   H     0.72201   0.14047   0.67344   0.00000  Uiso   1.00
O176   O     0.02475   0.80098   0.13309   0.00000  Uiso   1.00
O177   O     0.65689   0.52929   0.15125   0.00000  Uiso   1.00
O178   O     0.74923   0.44652   0.71476   0.00000  Uiso   1.00
N179   N     0.13451   0.93488   0.30235   0.00000  Uiso   1.00
N180   N     0.58497   0.74124   0.02790   0.00000  Uiso   1.00
N181   N     0.65080   0.39485   0.71689   0.00000  Uiso   1.00
N182   N     0.17490   0.73881   0.27028   0.00000  Uiso   1.00
N183   N     0.62536   0.54517   0.99584   0.00000  Uiso   1.00
N184   N     0.69119   0.19878   0.68483   0.00000  Uiso   1.00
