data_job_01044
_audit_creation_date              2018-12-19
_audit_creation_method            'Materials Studio'
_symmetry_space_group_name_H-M    'P1'
_symmetry_Int_Tables_number       1
_symmetry_cell_setting            triclinic
loop_
_symmetry_equiv_pos_as_xyz
  x,y,z
_cell_length_a                    23.0421
_cell_length_b                    13.9586
_cell_length_c                    22.3268
_cell_angle_alpha                 90.0000
_cell_angle_beta                  90.0000
_cell_angle_gamma                 90.0000
loop_
_atom_site_label
_atom_site_type_symbol
_atom_site_fract_x
_atom_site_fract_y
_atom_site_fract_z
_atom_site_U_iso_or_equiv
_atom_site_adp_type
_atom_site_occupancy
C1     C     0.89568   0.96975   0.14280   0.00000  Uiso   1.00
C2     C     0.95448   0.92783   0.12559   0.00000  Uiso   1.00
C3     C     0.00342   0.98005   0.10989   0.00000  Uiso   1.00
C4     C     0.05301   0.92836   0.09564   0.00000  Uiso   1.00
C5     C     0.14422   0.87853   0.06873   0.00000  Uiso   1.00
C6     C     0.88158   0.92956   0.20463   0.00000  Uiso   1.00
C7     C     0.86923   0.98324   0.25537   0.00000  Uiso   1.00
C8     C     0.85745   0.93301   0.30765   0.00000  Uiso   1.00
C9     C     0.83546   0.88587   0.40343   0.00000  Uiso   1.00
C10    C     0.85170   0.92532   0.09999   0.00000  Uiso   1.00
C11    C     0.81421   0.97542   0.06277   0.00000  Uiso   1.00
C12    C     0.77727   0.92161   0.02697   0.00000  Uiso   1.00
C13    C     0.70888   0.86788   0.96029   0.00000  Uiso   1.00
C14    C     0.89673   0.78510   0.14542   0.00000  Uiso   1.00
C15    C     0.95504   0.82753   0.12701   0.00000  Uiso   1.00
C16    C     0.00457   0.77575   0.11278   0.00000  Uiso   1.00
C17    C     0.05358   0.82788   0.09706   0.00000  Uiso   1.00
C18    C     0.88215   0.82927   0.20605   0.00000  Uiso   1.00
C19    C     0.87039   0.77894   0.25826   0.00000  Uiso   1.00
C20    C     0.85802   0.83253   0.30908   0.00000  Uiso   1.00
C21    C     0.85227   0.82502   0.10141   0.00000  Uiso   1.00
C22    C     0.81537   0.77112   0.06566   0.00000  Uiso   1.00
C23    C     0.77784   0.82113   0.02839   0.00000  Uiso   1.00
H24    H     0.89524   0.04784   0.14170   0.00000  Uiso   1.00
H25    H     0.00296   0.05767   0.10880   0.00000  Uiso   1.00
H26    H     0.86879   0.06086   0.25426   0.00000  Uiso   1.00
H27    H     0.81378   0.05304   0.06168   0.00000  Uiso   1.00
H28    H     0.12265   0.02434   0.07297   0.00000  Uiso   1.00
H29    H     0.83972   0.03107   0.37967   0.00000  Uiso   1.00
H30    H     0.72373   0.01458   0.97359   0.00000  Uiso   1.00
H31    H     0.89717   0.70701   0.14652   0.00000  Uiso   1.00
H32    H     0.00500   0.69813   0.11388   0.00000  Uiso   1.00
H33    H     0.87083   0.70133   0.25934   0.00000  Uiso   1.00
H34    H     0.81582   0.69351   0.06677   0.00000  Uiso   1.00
H35    H     0.12430   0.73253   0.07710   0.00000  Uiso   1.00
H36    H     0.84137   0.73926   0.38380   0.00000  Uiso   1.00
H37    H     0.72539   0.72276   0.97772   0.00000  Uiso   1.00
O38    O     0.19438   0.87875   0.05350   0.00000  Uiso   1.00
O39    O     0.82318   0.88758   0.45587   0.00000  Uiso   1.00
O40    O     0.67101   0.86594   0.92311   0.00000  Uiso   1.00
N41    N     0.10824   0.95688   0.07841   0.00000  Uiso   1.00
N42    N     0.84372   0.96317   0.36516   0.00000  Uiso   1.00
N43    N     0.73527   0.94775   0.98552   0.00000  Uiso   1.00
N44    N     0.10913   0.79986   0.08063   0.00000  Uiso   1.00
N45    N     0.84461   0.80615   0.36738   0.00000  Uiso   1.00
N46    N     0.73616   0.79073   0.98774   0.00000  Uiso   1.00
C47    C     0.60432   0.03025   0.64280   0.00000  Uiso   1.00
C48    C     0.54552   0.07217   0.62559   0.00000  Uiso   1.00
C49    C     0.49658   0.01995   0.60989   0.00000  Uiso   1.00
C50    C     0.44699   0.07164   0.59564   0.00000  Uiso   1.00
C51    C     0.35578   0.12147   0.56873   0.00000  Uiso   1.00
C52    C     0.61842   0.07044   0.70463   0.00000  Uiso   1.00
C53    C     0.63077   0.01676   0.75537   0.00000  Uiso   1.00
C54    C     0.64255   0.06699   0.80765   0.00000  Uiso   1.00
C55    C     0.66454   0.11413   0.90343   0.00000  Uiso   1.00
C56    C     0.64830   0.07468   0.59999   0.00000  Uiso   1.00
C57    C     0.68579   0.02458   0.56277   0.00000  Uiso   1.00
C58    C     0.72273   0.07839   0.52697   0.00000  Uiso   1.00
C59    C     0.79112   0.13212   0.46029   0.00000  Uiso   1.00
C60    C     0.60327   0.21490   0.64542   0.00000  Uiso   1.00
C61    C     0.54496   0.17247   0.62701   0.00000  Uiso   1.00
C62    C     0.49543   0.22425   0.61278   0.00000  Uiso   1.00
C63    C     0.44642   0.17212   0.59706   0.00000  Uiso   1.00
C64    C     0.61785   0.17073   0.70605   0.00000  Uiso   1.00
C65    C     0.62961   0.22106   0.75826   0.00000  Uiso   1.00
C66    C     0.64198   0.16747   0.80908   0.00000  Uiso   1.00
C67    C     0.64773   0.17498   0.60141   0.00000  Uiso   1.00
C68    C     0.68463   0.22888   0.56566   0.00000  Uiso   1.00
C69    C     0.72216   0.17887   0.52839   0.00000  Uiso   1.00
H70    H     0.60476   0.95216   0.64170   0.00000  Uiso   1.00
H71    H     0.49704   0.94233   0.60880   0.00000  Uiso   1.00
H72    H     0.63121   0.93914   0.75426   0.00000  Uiso   1.00
H73    H     0.68622   0.94696   0.56168   0.00000  Uiso   1.00
H74    H     0.37735   0.97566   0.57297   0.00000  Uiso   1.00
H75    H     0.66028   0.96893   0.87967   0.00000  Uiso   1.00
H76    H     0.77627   0.98542   0.47359   0.00000  Uiso   1.00
H77    H     0.60283   0.29299   0.64652   0.00000  Uiso   1.00
H78    H     0.49500   0.30187   0.61388   0.00000  Uiso   1.00
H79    H     0.62917   0.29867   0.75934   0.00000  Uiso   1.00
H80    H     0.68418   0.30649   0.56677   0.00000  Uiso   1.00
H81    H     0.37570   0.26747   0.57710   0.00000  Uiso   1.00
H82    H     0.65863   0.26074   0.88380   0.00000  Uiso   1.00
H83    H     0.77461   0.27724   0.47772   0.00000  Uiso   1.00
O84    O     0.30562   0.12125   0.55350   0.00000  Uiso   1.00
O85    O     0.67682   0.11242   0.95587   0.00000  Uiso   1.00
O86    O     0.82899   0.13406   0.42311   0.00000  Uiso   1.00
N87    N     0.39176   0.04312   0.57841   0.00000  Uiso   1.00
N88    N     0.65628   0.03683   0.86516   0.00000  Uiso   1.00
N89    N     0.76473   0.05225   0.48552   0.00000  Uiso   1.00
N90    N     0.39087   0.20014   0.58063   0.00000  Uiso   1.00
N91    N     0.65539   0.19385   0.86738   0.00000  Uiso   1.00
N92    N     0.76384   0.20927   0.48774   0.00000  Uiso   1.00
C93    C     0.10432   0.46975   0.35720   0.00000  Uiso   1.00
C94    C     0.04552   0.42783   0.37441   0.00000  Uiso   1.00
C95    C     0.99658   0.48005   0.39011   0.00000  Uiso   1.00
C96    C     0.94699   0.42836   0.40436   0.00000  Uiso   1.00
C97    C     0.85578   0.37853   0.43127   0.00000  Uiso   1.00
C98    C     0.11842   0.42956   0.29537   0.00000  Uiso   1.00
C99    C     0.13077   0.48324   0.24463   0.00000  Uiso   1.00
C100   C     0.14255   0.43301   0.19235   0.00000  Uiso   1.00
C101   C     0.16454   0.38587   0.09657   0.00000  Uiso   1.00
C102   C     0.14830   0.42532   0.40001   0.00000  Uiso   1.00
C103   C     0.18579   0.47542   0.43723   0.00000  Uiso   1.00
C104   C     0.22273   0.42161   0.47303   0.00000  Uiso   1.00
C105   C     0.29112   0.36788   0.53971   0.00000  Uiso   1.00
C106   C     0.10327   0.28510   0.35458   0.00000  Uiso   1.00
C107   C     0.04496   0.32753   0.37299   0.00000  Uiso   1.00
C108   C     0.99543   0.27575   0.38722   0.00000  Uiso   1.00
C109   C     0.94642   0.32788   0.40294   0.00000  Uiso   1.00
C110   C     0.11785   0.32927   0.29395   0.00000  Uiso   1.00
C111   C     0.12961   0.27894   0.24174   0.00000  Uiso   1.00
C112   C     0.14198   0.33253   0.19092   0.00000  Uiso   1.00
C113   C     0.14773   0.32502   0.39859   0.00000  Uiso   1.00
C114   C     0.18463   0.27112   0.43434   0.00000  Uiso   1.00
C115   C     0.22216   0.32113   0.47161   0.00000  Uiso   1.00
H116   H     0.10476   0.54784   0.35830   0.00000  Uiso   1.00
H117   H     0.99704   0.55767   0.39120   0.00000  Uiso   1.00
H118   H     0.13121   0.56086   0.24574   0.00000  Uiso   1.00
H119   H     0.18622   0.55304   0.43832   0.00000  Uiso   1.00
H120   H     0.87735   0.52434   0.42703   0.00000  Uiso   1.00
H121   H     0.16028   0.53107   0.12033   0.00000  Uiso   1.00
H122   H     0.27627   0.51458   0.52641   0.00000  Uiso   1.00
H123   H     0.10283   0.20701   0.35348   0.00000  Uiso   1.00
H124   H     0.99500   0.19813   0.38612   0.00000  Uiso   1.00
H125   H     0.12917   0.20133   0.24066   0.00000  Uiso   1.00
H126   H     0.18418   0.19351   0.43323   0.00000  Uiso   1.00
H127   H     0.87570   0.23253   0.42290   0.00000  Uiso   1.00
H128   H     0.15863   0.23926   0.11620   0.00000  Uiso   1.00
H129   H     0.27461   0.22276   0.52228   0.00000  Uiso   1.00
O130   O     0.80562   0.37875   0.44650   0.00000  Uiso   1.00
O131   O     0.17682   0.38758   0.04413   0.00000  Uiso   1.00
O132   O     0.32899   0.36594   0.57689   0.00000  Uiso   1.00
N133   N     0.89176   0.45688   0.42159   0.00000  Uiso   1.00
N134   N     0.15628   0.46317   0.13484   0.00000  Uiso   1.00
N135   N     0.26473   0.44775   0.51448   0.00000  Uiso   1.00
N136   N     0.89087   0.29986   0.41937   0.00000  Uiso   1.00
N137   N     0.15539   0.30615   0.13262   0.00000  Uiso   1.00
N138   N     0.26384   0.29073   0.51226   0.00000  Uiso   1.00
C139   C     0.39568   0.53025   0.85720   0.00000  Uiso   1.00
C140   C     0.45448   0.57217   0.87441   0.00000  Uiso   1.00
C141   C     0.50342   0.51995   0.89011   0.00000  Uiso   1.00
C142   C     0.55301   0.57164   0.90436   0.00000  Uiso   1.00
C143   C     0.64422   0.62147   0.93127   0.00000  Uiso   1.00
C144   C     0.38158   0.57044   0.79537   0.00000  Uiso   1.00
C145   C     0.36923   0.51676   0.74463   0.00000  Uiso   1.00
C146   C     0.35745   0.56699   0.69235   0.00000  Uiso   1.00
C147   C     0.33546   0.61413   0.59657   0.00000  Uiso   1.00
C148   C     0.35170   0.57468   0.90001   0.00000  Uiso   1.00
C149   C     0.31421   0.52458   0.93723   0.00000  Uiso   1.00
C150   C     0.27727   0.57839   0.97303   0.00000  Uiso   1.00
C151   C     0.20888   0.63212   0.03971   0.00000  Uiso   1.00
C152   C     0.39673   0.71490   0.85458   0.00000  Uiso   1.00
C153   C     0.45504   0.67247   0.87299   0.00000  Uiso   1.00
C154   C     0.50457   0.72425   0.88722   0.00000  Uiso   1.00
C155   C     0.55358   0.67212   0.90294   0.00000  Uiso   1.00
C156   C     0.38215   0.67073   0.79395   0.00000  Uiso   1.00
C157   C     0.37039   0.72106   0.74174   0.00000  Uiso   1.00
C158   C     0.35802   0.66747   0.69092   0.00000  Uiso   1.00
C159   C     0.35227   0.67498   0.89859   0.00000  Uiso   1.00
C160   C     0.31537   0.72888   0.93434   0.00000  Uiso   1.00
C161   C     0.27784   0.67887   0.97161   0.00000  Uiso   1.00
H162   H     0.39524   0.45216   0.85830   0.00000  Uiso   1.00
H163   H     0.50296   0.44233   0.89120   0.00000  Uiso   1.00
H164   H     0.36879   0.43914   0.74574   0.00000  Uiso   1.00
H165   H     0.31378   0.44696   0.93832   0.00000  Uiso   1.00
H166   H     0.62265   0.47566   0.92703   0.00000  Uiso   1.00
H167   H     0.33972   0.46893   0.62033   0.00000  Uiso   1.00
H168   H     0.22373   0.48542   0.02641   0.00000  Uiso   1.00
H169   H     0.39717   0.79299   0.85348   0.00000  Uiso   1.00
H170   H     0.50500   0.80187   0.88612   0.00000  Uiso   1.00
H171   H     0.37083   0.79867   0.74066   0.00000  Uiso   1.00
H172   H     0.31582   0.80649   0.93323   0.00000  Uiso   1.00
H173   H     0.62430   0.76747   0.92290   0.00000  Uiso   1.00
H174   H     0.34137   0.76074   0.61620   0.00000  Uiso   1.00
H175   H     0.22539   0.77724   0.02228   0.00000  Uiso   1.00
O176   O     0.69438   0.62125   0.94650   0.00000  Uiso   1.00
O177   O     0.32318   0.61242   0.54413   0.00000  Uiso   1.00
O178   O     0.17101   0.63406   0.07689   0.00000  Uiso   1.00
N179   N     0.60824   0.54312   0.92159   0.00000  Uiso   1.00
N180   N     0.34372   0.53683   0.63484   0.00000  Uiso   1.00
N181   N     0.23527   0.55225   0.01448   0.00000  Uiso   1.00
N182   N     0.60913   0.70014   0.91937   0.00000  Uiso   1.00
N183   N     0.34461   0.69385   0.63262   0.00000  Uiso   1.00
N184   N     0.23616   0.70927   0.01226   0.00000  Uiso   1.00
C185   C     0.10432   0.03025   0.85720   0.00000  Uiso   1.00
C186   C     0.04552   0.07217   0.87441   0.00000  Uiso   1.00
C187   C     0.99658   0.01995   0.89011   0.00000  Uiso   1.00
C188   C     0.94699   0.07164   0.90436   0.00000  Uiso   1.00
C189   C     0.85578   0.12147   0.93127   0.00000  Uiso   1.00
C190   C     0.11842   0.07044   0.79537   0.00000  Uiso   1.00
C191   C     0.13077   0.01676   0.74463   0.00000  Uiso   1.00
C192   C     0.14255   0.06699   0.69235   0.00000  Uiso   1.00
C193   C     0.16454   0.11413   0.59657   0.00000  Uiso   1.00
C194   C     0.14830   0.07468   0.90001   0.00000  Uiso   1.00
C195   C     0.18579   0.02458   0.93723   0.00000  Uiso   1.00
C196   C     0.22273   0.07839   0.97303   0.00000  Uiso   1.00
C197   C     0.29112   0.13212   0.03971   0.00000  Uiso   1.00
C198   C     0.10327   0.21490   0.85458   0.00000  Uiso   1.00
C199   C     0.04496   0.17247   0.87299   0.00000  Uiso   1.00
C200   C     0.99543   0.22425   0.88722   0.00000  Uiso   1.00
C201   C     0.94642   0.17212   0.90294   0.00000  Uiso   1.00
C202   C     0.11785   0.17073   0.79395   0.00000  Uiso   1.00
C203   C     0.12961   0.22106   0.74174   0.00000  Uiso   1.00
C204   C     0.14198   0.16747   0.69092   0.00000  Uiso   1.00
C205   C     0.14773   0.17498   0.89859   0.00000  Uiso   1.00
C206   C     0.18463   0.22888   0.93434   0.00000  Uiso   1.00
C207   C     0.22216   0.17887   0.97161   0.00000  Uiso   1.00
H208   H     0.10476   0.95216   0.85830   0.00000  Uiso   1.00
H209   H     0.99704   0.94233   0.89120   0.00000  Uiso   1.00
H210   H     0.13121   0.93914   0.74574   0.00000  Uiso   1.00
H211   H     0.18622   0.94696   0.93832   0.00000  Uiso   1.00
H212   H     0.87735   0.97566   0.92703   0.00000  Uiso   1.00
H213   H     0.16028   0.96893   0.62033   0.00000  Uiso   1.00
H214   H     0.27627   0.98542   0.02641   0.00000  Uiso   1.00
H215   H     0.10283   0.29299   0.85348   0.00000  Uiso   1.00
H216   H     0.99500   0.30187   0.88612   0.00000  Uiso   1.00
H217   H     0.12917   0.29867   0.74066   0.00000  Uiso   1.00
H218   H     0.18418   0.30649   0.93323   0.00000  Uiso   1.00
H219   H     0.87570   0.26747   0.92290   0.00000  Uiso   1.00
H220   H     0.15863   0.26074   0.61620   0.00000  Uiso   1.00
H221   H     0.27461   0.27724   0.02228   0.00000  Uiso   1.00
O222   O     0.80562   0.12125   0.94650   0.00000  Uiso   1.00
O223   O     0.17682   0.11242   0.54413   0.00000  Uiso   1.00
O224   O     0.32899   0.13406   0.07689   0.00000  Uiso   1.00
N225   N     0.89176   0.04312   0.92159   0.00000  Uiso   1.00
N226   N     0.15628   0.03683   0.63484   0.00000  Uiso   1.00
N227   N     0.26473   0.05225   0.01448   0.00000  Uiso   1.00
N228   N     0.89087   0.20014   0.91937   0.00000  Uiso   1.00
N229   N     0.15539   0.19385   0.63262   0.00000  Uiso   1.00
N230   N     0.26384   0.20927   0.01226   0.00000  Uiso   1.00
C231   C     0.39568   0.96975   0.35720   0.00000  Uiso   1.00
C232   C     0.45448   0.92783   0.37441   0.00000  Uiso   1.00
C233   C     0.50342   0.98005   0.39011   0.00000  Uiso   1.00
C234   C     0.55301   0.92836   0.40436   0.00000  Uiso   1.00
C235   C     0.64422   0.87853   0.43127   0.00000  Uiso   1.00
C236   C     0.38158   0.92956   0.29537   0.00000  Uiso   1.00
C237   C     0.36923   0.98324   0.24463   0.00000  Uiso   1.00
C238   C     0.35745   0.93301   0.19235   0.00000  Uiso   1.00
C239   C     0.33546   0.88587   0.09657   0.00000  Uiso   1.00
C240   C     0.35170   0.92532   0.40001   0.00000  Uiso   1.00
C241   C     0.31421   0.97542   0.43723   0.00000  Uiso   1.00
C242   C     0.27727   0.92161   0.47303   0.00000  Uiso   1.00
C243   C     0.20888   0.86788   0.53971   0.00000  Uiso   1.00
C244   C     0.39673   0.78510   0.35458   0.00000  Uiso   1.00
C245   C     0.45504   0.82753   0.37299   0.00000  Uiso   1.00
C246   C     0.50457   0.77575   0.38722   0.00000  Uiso   1.00
C247   C     0.55358   0.82788   0.40294   0.00000  Uiso   1.00
C248   C     0.38215   0.82927   0.29395   0.00000  Uiso   1.00
C249   C     0.37039   0.77894   0.24174   0.00000  Uiso   1.00
C250   C     0.35802   0.83253   0.19092   0.00000  Uiso   1.00
C251   C     0.35227   0.82502   0.39859   0.00000  Uiso   1.00
C252   C     0.31537   0.77112   0.43434   0.00000  Uiso   1.00
C253   C     0.27784   0.82113   0.47161   0.00000  Uiso   1.00
H254   H     0.39524   0.04784   0.35830   0.00000  Uiso   1.00
H255   H     0.50296   0.05767   0.39120   0.00000  Uiso   1.00
H256   H     0.36879   0.06086   0.24574   0.00000  Uiso   1.00
H257   H     0.31378   0.05304   0.43832   0.00000  Uiso   1.00
H258   H     0.62265   0.02434   0.42703   0.00000  Uiso   1.00
H259   H     0.33972   0.03107   0.12033   0.00000  Uiso   1.00
H260   H     0.22373   0.01458   0.52641   0.00000  Uiso   1.00
H261   H     0.39717   0.70701   0.35348   0.00000  Uiso   1.00
H262   H     0.50500   0.69813   0.38612   0.00000  Uiso   1.00
H263   H     0.37083   0.70133   0.24066   0.00000  Uiso   1.00
H264   H     0.31582   0.69351   0.43323   0.00000  Uiso   1.00
H265   H     0.62430   0.73253   0.42290   0.00000  Uiso   1.00
H266   H     0.34137   0.73926   0.11620   0.00000  Uiso   1.00
H267   H     0.22539   0.72276   0.52228   0.00000  Uiso   1.00
O268   O     0.69438   0.87875   0.44650   0.00000  Uiso   1.00
O269   O     0.32318   0.88758   0.04413   0.00000  Uiso   1.00
O270   O     0.17101   0.86594   0.57689   0.00000  Uiso   1.00
N271   N     0.60824   0.95688   0.42159   0.00000  Uiso   1.00
N272   N     0.34372   0.96317   0.13484   0.00000  Uiso   1.00
N273   N     0.23527   0.94775   0.51448   0.00000  Uiso   1.00
N274   N     0.60913   0.79986   0.41937   0.00000  Uiso   1.00
N275   N     0.34461   0.80615   0.13262   0.00000  Uiso   1.00
N276   N     0.23616   0.79073   0.51226   0.00000  Uiso   1.00
C277   C     0.89568   0.53025   0.64280   0.00000  Uiso   1.00
C278   C     0.95448   0.57217   0.62559   0.00000  Uiso   1.00
C279   C     0.00342   0.51995   0.60989   0.00000  Uiso   1.00
C280   C     0.05301   0.57164   0.59564   0.00000  Uiso   1.00
C281   C     0.14422   0.62147   0.56873   0.00000  Uiso   1.00
C282   C     0.88158   0.57044   0.70463   0.00000  Uiso   1.00
C283   C     0.86923   0.51676   0.75537   0.00000  Uiso   1.00
C284   C     0.85745   0.56699   0.80765   0.00000  Uiso   1.00
C285   C     0.83546   0.61413   0.90343   0.00000  Uiso   1.00
C286   C     0.85170   0.57468   0.59999   0.00000  Uiso   1.00
C287   C     0.81421   0.52458   0.56277   0.00000  Uiso   1.00
C288   C     0.77727   0.57839   0.52697   0.00000  Uiso   1.00
C289   C     0.70888   0.63212   0.46029   0.00000  Uiso   1.00
C290   C     0.89673   0.71490   0.64542   0.00000  Uiso   1.00
C291   C     0.95504   0.67247   0.62701   0.00000  Uiso   1.00
C292   C     0.00457   0.72425   0.61278   0.00000  Uiso   1.00
C293   C     0.05358   0.67212   0.59706   0.00000  Uiso   1.00
C294   C     0.88215   0.67073   0.70605   0.00000  Uiso   1.00
C295   C     0.87039   0.72106   0.75826   0.00000  Uiso   1.00
C296   C     0.85802   0.66747   0.80908   0.00000  Uiso   1.00
C297   C     0.85227   0.67498   0.60141   0.00000  Uiso   1.00
C298   C     0.81537   0.72888   0.56566   0.00000  Uiso   1.00
C299   C     0.77784   0.67887   0.52839   0.00000  Uiso   1.00
H300   H     0.89524   0.45216   0.64170   0.00000  Uiso   1.00
H301   H     0.00296   0.44233   0.60880   0.00000  Uiso   1.00
H302   H     0.86879   0.43914   0.75426   0.00000  Uiso   1.00
H303   H     0.81378   0.44696   0.56168   0.00000  Uiso   1.00
H304   H     0.12265   0.47566   0.57297   0.00000  Uiso   1.00
H305   H     0.83972   0.46893   0.87967   0.00000  Uiso   1.00
H306   H     0.72373   0.48542   0.47359   0.00000  Uiso   1.00
H307   H     0.89717   0.79299   0.64652   0.00000  Uiso   1.00
H308   H     0.00500   0.80187   0.61388   0.00000  Uiso   1.00
H309   H     0.87083   0.79867   0.75934   0.00000  Uiso   1.00
H310   H     0.81582   0.80649   0.56677   0.00000  Uiso   1.00
H311   H     0.12430   0.76747   0.57710   0.00000  Uiso   1.00
H312   H     0.84137   0.76074   0.88380   0.00000  Uiso   1.00
H313   H     0.72539   0.77724   0.47772   0.00000  Uiso   1.00
O314   O     0.19438   0.62125   0.55350   0.00000  Uiso   1.00
O315   O     0.82318   0.61242   0.95587   0.00000  Uiso   1.00
O316   O     0.67101   0.63406   0.42311   0.00000  Uiso   1.00
N317   N     0.10824   0.54312   0.57841   0.00000  Uiso   1.00
N318   N     0.84372   0.53683   0.86516   0.00000  Uiso   1.00
N319   N     0.73527   0.55225   0.48552   0.00000  Uiso   1.00
N320   N     0.10913   0.70014   0.58063   0.00000  Uiso   1.00
N321   N     0.84461   0.69385   0.86738   0.00000  Uiso   1.00
N322   N     0.73616   0.70927   0.48774   0.00000  Uiso   1.00
C323   C     0.60432   0.46975   0.14280   0.00000  Uiso   1.00
C324   C     0.54552   0.42783   0.12559   0.00000  Uiso   1.00
C325   C     0.49658   0.48005   0.10989   0.00000  Uiso   1.00
C326   C     0.44699   0.42836   0.09564   0.00000  Uiso   1.00
C327   C     0.35578   0.37853   0.06873   0.00000  Uiso   1.00
C328   C     0.61842   0.42956   0.20463   0.00000  Uiso   1.00
C329   C     0.63077   0.48324   0.25537   0.00000  Uiso   1.00
C330   C     0.64255   0.43301   0.30765   0.00000  Uiso   1.00
C331   C     0.66454   0.38587   0.40343   0.00000  Uiso   1.00
C332   C     0.64830   0.42532   0.09999   0.00000  Uiso   1.00
C333   C     0.68579   0.47542   0.06277   0.00000  Uiso   1.00
C334   C     0.72273   0.42161   0.02697   0.00000  Uiso   1.00
C335   C     0.79112   0.36788   0.96029   0.00000  Uiso   1.00
C336   C     0.60327   0.28510   0.14542   0.00000  Uiso   1.00
C337   C     0.54496   0.32753   0.12701   0.00000  Uiso   1.00
C338   C     0.49543   0.27575   0.11278   0.00000  Uiso   1.00
C339   C     0.44642   0.32788   0.09706   0.00000  Uiso   1.00
C340   C     0.61785   0.32927   0.20605   0.00000  Uiso   1.00
C341   C     0.62961   0.27894   0.25826   0.00000  Uiso   1.00
C342   C     0.64198   0.33253   0.30908   0.00000  Uiso   1.00
C343   C     0.64773   0.32502   0.10141   0.00000  Uiso   1.00
C344   C     0.68463   0.27112   0.06566   0.00000  Uiso   1.00
C345   C     0.72216   0.32113   0.02839   0.00000  Uiso   1.00
H346   H     0.60476   0.54784   0.14170   0.00000  Uiso   1.00
H347   H     0.49704   0.55767   0.10880   0.00000  Uiso   1.00
H348   H     0.63121   0.56086   0.25426   0.00000  Uiso   1.00
H349   H     0.68622   0.55304   0.06168   0.00000  Uiso   1.00
H350   H     0.37735   0.52434   0.07297   0.00000  Uiso   1.00
H351   H     0.66028   0.53107   0.37967   0.00000  Uiso   1.00
H352   H     0.77627   0.51458   0.97359   0.00000  Uiso   1.00
H353   H     0.60283   0.20701   0.14652   0.00000  Uiso   1.00
H354   H     0.49500   0.19813   0.11388   0.00000  Uiso   1.00
H355   H     0.62917   0.20133   0.25934   0.00000  Uiso   1.00
H356   H     0.68418   0.19351   0.06677   0.00000  Uiso   1.00
H357   H     0.37570   0.23253   0.07710   0.00000  Uiso   1.00
H358   H     0.65863   0.23926   0.38380   0.00000  Uiso   1.00
H359   H     0.77461   0.22276   0.97772   0.00000  Uiso   1.00
O360   O     0.30562   0.37875   0.05350   0.00000  Uiso   1.00
O361   O     0.67682   0.38758   0.45587   0.00000  Uiso   1.00
O362   O     0.82899   0.36594   0.92311   0.00000  Uiso   1.00
N363   N     0.39176   0.45688   0.07841   0.00000  Uiso   1.00
N364   N     0.65628   0.46317   0.36516   0.00000  Uiso   1.00
N365   N     0.76473   0.44775   0.98552   0.00000  Uiso   1.00
N366   N     0.39087   0.29986   0.08063   0.00000  Uiso   1.00
N367   N     0.65539   0.30615   0.36738   0.00000  Uiso   1.00
N368   N     0.76384   0.29073   0.98774   0.00000  Uiso   1.00
