data_job_06487
_audit_creation_date              2018-12-19
_audit_creation_method            'Materials Studio'
_symmetry_space_group_name_H-M    'P1'
_symmetry_Int_Tables_number       1
_symmetry_cell_setting            triclinic
loop_
_symmetry_equiv_pos_as_xyz
  x,y,z
_cell_length_a                    20.9283
_cell_length_b                    19.0857
_cell_length_c                    19.5881
_cell_angle_alpha                 96.9476
_cell_angle_beta                  106.8490
_cell_angle_gamma                 103.8180
loop_
_atom_site_label
_atom_site_type_symbol
_atom_site_fract_x
_atom_site_fract_y
_atom_site_fract_z
_atom_site_U_iso_or_equiv
_atom_site_adp_type
_atom_site_occupancy
C1     C     0.67615   0.85442   0.42793   0.00000  Uiso   1.00
C2     C     0.66011   0.84771   0.49841   0.00000  Uiso   1.00
C3     C     0.65952   0.90540   0.54845   0.00000  Uiso   1.00
C4     C     0.64361   0.88788   0.60951   0.00000  Uiso   1.00
C5     C     0.62099   0.88851   0.71735   0.00000  Uiso   1.00
C6     C     0.73646   0.82160   0.43181   0.00000  Uiso   1.00
C7     C     0.80006   0.85733   0.42585   0.00000  Uiso   1.00
C8     C     0.84843   0.81782   0.43083   0.00000  Uiso   1.00
C9     C     0.94432   0.77788   0.43522   0.00000  Uiso   1.00
C10    C     0.61324   0.80234   0.36692   0.00000  Uiso   1.00
C11    C     0.57324   0.82186   0.30639   0.00000  Uiso   1.00
C12    C     0.51787   0.76613   0.25674   0.00000  Uiso   1.00
C13    C     0.42244   0.69630   0.16038   0.00000  Uiso   1.00
C14    C     0.64895   0.72072   0.44738   0.00000  Uiso   1.00
C15    C     0.64534   0.77509   0.50897   0.00000  Uiso   1.00
C16    C     0.62942   0.75748   0.56997   0.00000  Uiso   1.00
C17    C     0.62880   0.81513   0.62009   0.00000  Uiso   1.00
C18    C     0.72169   0.74898   0.44237   0.00000  Uiso   1.00
C19    C     0.76997   0.70940   0.44736   0.00000  Uiso   1.00
C20    C     0.83363   0.74506   0.44141   0.00000  Uiso   1.00
C21    C     0.59846   0.72971   0.37748   0.00000  Uiso   1.00
C22    C     0.54314   0.67394   0.32791   0.00000  Uiso   1.00
C23    C     0.50307   0.69338   0.26732   0.00000  Uiso   1.00
H24    H     0.68765   0.91096   0.41971   0.00000  Uiso   1.00
H25    H     0.67096   0.96160   0.54026   0.00000  Uiso   1.00
H26    H     0.81148   0.91352   0.41767   0.00000  Uiso   1.00
H27    H     0.58469   0.87807   0.29824   0.00000  Uiso   1.00
H28    H     0.64596   0.98571   0.67859   0.00000  Uiso   1.00
H29    H     0.94224   0.88434   0.42006   0.00000  Uiso   1.00
H30    H     0.46402   0.80958   0.16821   0.00000  Uiso   1.00
H31    H     0.63744   0.66418   0.45560   0.00000  Uiso   1.00
H32    H     0.61799   0.70127   0.57812   0.00000  Uiso   1.00
H33    H     0.75851   0.65320   0.45553   0.00000  Uiso   1.00
H34    H     0.53173   0.61775   0.33610   0.00000  Uiso   1.00
H35    H     0.60297   0.77443   0.70932   0.00000  Uiso   1.00
H36    H     0.89926   0.67305   0.45079   0.00000  Uiso   1.00
H37    H     0.42103   0.59829   0.19894   0.00000  Uiso   1.00
O38    O     0.61260   0.90893   0.77392   0.00000  Uiso   1.00
O39    O     0.00131   0.77593   0.43473   0.00000  Uiso   1.00
O40    O     0.37388   0.67784   0.10431   0.00000  Uiso   1.00
N41    N     0.63850   0.93089   0.66900   0.00000  Uiso   1.00
N42    N     0.91551   0.83612   0.42730   0.00000  Uiso   1.00
N43    N     0.46842   0.76622   0.19184   0.00000  Uiso   1.00
N44    N     0.61537   0.81720   0.68553   0.00000  Uiso   1.00
N45    N     0.89238   0.72243   0.44384   0.00000  Uiso   1.00
N46    N     0.44529   0.65253   0.20837   0.00000  Uiso   1.00
C47    C     0.41630   0.74161   0.93274   0.00000  Uiso   1.00
C48    C     0.48132   0.71551   0.94395   0.00000  Uiso   1.00
C49    C     0.51318   0.68923   0.00396   0.00000  Uiso   1.00
C50    C     0.57220   0.66807   0.00392   0.00000  Uiso   1.00
C51    C     0.66921   0.62681   0.03017   0.00000  Uiso   1.00
C52    C     0.43673   0.82020   0.92072   0.00000  Uiso   1.00
C53    C     0.43109   0.88196   0.96120   0.00000  Uiso   1.00
C54    C     0.45257   0.94893   0.94160   0.00000  Uiso   1.00
C55    C     0.48030   0.07021   0.93175   0.00000  Uiso   1.00
C56    C     0.36385   0.69541   0.86037   0.00000  Uiso   1.00
C57    C     0.29693   0.65225   0.85009   0.00000  Uiso   1.00
C58    C     0.25704   0.61417   0.77967   0.00000  Uiso   1.00
C59    C     0.17161   0.54168   0.67611   0.00000  Uiso   1.00
C60    C     0.46445   0.75076   0.82595   0.00000  Uiso   1.00
C61    C     0.50747   0.72048   0.88594   0.00000  Uiso   1.00
C62    C     0.56646   0.69935   0.88581   0.00000  Uiso   1.00
C63    C     0.59841   0.67305   0.94581   0.00000  Uiso   1.00
C64    C     0.46288   0.82517   0.86272   0.00000  Uiso   1.00
C65    C     0.48437   0.89207   0.84305   0.00000  Uiso   1.00
C66    C     0.47877   0.95391   0.88349   0.00000  Uiso   1.00
C67    C     0.39000   0.70037   0.80236   0.00000  Uiso   1.00
C68    C     0.35021   0.66236   0.73195   0.00000  Uiso   1.00
C69    C     0.28324   0.61915   0.72156   0.00000  Uiso   1.00
H70    H     0.39593   0.73775   0.97789   0.00000  Uiso   1.00
H71    H     0.49293   0.68540   0.04884   0.00000  Uiso   1.00
H72    H     0.41084   0.87809   0.00607   0.00000  Uiso   1.00
H73    H     0.27670   0.64842   0.89498   0.00000  Uiso   1.00
H74    H     0.61201   0.62958   0.10192   0.00000  Uiso   1.00
H75    H     0.43891   0.03587   0.01174   0.00000  Uiso   1.00
H76    H     0.15605   0.55156   0.77749   0.00000  Uiso   1.00
H77    H     0.48482   0.75463   0.78079   0.00000  Uiso   1.00
H78    H     0.58669   0.70320   0.84092   0.00000  Uiso   1.00
H79    H     0.50460   0.89589   0.79816   0.00000  Uiso   1.00
H80    H     0.37047   0.66622   0.68707   0.00000  Uiso   1.00
H81    H     0.68812   0.64403   0.93318   0.00000  Uiso   1.00
H82    H     0.51501   0.05032   0.84300   0.00000  Uiso   1.00
H83    H     0.23215   0.56601   0.60874   0.00000  Uiso   1.00
O84    O     0.71549   0.60269   0.06067   0.00000  Uiso   1.00
O85    O     0.48837   0.13573   0.94235   0.00000  Uiso   1.00
O86    O     0.11727   0.50032   0.63502   0.00000  Uiso   1.00
N87    N     0.61594   0.64002   0.05395   0.00000  Uiso   1.00
N88    N     0.45410   0.01989   0.96965   0.00000  Uiso   1.00
N89    N     0.18965   0.56711   0.75064   0.00000  Uiso   1.00
N90    N     0.65689   0.64780   0.96315   0.00000  Uiso   1.00
N91    N     0.49506   0.02766   0.87884   0.00000  Uiso   1.00
N92    N     0.23060   0.57488   0.65983   0.00000  Uiso   1.00
C93    C     0.81048   0.48219   0.69761   0.00000  Uiso   1.00
C94    C     0.80575   0.55632   0.67849   0.00000  Uiso   1.00
C95    C     0.85488   0.60485   0.65880   0.00000  Uiso   1.00
C96    C     0.84094   0.66986   0.64340   0.00000  Uiso   1.00
C97    C     0.84287   0.78257   0.61312   0.00000  Uiso   1.00
C98    C     0.80443   0.48519   0.77357   0.00000  Uiso   1.00
C99    C     0.85246   0.47391   0.83380   0.00000  Uiso   1.00
C100   C     0.83740   0.47903   0.89844   0.00000  Uiso   1.00
C101   C     0.83726   0.48126   0.01575   0.00000  Uiso   1.00
C102   C     0.74443   0.42503   0.64603   0.00000  Uiso   1.00
C103   C     0.74201   0.36314   0.59904   0.00000  Uiso   1.00
C104   C     0.67644   0.31759   0.55631   0.00000  Uiso   1.00
C105   C     0.58314   0.22641   0.47560   0.00000  Uiso   1.00
C106   C     0.69834   0.51133   0.70529   0.00000  Uiso   1.00
C107   C     0.74484   0.57215   0.68267   0.00000  Uiso   1.00
C108   C     0.73081   0.63709   0.66729   0.00000  Uiso   1.00
C109   C     0.77992   0.68571   0.64757   0.00000  Uiso   1.00
C110   C     0.74352   0.50102   0.77774   0.00000  Uiso   1.00
C111   C     0.72839   0.50615   0.84230   0.00000  Uiso   1.00
C112   C     0.77638   0.49488   0.90262   0.00000  Uiso   1.00
C113   C     0.68352   0.44085   0.65020   0.00000  Uiso   1.00
C114   C     0.61794   0.39538   0.60754   0.00000  Uiso   1.00
C115   C     0.61542   0.33345   0.56049   0.00000  Uiso   1.00
H116   H     0.85791   0.46987   0.69436   0.00000  Uiso   1.00
H117   H     0.90202   0.59259   0.65558   0.00000  Uiso   1.00
H118   H     0.89958   0.46166   0.83056   0.00000  Uiso   1.00
H119   H     0.78916   0.35091   0.59583   0.00000  Uiso   1.00
H120   H     0.92408   0.73564   0.61445   0.00000  Uiso   1.00
H121   H     0.91893   0.45954   0.98339   0.00000  Uiso   1.00
H122   H     0.68608   0.22601   0.48842   0.00000  Uiso   1.00
H123   H     0.65092   0.52365   0.70854   0.00000  Uiso   1.00
H124   H     0.68367   0.64932   0.67052   0.00000  Uiso   1.00
H125   H     0.68124   0.51839   0.84550   0.00000  Uiso   1.00
H126   H     0.57082   0.40765   0.61078   0.00000  Uiso   1.00
H127   H     0.74686   0.78169   0.62658   0.00000  Uiso   1.00
H128   H     0.74172   0.50558   0.99552   0.00000  Uiso   1.00
H129   H     0.50886   0.27206   0.50056   0.00000  Uiso   1.00
O130   O     0.86076   0.84038   0.59528   0.00000  Uiso   1.00
O131   O     0.85401   0.47813   0.07931   0.00000  Uiso   1.00
O132   O     0.54851   0.17175   0.42993   0.00000  Uiso   1.00
N133   N     0.87787   0.72922   0.62250   0.00000  Uiso   1.00
N134   N     0.87307   0.47110   0.96744   0.00000  Uiso   1.00
N135   N     0.65536   0.25276   0.50471   0.00000  Uiso   1.00
N136   N     0.78251   0.75400   0.62903   0.00000  Uiso   1.00
N137   N     0.77771   0.49588   0.97397   0.00000  Uiso   1.00
N138   N     0.56000   0.27753   0.51124   0.00000  Uiso   1.00
C139   C     0.12230   0.83203   0.27725   0.00000  Uiso   1.00
C140   C     0.11403   0.89630   0.32494   0.00000  Uiso   1.00
C141   C     0.11010   0.89788   0.39460   0.00000  Uiso   1.00
C142   C     0.10258   0.96183   0.42922   0.00000  Uiso   1.00
C143   C     0.09030   0.05250   0.50844   0.00000  Uiso   1.00
C144   C     0.18743   0.86296   0.25772   0.00000  Uiso   1.00
C145   C     0.24519   0.83648   0.27084   0.00000  Uiso   1.00
C146   C     0.29946   0.87236   0.24885   0.00000  Uiso   1.00
C147   C     0.40111   0.91122   0.22365   0.00000  Uiso   1.00
C148   C     0.06110   0.81274   0.20634   0.00000  Uiso   1.00
C149   C     0.01266   0.74404   0.17626   0.00000  Uiso   1.00
C150   C     0.96057   0.73764   0.11100   0.00000  Uiso   1.00
C151   C     0.86607   0.69853   0.00604   0.00000  Uiso   1.00
C152   C     0.11595   0.94281   0.21485   0.00000  Uiso   1.00
C153   C     0.11058   0.95648   0.29105   0.00000  Uiso   1.00
C154   C     0.10307   0.02045   0.32556   0.00000  Uiso   1.00
C155   C     0.09912   0.02211   0.39526   0.00000  Uiso   1.00
C156   C     0.18398   0.92313   0.22382   0.00000  Uiso   1.00
C157   C     0.23817   0.95905   0.20180   0.00000  Uiso   1.00
C158   C     0.29601   0.93264   0.21490   0.00000  Uiso   1.00
C159   C     0.05765   0.87291   0.17245   0.00000  Uiso   1.00
C160   C     0.00563   0.86661   0.10722   0.00000  Uiso   1.00
C161   C     0.95712   0.79792   0.07705   0.00000  Uiso   1.00
H162   H     0.12499   0.78518   0.30364   0.00000  Uiso   1.00
H163   H     0.11277   0.85130   0.42082   0.00000  Uiso   1.00
H164   H     0.24785   0.78991   0.29707   0.00000  Uiso   1.00
H165   H     0.01534   0.69749   0.20250   0.00000  Uiso   1.00
H166   H     0.09774   0.95115   0.53579   0.00000  Uiso   1.00
H167   H     0.38253   0.82170   0.27484   0.00000  Uiso   1.00
H168   H     0.89226   0.62680   0.07542   0.00000  Uiso   1.00
H169   H     0.11327   0.98966   0.18846   0.00000  Uiso   1.00
H170   H     0.10040   0.06700   0.29932   0.00000  Uiso   1.00
H171   H     0.23548   0.00561   0.17557   0.00000  Uiso   1.00
H172   H     0.00298   0.91319   0.08101   0.00000  Uiso   1.00
H173   H     0.08770   0.12623   0.43718   0.00000  Uiso   1.00
H174   H     0.37250   0.99677   0.17622   0.00000  Uiso   1.00
H175   H     0.88222   0.80187   0.97681   0.00000  Uiso   1.00
O176   O     0.08449   0.08589   0.56150   0.00000  Uiso   1.00
O177   O     0.45813   0.91604   0.21913   0.00000  Uiso   1.00
O178   O     0.81490   0.66034   0.95751   0.00000  Uiso   1.00
N179   N     0.09712   0.98174   0.49736   0.00000  Uiso   1.00
N180   N     0.36340   0.86071   0.25340   0.00000  Uiso   1.00
N181   N     0.90504   0.67849   0.06695   0.00000  Uiso   1.00
N182   N     0.09172   0.07594   0.44430   0.00000  Uiso   1.00
N183   N     0.35800   0.95492   0.20034   0.00000  Uiso   1.00
N184   N     0.89964   0.77270   0.01389   0.00000  Uiso   1.00
C185   C     0.95096   0.37308   0.23749   0.00000  Uiso   1.00
C186   C     0.01979   0.35863   0.23853   0.00000  Uiso   1.00
C187   C     0.07160   0.40327   0.21901   0.00000  Uiso   1.00
C188   C     0.13069   0.38047   0.22373   0.00000  Uiso   1.00
C189   C     0.23652   0.36795   0.22183   0.00000  Uiso   1.00
C190   C     0.94813   0.37352   0.31445   0.00000  Uiso   1.00
C191   C     0.93969   0.43067   0.35876   0.00000  Uiso   1.00
C192   C     0.93845   0.42040   0.42738   0.00000  Uiso   1.00
C193   C     0.93298   0.43097   0.54333   0.00000  Uiso   1.00
C194   C     0.89373   0.30495   0.18901   0.00000  Uiso   1.00
C195   C     0.83953   0.30445   0.12786   0.00000  Uiso   1.00
C196   C     0.79247   0.23644   0.09088   0.00000  Uiso   1.00
C197   C     0.70253   0.14055   0.01206   0.00000  Uiso   1.00
C198   C     0.96375   0.25321   0.28058   0.00000  Uiso   1.00
C199   C     0.02673   0.29352   0.26194   0.00000  Uiso   1.00
C200   C     0.08575   0.27064   0.26669   0.00000  Uiso   1.00
C201   C     0.13765   0.31524   0.24717   0.00000  Uiso   1.00
C202   C     0.95508   0.30841   0.33786   0.00000  Uiso   1.00
C203   C     0.95384   0.29804   0.40643   0.00000  Uiso   1.00
C204   C     0.94540   0.35516   0.45083   0.00000  Uiso   1.00
C205   C     0.90067   0.23984   0.21242   0.00000  Uiso   1.00
C206   C     0.85368   0.17181   0.17553   0.00000  Uiso   1.00
C207   C     0.79943   0.17121   0.11433   0.00000  Uiso   1.00
H208   H     0.94555   0.42378   0.21927   0.00000  Uiso   1.00
H209   H     0.06621   0.45366   0.20091   0.00000  Uiso   1.00
H210   H     0.93431   0.48105   0.34063   0.00000  Uiso   1.00
H211   H     0.83417   0.35485   0.10976   0.00000  Uiso   1.00
H212   H     0.20306   0.45809   0.19090   0.00000  Uiso   1.00
H213   H     0.92492   0.51584   0.48550   0.00000  Uiso   1.00
H214   H     0.71375   0.24971   0.99867   0.00000  Uiso   1.00
H215   H     0.96916   0.20251   0.29880   0.00000  Uiso   1.00
H216   H     0.09112   0.22025   0.28480   0.00000  Uiso   1.00
H217   H     0.95921   0.24764   0.42452   0.00000  Uiso   1.00
H218   H     0.85908   0.12144   0.19366   0.00000  Uiso   1.00
H219   H     0.22328   0.26865   0.25899   0.00000  Uiso   1.00
H220   H     0.94513   0.32640   0.55359   0.00000  Uiso   1.00
H221   H     0.73396   0.06026   0.06676   0.00000  Uiso   1.00
O222   O     0.29298   0.37904   0.21432   0.00000  Uiso   1.00
O223   O     0.92805   0.45480   0.60082   0.00000  Uiso   1.00
O224   O     0.65101   0.10564   0.96211   0.00000  Uiso   1.00
N225   N     0.19108   0.41106   0.20883   0.00000  Uiso   1.00
N226   N     0.93104   0.46506   0.48427   0.00000  Uiso   1.00
N227   N     0.73360   0.21625   0.02914   0.00000  Uiso   1.00
N228   N     0.20195   0.30912   0.24547   0.00000  Uiso   1.00
N229   N     0.94191   0.36312   0.52091   0.00000  Uiso   1.00
N230   N     0.74448   0.11431   0.06578   0.00000  Uiso   1.00
C231   C     0.34449   0.19421   0.90191   0.00000  Uiso   1.00
C232   C     0.30891   0.19398   0.95973   0.00000  Uiso   1.00
C233   C     0.33745   0.18662   0.03092   0.00000  Uiso   1.00
C234   C     0.29655   0.18779   0.07537   0.00000  Uiso   1.00
C235   C     0.25152   0.18623   0.16910   0.00000  Uiso   1.00
C236   C     0.34439   0.26621   0.87562   0.00000  Uiso   1.00
C237   C     0.40276   0.31956   0.87609   0.00000  Uiso   1.00
C238   C     0.39172   0.38153   0.84973   0.00000  Uiso   1.00
C239   C     0.40177   0.49207   0.81282   0.00000  Uiso   1.00
C240   C     0.29561   0.13284   0.83772   0.00000  Uiso   1.00
C241   C     0.31296   0.07406   0.80630   0.00000  Uiso   1.00
C242   C     0.26085   0.02374   0.74801   0.00000  Uiso   1.00
C243   C     0.19516   0.92720   0.65226   0.00000  Uiso   1.00
C244   C     0.22111   0.20937   0.85424   0.00000  Uiso   1.00
C245   C     0.24190   0.20222   0.93384   0.00000  Uiso   1.00
C246   C     0.20094   0.20340   0.97818   0.00000  Uiso   1.00
C247   C     0.22941   0.19604   0.04943   0.00000  Uiso   1.00
C248   C     0.27738   0.27445   0.84973   0.00000  Uiso   1.00
C249   C     0.26625   0.33634   0.82335   0.00000  Uiso   1.00
C250   C     0.32459   0.38978   0.82379   0.00000  Uiso   1.00
C251   C     0.22860   0.14107   0.81182   0.00000  Uiso   1.00
C252   C     0.17646   0.09084   0.75357   0.00000  Uiso   1.00
C253   C     0.19372   0.03200   0.72207   0.00000  Uiso   1.00
H254   H     0.39666   0.18780   0.92207   0.00000  Uiso   1.00
H255   H     0.38931   0.18025   0.05094   0.00000  Uiso   1.00
H256   H     0.45461   0.31317   0.89613   0.00000  Uiso   1.00
H257   H     0.36482   0.06770   0.82635   0.00000  Uiso   1.00
H258   H     0.35162   0.17555   0.18241   0.00000  Uiso   1.00
H259   H     0.48930   0.45580   0.85595   0.00000  Uiso   1.00
H260   H     0.29997   0.93818   0.70882   0.00000  Uiso   1.00
H261   H     0.16894   0.21579   0.83408   0.00000  Uiso   1.00
H262   H     0.14909   0.20978   0.95813   0.00000  Uiso   1.00
H263   H     0.21439   0.34270   0.80332   0.00000  Uiso   1.00
H264   H     0.12460   0.09723   0.73354   0.00000  Uiso   1.00
H265   H     0.15665   0.19952   0.10709   0.00000  Uiso   1.00
H266   H     0.29433   0.47977   0.78062   0.00000  Uiso   1.00
H267   H     0.10500   0.96215   0.63349   0.00000  Uiso   1.00
O268   O     0.24519   0.18310   0.22795   0.00000  Uiso   1.00
O269   O     0.42583   0.55077   0.79963   0.00000  Uiso   1.00
O270   O     0.17743   0.87167   0.60660   0.00000  Uiso   1.00
N271   N     0.30845   0.18200   0.14766   0.00000  Uiso   1.00
N272   N     0.43718   0.44402   0.84245   0.00000  Uiso   1.00
N273   N     0.26018   0.96011   0.70487   0.00000  Uiso   1.00
N274   N     0.20354   0.19489   0.10713   0.00000  Uiso   1.00
N275   N     0.33226   0.45692   0.80191   0.00000  Uiso   1.00
N276   N     0.15526   0.97300   0.66434   0.00000  Uiso   1.00
C277   C     0.34105   0.19088   0.61882   0.00000  Uiso   1.00
C278   C     0.35663   0.20012   0.54851   0.00000  Uiso   1.00
C279   C     0.34922   0.14332   0.49280   0.00000  Uiso   1.00
C280   C     0.36617   0.16321   0.43297   0.00000  Uiso   1.00
C281   C     0.38674   0.16630   0.32438   0.00000  Uiso   1.00
C282   C     0.28816   0.23287   0.62220   0.00000  Uiso   1.00
C283   C     0.22319   0.20360   0.62844   0.00000  Uiso   1.00
C284   C     0.18250   0.25107   0.63064   0.00000  Uiso   1.00
C285   C     0.09681   0.30501   0.63650   0.00000  Uiso   1.00
C286   C     0.40801   0.23307   0.68082   0.00000  Uiso   1.00
C287   C     0.44381   0.20397   0.73638   0.00000  Uiso   1.00
C288   C     0.50402   0.25161   0.78796   0.00000  Uiso   1.00
C289   C     0.60442   0.30586   0.88484   0.00000  Uiso   1.00
C290   C     0.38433   0.32722   0.61164   0.00000  Uiso   1.00
C291   C     0.38014   0.27418   0.54462   0.00000  Uiso   1.00
C292   C     0.39710   0.29416   0.48486   0.00000  Uiso   1.00
C293   C     0.38972   0.23739   0.42906   0.00000  Uiso   1.00
C294   C     0.31167   0.30692   0.61830   0.00000  Uiso   1.00
C295   C     0.27107   0.35444   0.62050   0.00000  Uiso   1.00
C296   C     0.20605   0.32525   0.62674   0.00000  Uiso   1.00
C297   C     0.43152   0.30712   0.67693   0.00000  Uiso   1.00
C298   C     0.49169   0.35482   0.72843   0.00000  Uiso   1.00
C299   C     0.52757   0.32580   0.78405   0.00000  Uiso   1.00
H300   H     0.32275   0.13323   0.62185   0.00000  Uiso   1.00
H301   H     0.33102   0.08601   0.49583   0.00000  Uiso   1.00
H302   H     0.20501   0.14629   0.63146   0.00000  Uiso   1.00
H303   H     0.42560   0.14666   0.73938   0.00000  Uiso   1.00
H304   H     0.35053   0.06633   0.35438   0.00000  Uiso   1.00
H305   H     0.08485   0.19344   0.64039   0.00000  Uiso   1.00
H306   H     0.55000   0.19422   0.86795   0.00000  Uiso   1.00
H307   H     0.40263   0.38487   0.60861   0.00000  Uiso   1.00
H308   H     0.41529   0.35147   0.48186   0.00000  Uiso   1.00
H309   H     0.28928   0.41175   0.61749   0.00000  Uiso   1.00
H310   H     0.50987   0.41212   0.72540   0.00000  Uiso   1.00
H311   H     0.41893   0.28178   0.34304   0.00000  Uiso   1.00
H312   H     0.15325   0.40889   0.62905   0.00000  Uiso   1.00
H313   H     0.61840   0.40967   0.85661   0.00000  Uiso   1.00
O314   O     0.39159   0.14754   0.26556   0.00000  Uiso   1.00
O315   O     0.04304   0.31431   0.64080   0.00000  Uiso   1.00
O316   O     0.65330   0.31533   0.93936   0.00000  Uiso   1.00
N317   N     0.36491   0.12162   0.36912   0.00000  Uiso   1.00
N318   N     0.11651   0.24046   0.63650   0.00000  Uiso   1.00
N319   N     0.55137   0.24119   0.84927   0.00000  Uiso   1.00
N320   N     0.40171   0.23755   0.36301   0.00000  Uiso   1.00
N321   N     0.15331   0.35639   0.63040   0.00000  Uiso   1.00
N322   N     0.58817   0.35713   0.84316   0.00000  Uiso   1.00
C323   C     0.59669   0.33053   0.14761   0.00000  Uiso   1.00
C324   C     0.52672   0.34708   0.13301   0.00000  Uiso   1.00
C325   C     0.49424   0.37414   0.07389   0.00000  Uiso   1.00
C326   C     0.43039   0.38559   0.07038   0.00000  Uiso   1.00
C327   C     0.32634   0.41355   0.03953   0.00000  Uiso   1.00
C328   C     0.58287   0.24994   0.15433   0.00000  Uiso   1.00
C329   C     0.59759   0.19533   0.11314   0.00000  Uiso   1.00
C330   C     0.58101   0.12502   0.12759   0.00000  Uiso   1.00
C331   C     0.56417   0.00217   0.12987   0.00000  Uiso   1.00
C332   C     0.64236   0.37553   0.22324   0.00000  Uiso   1.00
C333   C     0.70712   0.42651   0.24000   0.00000  Uiso   1.00
C334   C     0.74064   0.46192   0.31246   0.00000  Uiso   1.00
C335   C     0.81616   0.53407   0.42174   0.00000  Uiso   1.00
C336   C     0.54108   0.30275   0.24649   0.00000  Uiso   1.00
C337   C     0.49652   0.33199   0.18672   0.00000  Uiso   1.00
C338   C     0.43271   0.34341   0.18330   0.00000  Uiso   1.00
C339   C     0.40013   0.37048   0.12419   0.00000  Uiso   1.00
C340   C     0.55266   0.23485   0.20804   0.00000  Uiso   1.00
C341   C     0.53606   0.16460   0.22255   0.00000  Uiso   1.00
C342   C     0.55076   0.10990   0.18139   0.00000  Uiso   1.00
C343   C     0.61215   0.36045   0.27695   0.00000  Uiso   1.00
C344   C     0.64559   0.39578   0.34940   0.00000  Uiso   1.00
C345   C     0.71038   0.44680   0.36627   0.00000  Uiso   1.00
H346   H     0.62020   0.34227   0.10579   0.00000  Uiso   1.00
H347   H     0.51763   0.38580   0.03234   0.00000  Uiso   1.00
H348   H     0.62097   0.20703   0.07159   0.00000  Uiso   1.00
H349   H     0.73047   0.43817   0.19842   0.00000  Uiso   1.00
H350   H     0.39057   0.42738   0.97457   0.00000  Uiso   1.00
H351   H     0.60850   0.05043   0.05735   0.00000  Uiso   1.00
H352   H     0.83941   0.53784   0.32481   0.00000  Uiso   1.00
H353   H     0.51756   0.29101   0.28831   0.00000  Uiso   1.00
H354   H     0.40935   0.33173   0.22487   0.00000  Uiso   1.00
H355   H     0.51269   0.15295   0.26412   0.00000  Uiso   1.00
H356   H     0.62220   0.38409   0.39095   0.00000  Uiso   1.00
H357   H     0.30268   0.38349   0.13083   0.00000  Uiso   1.00
H358   H     0.52062   0.00654   0.21362   0.00000  Uiso   1.00
H359   H     0.75153   0.49394   0.48107   0.00000  Uiso   1.00
O360   O     0.27728   0.43312   0.00767   0.00000  Uiso   1.00
O361   O     0.56321   0.93858   0.11628   0.00000  Uiso   1.00
O362   O     0.86616   0.57805   0.46717   0.00000  Uiso   1.00
N363   N     0.38474   0.41148   0.02006   0.00000  Uiso   1.00
N364   N     0.58848   0.05905   0.09745   0.00000  Uiso   1.00
N365   N     0.80438   0.51472   0.34750   0.00000  Uiso   1.00
N366   N     0.33745   0.38786   0.10415   0.00000  Uiso   1.00
N367   N     0.54119   0.03543   0.18153   0.00000  Uiso   1.00
N368   N     0.75709   0.49110   0.43159   0.00000  Uiso   1.00
C369   C     0.17278   0.60200   0.38250   0.00000  Uiso   1.00
C370   C     0.18522   0.52906   0.39786   0.00000  Uiso   1.00
C371   C     0.13663   0.46971   0.40583   0.00000  Uiso   1.00
C372   C     0.15817   0.40792   0.41967   0.00000  Uiso   1.00
C373   C     0.16717   0.29499   0.44261   0.00000  Uiso   1.00
C374   C     0.18995   0.61216   0.31315   0.00000  Uiso   1.00
C375   C     0.14534   0.62270   0.24991   0.00000  Uiso   1.00
C376   C     0.17086   0.63088   0.19245   0.00000  Uiso   1.00
C377   C     0.18722   0.64702   0.08390   0.00000  Uiso   1.00
C378   C     0.22859   0.66191   0.44363   0.00000  Uiso   1.00
C379   C     0.21648   0.71429   0.49007   0.00000  Uiso   1.00
C380   C     0.27454   0.76437   0.54245   0.00000  Uiso   1.00
C381   C     0.35090   0.85775   0.63648   0.00000  Uiso   1.00
C382   C     0.29742   0.59781   0.39291   0.00000  Uiso   1.00
C383   C     0.25292   0.52678   0.40351   0.00000  Uiso   1.00
C384   C     0.27453   0.46507   0.41735   0.00000  Uiso   1.00
C385   C     0.22599   0.40564   0.42534   0.00000  Uiso   1.00
C386   C     0.25764   0.60989   0.31881   0.00000  Uiso   1.00
C387   C     0.28324   0.61806   0.26143   0.00000  Uiso   1.00
C388   C     0.23868   0.62860   0.19811   0.00000  Uiso   1.00
C389   C     0.29629   0.65963   0.44928   0.00000  Uiso   1.00
C390   C     0.35438   0.70965   0.50159   0.00000  Uiso   1.00
C391   C     0.34236   0.76209   0.54811   0.00000  Uiso   1.00
H392   H     0.12007   0.60377   0.37810   0.00000  Uiso   1.00
H393   H     0.08424   0.47149   0.40144   0.00000  Uiso   1.00
H394   H     0.09295   0.62446   0.24555   0.00000  Uiso   1.00
H395   H     0.16408   0.71603   0.48568   0.00000  Uiso   1.00
H396   H     0.07437   0.32381   0.42979   0.00000  Uiso   1.00
H397   H     0.09274   0.64639   0.10110   0.00000  Uiso   1.00
H398   H     0.24273   0.83949   0.60745   0.00000  Uiso   1.00
H399   H     0.35013   0.59604   0.39731   0.00000  Uiso   1.00
H400   H     0.32693   0.46332   0.42172   0.00000  Uiso   1.00
H401   H     0.33563   0.61630   0.26582   0.00000  Uiso   1.00
H402   H     0.40676   0.70787   0.50595   0.00000  Uiso   1.00
H403   H     0.27134   0.31718   0.44624   0.00000  Uiso   1.00
H404   H     0.28971   0.63976   0.11755   0.00000  Uiso   1.00
H405   H     0.43969   0.83286   0.62390   0.00000  Uiso   1.00
O406   O     0.15343   0.23332   0.45370   0.00000  Uiso   1.00
O407   O     0.17754   0.65655   0.02247   0.00000  Uiso   1.00
O408   O     0.37431   0.90989   0.68680   0.00000  Uiso   1.00
N409   N     0.12391   0.34047   0.43033   0.00000  Uiso   1.00
N410   N     0.14109   0.64205   0.12301   0.00000  Uiso   1.00
N411   N     0.28131   0.82259   0.59640   0.00000  Uiso   1.00
N412   N     0.22990   0.33690   0.43918   0.00000  Uiso   1.00
N413   N     0.24708   0.63848   0.13187   0.00000  Uiso   1.00
N414   N     0.38730   0.81903   0.60526   0.00000  Uiso   1.00
C415   C     0.84719   0.20845   0.67145   0.00000  Uiso   1.00
C416   C     0.88515   0.14965   0.66943   0.00000  Uiso   1.00
C417   C     0.89016   0.11117   0.60731   0.00000  Uiso   1.00
C418   C     0.92715   0.05960   0.61694   0.00000  Uiso   1.00
C419   C     0.98137   0.97019   0.60327   0.00000  Uiso   1.00
C420   C     0.79431   0.18257   0.70940   0.00000  Uiso   1.00
C421   C     0.72296   0.17177   0.68087   0.00000  Uiso   1.00
C422   C     0.68349   0.14793   0.72415   0.00000  Uiso   1.00
C423   C     0.59669   0.10967   0.77253   0.00000  Uiso   1.00
C424   C     0.90100   0.27726   0.72295   0.00000  Uiso   1.00
C425   C     0.91934   0.34610   0.70583   0.00000  Uiso   1.00
C426   C     0.96968   0.40199   0.76052   0.00000  Uiso   1.00
C427   C     0.04854   0.51076   0.82994   0.00000  Uiso   1.00
C428   C     0.90396   0.18531   0.79902   0.00000  Uiso   1.00
C429   C     0.91598   0.13708   0.73873   0.00000  Uiso   1.00
C430   C     0.95298   0.08556   0.74845   0.00000  Uiso   1.00
C431   C     0.95805   0.04701   0.68636   0.00000  Uiso   1.00
C432   C     0.82515   0.17000   0.77868   0.00000  Uiso   1.00
C433   C     0.78577   0.14617   0.82201   0.00000  Uiso   1.00
C434   C     0.71438   0.13533   0.79356   0.00000  Uiso   1.00
C435   C     0.93184   0.26470   0.79224   0.00000  Uiso   1.00
C436   C     0.98216   0.32049   0.84697   0.00000  Uiso   1.00
C437   C     0.00057   0.38939   0.82994   0.00000  Uiso   1.00
H438   H     0.82318   0.21824   0.61751   0.00000  Uiso   1.00
H439   H     0.86629   0.12091   0.55370   0.00000  Uiso   1.00
H440   H     0.69911   0.18151   0.62725   0.00000  Uiso   1.00
H441   H     0.89547   0.35581   0.65220   0.00000  Uiso   1.00
H442   H     0.92766   0.00744   0.51351   0.00000  Uiso   1.00
H443   H     0.57516   0.13525   0.66861   0.00000  Uiso   1.00
H444   H     0.98922   0.50279   0.72122   0.00000  Uiso   1.00
H445   H     0.92797   0.17552   0.85297   0.00000  Uiso   1.00
H446   H     0.97683   0.07584   0.80208   0.00000  Uiso   1.00
H447   H     0.80965   0.13645   0.87563   0.00000  Uiso   1.00
H448   H     0.00601   0.31074   0.90058   0.00000  Uiso   1.00
H449   H     0.01738   0.97086   0.71510   0.00000  Uiso   1.00
H450   H     0.66488   0.09868   0.87021   0.00000  Uiso   1.00
H451   H     0.07893   0.46621   0.92282   0.00000  Uiso   1.00
O452   O     0.00276   0.92433   0.57658   0.00000  Uiso   1.00
O453   O     0.54029   0.09203   0.78007   0.00000  Uiso   1.00
O454   O     0.08352   0.57423   0.84909   0.00000  Uiso   1.00
N455   N     0.94208   0.01252   0.56794   0.00000  Uiso   1.00
N456   N     0.61252   0.13200   0.71294   0.00000  Uiso   1.00
N457   N     0.99961   0.47563   0.76214   0.00000  Uiso   1.00
N458   N     0.99036   0.99284   0.67642   0.00000  Uiso   1.00
N459   N     0.66079   0.11232   0.82142   0.00000  Uiso   1.00
N460   N     0.04788   0.45595   0.87062   0.00000  Uiso   1.00
C461   C     0.04710   0.73771   0.82272   0.00000  Uiso   1.00
C462   C     0.98146   0.76089   0.81872   0.00000  Uiso   1.00
C463   C     0.92859   0.72695   0.84354   0.00000  Uiso   1.00
C464   C     0.87289   0.75647   0.83488   0.00000  Uiso   1.00
C465   C     0.77135   0.78312   0.83356   0.00000  Uiso   1.00
C466   C     0.04812   0.72397   0.74476   0.00000  Uiso   1.00
C467   C     0.05131   0.65900   0.70741   0.00000  Uiso   1.00
C468   C     0.05173   0.65745   0.63650   0.00000  Uiso   1.00
C469   C     0.05373   0.62680   0.52038   0.00000  Uiso   1.00
C470   C     0.10834   0.80556   0.86386   0.00000  Uiso   1.00
C471   C     0.16219   0.80918   0.92665   0.00000  Uiso   1.00
C472   C     0.21333   0.87632   0.95600   0.00000  Uiso   1.00
C473   C     0.30885   0.97234   0.02480   0.00000  Uiso   1.00
C474   C     0.04218   0.85050   0.76319   0.00000  Uiso   1.00
C475   C     0.97878   0.82215   0.78638   0.00000  Uiso   1.00
C476   C     0.92314   0.85174   0.77768   0.00000  Uiso   1.00
C477   C     0.87021   0.81784   0.80249   0.00000  Uiso   1.00
C478   C     0.04544   0.78523   0.71243   0.00000  Uiso   1.00
C479   C     0.04586   0.78378   0.64155   0.00000  Uiso   1.00
C480   C     0.04905   0.71882   0.60411   0.00000  Uiso   1.00
C481   C     0.10567   0.86682   0.83153   0.00000  Uiso   1.00
C482   C     0.15674   0.93397   0.86079   0.00000  Uiso   1.00
C483   C     0.21065   0.93769   0.92361   0.00000  Uiso   1.00
H484   H     0.04918   0.69002   0.84788   0.00000  Uiso   1.00
H485   H     0.93068   0.67953   0.86856   0.00000  Uiso   1.00
H486   H     0.05338   0.61160   0.73245   0.00000  Uiso   1.00
H487   H     0.16424   0.76176   0.95165   0.00000  Uiso   1.00
H488   H     0.79810   0.69492   0.87719   0.00000  Uiso   1.00
H489   H     0.05686   0.55168   0.59022   0.00000  Uiso   1.00
H490   H     0.29064   0.86832   0.05244   0.00000  Uiso   1.00
H491   H     0.04009   0.89820   0.73801   0.00000  Uiso   1.00
H492   H     0.92109   0.89914   0.75266   0.00000  Uiso   1.00
H493   H     0.04380   0.83120   0.61655   0.00000  Uiso   1.00
H494   H     0.15466   0.98136   0.83575   0.00000  Uiso   1.00
H495   H     0.79032   0.87316   0.78313   0.00000  Uiso   1.00
H496   H     0.04908   0.72991   0.49615   0.00000  Uiso   1.00
H497   H     0.28285   0.04656   0.95838   0.00000  Uiso   1.00
O498   O     0.71608   0.78089   0.84175   0.00000  Uiso   1.00
O499   O     0.05557   0.59297   0.46526   0.00000  Uiso   1.00
O500   O     0.36227   0.00839   0.07169   0.00000  Uiso   1.00
N501   N     0.81261   0.73674   0.85306   0.00000  Uiso   1.00
N502   N     0.05452   0.60282   0.58475   0.00000  Uiso   1.00
N503   N     0.27309   0.89884   0.01688   0.00000  Uiso   1.00
N504   N     0.80842   0.83265   0.80244   0.00000  Uiso   1.00
N505   N     0.05033   0.69873   0.53413   0.00000  Uiso   1.00
N506   N     0.26890   0.99475   0.96626   0.00000  Uiso   1.00
C507   C     0.73544   0.88356   0.16553   0.00000  Uiso   1.00
C508   C     0.76028   0.91335   0.10598   0.00000  Uiso   1.00
C509   C     0.71924   0.90456   0.03399   0.00000  Uiso   1.00
C510   C     0.75176   0.93598   0.98795   0.00000  Uiso   1.00
C511   C     0.77953   0.97631   0.89164   0.00000  Uiso   1.00
C512   C     0.78196   0.83627   0.19562   0.00000  Uiso   1.00
C513   C     0.75915   0.76268   0.19901   0.00000  Uiso   1.00
C514   C     0.80993   0.72921   0.22845   0.00000  Uiso   1.00
C515   C     0.87136   0.64989   0.27136   0.00000  Uiso   1.00
C516   C     0.75367   0.95000   0.22670   0.00000  Uiso   1.00
C517   C     0.70708   0.97201   0.25625   0.00000  Uiso   1.00
C518   C     0.73405   0.03428   0.31186   0.00000  Uiso   1.00
C519   C     0.75156   0.13153   0.40303   0.00000  Uiso   1.00
C520   C     0.86617   0.95499   0.21178   0.00000  Uiso   1.00
C521   C     0.83128   0.95215   0.13110   0.00000  Uiso   1.00
C522   C     0.86388   0.98360   0.08516   0.00000  Uiso   1.00
C523   C     0.82289   0.97485   0.01312   0.00000  Uiso   1.00
C524   C     0.85297   0.87507   0.22074   0.00000  Uiso   1.00
C525   C     0.90379   0.84171   0.25018   0.00000  Uiso   1.00
C526   C     0.88106   0.76808   0.25361   0.00000  Uiso   1.00
C527   C     0.82468   0.98880   0.25182   0.00000  Uiso   1.00
C528   C     0.85172   0.05104   0.30741   0.00000  Uiso   1.00
C529   C     0.80518   0.07315   0.33703   0.00000  Uiso   1.00
H530   H     0.68016   0.85335   0.14598   0.00000  Uiso   1.00
H531   H     0.66429   0.87452   0.01457   0.00000  Uiso   1.00
H532   H     0.70420   0.73267   0.17958   0.00000  Uiso   1.00
H533   H     0.65214   0.94197   0.23679   0.00000  Uiso   1.00
H534   H     0.67801   0.91509   0.87995   0.00000  Uiso   1.00
H535   H     0.76216   0.61598   0.22789   0.00000  Uiso   1.00
H536   H     0.65238   0.05733   0.34855   0.00000  Uiso   1.00
H537   H     0.92146   0.98520   0.23134   0.00000  Uiso   1.00
H538   H     0.91883   0.01362   0.10461   0.00000  Uiso   1.00
H539   H     0.95873   0.87175   0.26962   0.00000  Uiso   1.00
H540   H     0.90667   0.08106   0.32684   0.00000  Uiso   1.00
H541   H     0.88461   0.02798   0.95303   0.00000  Uiso   1.00
H542   H     0.96875   0.72887   0.30098   0.00000  Uiso   1.00
H543   H     0.85898   0.17022   0.42163   0.00000  Uiso   1.00
O544   O     0.77523   0.98782   0.83158   0.00000  Uiso   1.00
O545   O     0.88563   0.59541   0.28808   0.00000  Uiso   1.00
O546   O     0.74160   0.17445   0.44638   0.00000  Uiso   1.00
N547   N     0.72699   0.93777   0.91455   0.00000  Uiso   1.00
N548   N     0.80566   0.65812   0.23984   0.00000  Uiso   1.00
N549   N     0.70304   0.07073   0.35266   0.00000  Uiso   1.00
N550   N     0.83816   0.99852   0.95387   0.00000  Uiso   1.00
N551   N     0.91683   0.71886   0.27917   0.00000  Uiso   1.00
N552   N     0.81420   0.13148   0.39198   0.00000  Uiso   1.00
