data_job_01962
_audit_creation_date              2018-12-19
_audit_creation_method            'Materials Studio'
_symmetry_space_group_name_H-M    'P1'
_symmetry_Int_Tables_number       1
_symmetry_cell_setting            triclinic
loop_
_symmetry_equiv_pos_as_xyz
  x,y,z
_cell_length_a                    11.3910
_cell_length_b                    11.6715
_cell_length_c                    28.9220
_cell_angle_alpha                 90.0000
_cell_angle_beta                  125.8322
_cell_angle_gamma                 90.0000
loop_
_atom_site_label
_atom_site_type_symbol
_atom_site_fract_x
_atom_site_fract_y
_atom_site_fract_z
_atom_site_U_iso_or_equiv
_atom_site_adp_type
_atom_site_occupancy
C1     C     0.91075   0.73382   0.61489   0.00000  Uiso   1.00
C2     C     0.04304   0.80076   0.66170   0.00000  Uiso   1.00
C3     C     0.04256   0.88839   0.69401   0.00000  Uiso   1.00
C4     C     0.17487   0.93889   0.73473   0.00000  Uiso   1.00
C5     C     0.36079   0.04834   0.80616   0.00000  Uiso   1.00
C6     C     0.90617   0.74744   0.56142   0.00000  Uiso   1.00
C7     C     0.79060   0.79022   0.50942   0.00000  Uiso   1.00
C8     C     0.80769   0.79581   0.46572   0.00000  Uiso   1.00
C9     C     0.78108   0.82240   0.38145   0.00000  Uiso   1.00
C10    C     0.94465   0.60792   0.63172   0.00000  Uiso   1.00
C11    C     0.86141   0.53339   0.63883   0.00000  Uiso   1.00
C12    C     0.91088   0.42151   0.65431   0.00000  Uiso   1.00
C13    C     0.94401   0.23147   0.67921   0.00000  Uiso   1.00
C14    C     0.14659   0.66764   0.62973   0.00000  Uiso   1.00
C15    C     0.17114   0.76481   0.66975   0.00000  Uiso   1.00
C16    C     0.30349   0.81518   0.71043   0.00000  Uiso   1.00
C17    C     0.30320   0.90288   0.74281   0.00000  Uiso   1.00
C18    C     0.03426   0.71150   0.56948   0.00000  Uiso   1.00
C19    C     0.05153   0.71701   0.52584   0.00000  Uiso   1.00
C20    C     0.93602   0.75981   0.47379   0.00000  Uiso   1.00
C21    C     0.07275   0.57197   0.63979   0.00000  Uiso   1.00
C22    C     0.12235   0.46018   0.65525   0.00000  Uiso   1.00
C23    C     0.03921   0.38550   0.66239   0.00000  Uiso   1.00
H24    H     0.81102   0.76180   0.60861   0.00000  Uiso   1.00
H25    H     0.94340   0.91619   0.68776   0.00000  Uiso   1.00
H26    H     0.69148   0.81802   0.50319   0.00000  Uiso   1.00
H27    H     0.76229   0.56123   0.63259   0.00000  Uiso   1.00
H28    H     0.14666   0.07154   0.77905   0.00000  Uiso   1.00
H29    H     0.61545   0.86451   0.38988   0.00000  Uiso   1.00
H30    H     0.76476   0.32302   0.66273   0.00000  Uiso   1.00
H31    H     0.24632   0.63966   0.63601   0.00000  Uiso   1.00
H32    H     0.40260   0.78735   0.71666   0.00000  Uiso   1.00
H33    H     0.15067   0.68919   0.53210   0.00000  Uiso   1.00
H34    H     0.22148   0.43240   0.66149   0.00000  Uiso   1.00
H35    H     0.51936   0.96698   0.80251   0.00000  Uiso   1.00
H36    H     0.98814   0.75994   0.41333   0.00000  Uiso   1.00
H37    H     0.13745   0.21845   0.68619   0.00000  Uiso   1.00
O38    O     0.42795   0.11864   0.84333   0.00000  Uiso   1.00
O39    O     0.73101   0.84701   0.33275   0.00000  Uiso   1.00
O40    O     0.92690   0.13659   0.69072   0.00000  Uiso   1.00
N41    N     0.21293   0.02665   0.77351   0.00000  Uiso   1.00
N42    N     0.71629   0.83310   0.40966   0.00000  Uiso   1.00
N43    N     0.85586   0.32685   0.66474   0.00000  Uiso   1.00
N44    N     0.41348   0.97038   0.78613   0.00000  Uiso   1.00
N45    N     0.91683   0.77684   0.42228   0.00000  Uiso   1.00
N46    N     0.05640   0.27058   0.67736   0.00000  Uiso   1.00
C47    C     0.08925   0.73382   0.88511   0.00000  Uiso   1.00
C48    C     0.95696   0.80076   0.83830   0.00000  Uiso   1.00
C49    C     0.95744   0.88839   0.80599   0.00000  Uiso   1.00
C50    C     0.82513   0.93889   0.76527   0.00000  Uiso   1.00
C51    C     0.63921   0.04834   0.69384   0.00000  Uiso   1.00
C52    C     0.09383   0.74744   0.93858   0.00000  Uiso   1.00
C53    C     0.20940   0.79022   0.99058   0.00000  Uiso   1.00
C54    C     0.19231   0.79581   0.03428   0.00000  Uiso   1.00
C55    C     0.21892   0.82240   0.11855   0.00000  Uiso   1.00
C56    C     0.05535   0.60792   0.86828   0.00000  Uiso   1.00
C57    C     0.13859   0.53339   0.86117   0.00000  Uiso   1.00
C58    C     0.08912   0.42151   0.84569   0.00000  Uiso   1.00
C59    C     0.05599   0.23147   0.82079   0.00000  Uiso   1.00
C60    C     0.85341   0.66764   0.87027   0.00000  Uiso   1.00
C61    C     0.82886   0.76481   0.83025   0.00000  Uiso   1.00
C62    C     0.69651   0.81518   0.78957   0.00000  Uiso   1.00
C63    C     0.69680   0.90288   0.75719   0.00000  Uiso   1.00
C64    C     0.96574   0.71150   0.93052   0.00000  Uiso   1.00
C65    C     0.94847   0.71701   0.97416   0.00000  Uiso   1.00
C66    C     0.06398   0.75981   0.02621   0.00000  Uiso   1.00
C67    C     0.92725   0.57197   0.86021   0.00000  Uiso   1.00
C68    C     0.87765   0.46018   0.84475   0.00000  Uiso   1.00
C69    C     0.96079   0.38550   0.83761   0.00000  Uiso   1.00
H70    H     0.18898   0.76180   0.89139   0.00000  Uiso   1.00
H71    H     0.05660   0.91619   0.81224   0.00000  Uiso   1.00
H72    H     0.30852   0.81802   0.99681   0.00000  Uiso   1.00
H73    H     0.23771   0.56123   0.86741   0.00000  Uiso   1.00
H74    H     0.85334   0.07154   0.72095   0.00000  Uiso   1.00
H75    H     0.38455   0.86451   0.11012   0.00000  Uiso   1.00
H76    H     0.23524   0.32302   0.83727   0.00000  Uiso   1.00
H77    H     0.75368   0.63966   0.86399   0.00000  Uiso   1.00
H78    H     0.59740   0.78735   0.78334   0.00000  Uiso   1.00
H79    H     0.84933   0.68919   0.96790   0.00000  Uiso   1.00
H80    H     0.77852   0.43240   0.83851   0.00000  Uiso   1.00
H81    H     0.48064   0.96698   0.69749   0.00000  Uiso   1.00
H82    H     0.01186   0.75994   0.08667   0.00000  Uiso   1.00
H83    H     0.86255   0.21845   0.81381   0.00000  Uiso   1.00
O84    O     0.57205   0.11864   0.65667   0.00000  Uiso   1.00
O85    O     0.26899   0.84701   0.16725   0.00000  Uiso   1.00
O86    O     0.07310   0.13659   0.80928   0.00000  Uiso   1.00
N87    N     0.78707   0.02665   0.72649   0.00000  Uiso   1.00
N88    N     0.28371   0.83310   0.09034   0.00000  Uiso   1.00
N89    N     0.14414   0.32685   0.83526   0.00000  Uiso   1.00
N90    N     0.58652   0.97038   0.71387   0.00000  Uiso   1.00
N91    N     0.08317   0.77684   0.07772   0.00000  Uiso   1.00
N92    N     0.94360   0.27058   0.82264   0.00000  Uiso   1.00
C93    C     0.08925   0.26618   0.38511   0.00000  Uiso   1.00
C94    C     0.95696   0.19924   0.33830   0.00000  Uiso   1.00
C95    C     0.95744   0.11161   0.30599   0.00000  Uiso   1.00
C96    C     0.82513   0.06111   0.26527   0.00000  Uiso   1.00
C97    C     0.63921   0.95166   0.19384   0.00000  Uiso   1.00
C98    C     0.09383   0.25256   0.43858   0.00000  Uiso   1.00
C99    C     0.20940   0.20978   0.49058   0.00000  Uiso   1.00
C100   C     0.19231   0.20419   0.53428   0.00000  Uiso   1.00
C101   C     0.21892   0.17760   0.61855   0.00000  Uiso   1.00
C102   C     0.05535   0.39208   0.36828   0.00000  Uiso   1.00
C103   C     0.13859   0.46661   0.36117   0.00000  Uiso   1.00
C104   C     0.08912   0.57849   0.34569   0.00000  Uiso   1.00
C105   C     0.05599   0.76853   0.32079   0.00000  Uiso   1.00
C106   C     0.85341   0.33236   0.37027   0.00000  Uiso   1.00
C107   C     0.82886   0.23519   0.33025   0.00000  Uiso   1.00
C108   C     0.69651   0.18482   0.28957   0.00000  Uiso   1.00
C109   C     0.69680   0.09712   0.25719   0.00000  Uiso   1.00
C110   C     0.96574   0.28850   0.43052   0.00000  Uiso   1.00
C111   C     0.94847   0.28299   0.47416   0.00000  Uiso   1.00
C112   C     0.06398   0.24019   0.52621   0.00000  Uiso   1.00
C113   C     0.92725   0.42803   0.36021   0.00000  Uiso   1.00
C114   C     0.87765   0.53982   0.34475   0.00000  Uiso   1.00
C115   C     0.96079   0.61450   0.33761   0.00000  Uiso   1.00
H116   H     0.18898   0.23820   0.39139   0.00000  Uiso   1.00
H117   H     0.05660   0.08381   0.31224   0.00000  Uiso   1.00
H118   H     0.30852   0.18198   0.49681   0.00000  Uiso   1.00
H119   H     0.23771   0.43877   0.36741   0.00000  Uiso   1.00
H120   H     0.85334   0.92846   0.22095   0.00000  Uiso   1.00
H121   H     0.38455   0.13549   0.61012   0.00000  Uiso   1.00
H122   H     0.23524   0.67698   0.33727   0.00000  Uiso   1.00
H123   H     0.75368   0.36034   0.36399   0.00000  Uiso   1.00
H124   H     0.59740   0.21265   0.28334   0.00000  Uiso   1.00
H125   H     0.84933   0.31081   0.46790   0.00000  Uiso   1.00
H126   H     0.77852   0.56760   0.33851   0.00000  Uiso   1.00
H127   H     0.48064   0.03302   0.19749   0.00000  Uiso   1.00
H128   H     0.01186   0.24006   0.58667   0.00000  Uiso   1.00
H129   H     0.86255   0.78155   0.31381   0.00000  Uiso   1.00
O130   O     0.57205   0.88136   0.15667   0.00000  Uiso   1.00
O131   O     0.26899   0.15299   0.66725   0.00000  Uiso   1.00
O132   O     0.07310   0.86341   0.30928   0.00000  Uiso   1.00
N133   N     0.78707   0.97335   0.22649   0.00000  Uiso   1.00
N134   N     0.28371   0.16690   0.59034   0.00000  Uiso   1.00
N135   N     0.14414   0.67315   0.33526   0.00000  Uiso   1.00
N136   N     0.58652   0.02962   0.21387   0.00000  Uiso   1.00
N137   N     0.08317   0.22316   0.57772   0.00000  Uiso   1.00
N138   N     0.94360   0.72942   0.32264   0.00000  Uiso   1.00
C139   C     0.91075   0.26618   0.11489   0.00000  Uiso   1.00
C140   C     0.04304   0.19924   0.16170   0.00000  Uiso   1.00
C141   C     0.04256   0.11161   0.19401   0.00000  Uiso   1.00
C142   C     0.17487   0.06111   0.23473   0.00000  Uiso   1.00
C143   C     0.36079   0.95166   0.30616   0.00000  Uiso   1.00
C144   C     0.90617   0.25256   0.06142   0.00000  Uiso   1.00
C145   C     0.79060   0.20978   0.00942   0.00000  Uiso   1.00
C146   C     0.80769   0.20419   0.96572   0.00000  Uiso   1.00
C147   C     0.78108   0.17760   0.88145   0.00000  Uiso   1.00
C148   C     0.94465   0.39208   0.13172   0.00000  Uiso   1.00
C149   C     0.86141   0.46661   0.13883   0.00000  Uiso   1.00
C150   C     0.91088   0.57849   0.15431   0.00000  Uiso   1.00
C151   C     0.94401   0.76853   0.17921   0.00000  Uiso   1.00
C152   C     0.14659   0.33236   0.12973   0.00000  Uiso   1.00
C153   C     0.17114   0.23519   0.16975   0.00000  Uiso   1.00
C154   C     0.30349   0.18482   0.21043   0.00000  Uiso   1.00
C155   C     0.30320   0.09712   0.24281   0.00000  Uiso   1.00
C156   C     0.03426   0.28850   0.06948   0.00000  Uiso   1.00
C157   C     0.05153   0.28299   0.02584   0.00000  Uiso   1.00
C158   C     0.93602   0.24019   0.97379   0.00000  Uiso   1.00
C159   C     0.07275   0.42803   0.13979   0.00000  Uiso   1.00
C160   C     0.12235   0.53982   0.15525   0.00000  Uiso   1.00
C161   C     0.03921   0.61450   0.16239   0.00000  Uiso   1.00
H162   H     0.81102   0.23820   0.10861   0.00000  Uiso   1.00
H163   H     0.94340   0.08381   0.18776   0.00000  Uiso   1.00
H164   H     0.69148   0.18198   0.00319   0.00000  Uiso   1.00
H165   H     0.76229   0.43877   0.13259   0.00000  Uiso   1.00
H166   H     0.14666   0.92846   0.27905   0.00000  Uiso   1.00
H167   H     0.61545   0.13549   0.88988   0.00000  Uiso   1.00
H168   H     0.76476   0.67698   0.16273   0.00000  Uiso   1.00
H169   H     0.24632   0.36034   0.13601   0.00000  Uiso   1.00
H170   H     0.40260   0.21265   0.21666   0.00000  Uiso   1.00
H171   H     0.15067   0.31081   0.03210   0.00000  Uiso   1.00
H172   H     0.22148   0.56760   0.16149   0.00000  Uiso   1.00
H173   H     0.51936   0.03302   0.30251   0.00000  Uiso   1.00
H174   H     0.98814   0.24006   0.91333   0.00000  Uiso   1.00
H175   H     0.13745   0.78155   0.18619   0.00000  Uiso   1.00
O176   O     0.42795   0.88136   0.34333   0.00000  Uiso   1.00
O177   O     0.73101   0.15299   0.83275   0.00000  Uiso   1.00
O178   O     0.92690   0.86341   0.19072   0.00000  Uiso   1.00
N179   N     0.21293   0.97335   0.27351   0.00000  Uiso   1.00
N180   N     0.71629   0.16690   0.90966   0.00000  Uiso   1.00
N181   N     0.85586   0.67315   0.16474   0.00000  Uiso   1.00
N182   N     0.41348   0.02962   0.28613   0.00000  Uiso   1.00
N183   N     0.91683   0.22316   0.92228   0.00000  Uiso   1.00
N184   N     0.05640   0.72942   0.17736   0.00000  Uiso   1.00
