data_job_07102
_audit_creation_date              2018-12-19
_audit_creation_method            'Materials Studio'
_symmetry_space_group_name_H-M    'P1'
_symmetry_Int_Tables_number       1
_symmetry_cell_setting            triclinic
loop_
_symmetry_equiv_pos_as_xyz
  x,y,z
_cell_length_a                    21.7147
_cell_length_b                    22.4445
_cell_length_c                    22.5477
_cell_angle_alpha                 117.5125
_cell_angle_beta                  84.3950
_cell_angle_gamma                 70.8845
loop_
_atom_site_label
_atom_site_type_symbol
_atom_site_fract_x
_atom_site_fract_y
_atom_site_fract_z
_atom_site_U_iso_or_equiv
_atom_site_adp_type
_atom_site_occupancy
C1     C     0.97763   0.05564   0.36404   0.00000  Uiso   1.00
C2     C     0.01857   0.08548   0.41221   0.00000  Uiso   1.00
C3     C     0.02482   0.15123   0.43240   0.00000  Uiso   1.00
C4     C     0.06459   0.16873   0.47675   0.00000  Uiso   1.00
C5     C     0.12327   0.22215   0.54798   0.00000  Uiso   1.00
C6     C     0.02769   0.97847   0.30409   0.00000  Uiso   1.00
C7     C     0.04161   0.95425   0.23338   0.00000  Uiso   1.00
C8     C     0.08904   0.88166   0.18672   0.00000  Uiso   1.00
C9     C     0.16185   0.76893   0.09009   0.00000  Uiso   1.00
C10    C     0.92740   0.04412   0.40517   0.00000  Uiso   1.00
C11    C     0.85698   0.07508   0.41944   0.00000  Uiso   1.00
C12    C     0.81997   0.05775   0.45787   0.00000  Uiso   1.00
C13    C     0.73705   0.04695   0.51819   0.00000  Uiso   1.00
C14    C     0.03712   0.96980   0.40689   0.00000  Uiso   1.00
C15    C     0.05089   0.03886   0.43548   0.00000  Uiso   1.00
C16    C     0.09065   0.05626   0.47981   0.00000  Uiso   1.00
C17    C     0.09696   0.12203   0.50007   0.00000  Uiso   1.00
C18    C     0.06001   0.93185   0.32736   0.00000  Uiso   1.00
C19    C     0.10743   0.85928   0.28079   0.00000  Uiso   1.00
C20    C     0.12142   0.83495   0.21003   0.00000  Uiso   1.00
C21    C     0.95971   0.99750   0.42845   0.00000  Uiso   1.00
C22    C     0.92280   0.98012   0.46686   0.00000  Uiso   1.00
C23    C     0.85234   0.01104   0.48119   0.00000  Uiso   1.00
H24    H     0.95247   0.09193   0.34591   0.00000  Uiso   1.00
H25    H     0.99981   0.18729   0.41437   0.00000  Uiso   1.00
H26    H     0.01659   0.99034   0.21538   0.00000  Uiso   1.00
H27    H     0.83199   0.11116   0.40142   0.00000  Uiso   1.00
H28    H     0.06657   0.27245   0.50052   0.00000  Uiso   1.00
H29    H     0.10192   0.85715   0.08094   0.00000  Uiso   1.00
H30    H     0.71266   0.11192   0.47323   0.00000  Uiso   1.00
H31    H     0.06228   0.93350   0.42501   0.00000  Uiso   1.00
H32    H     0.11565   0.02017   0.49781   0.00000  Uiso   1.00
H33    H     0.13243   0.82322   0.29882   0.00000  Uiso   1.00
H34    H     0.94783   0.94404   0.48486   0.00000  Uiso   1.00
H35    H     0.16059   0.13681   0.56824   0.00000  Uiso   1.00
H36    H     0.19594   0.72150   0.14866   0.00000  Uiso   1.00
H37    H     0.80668   0.97628   0.54095   0.00000  Uiso   1.00
O38    O     0.14673   0.26449   0.58082   0.00000  Uiso   1.00
O39    O     0.19309   0.71963   0.03036   0.00000  Uiso   1.00
O40    O     0.68239   0.05389   0.54504   0.00000  Uiso   1.00
N41    N     0.08136   0.22864   0.50647   0.00000  Uiso   1.00
N42    N     0.11442   0.84036   0.11420   0.00000  Uiso   1.00
N43    N     0.75049   0.07853   0.48094   0.00000  Uiso   1.00
N44    N     0.13195   0.15565   0.54292   0.00000  Uiso   1.00
N45    N     0.16501   0.76737   0.15064   0.00000  Uiso   1.00
N46    N     0.80109   0.00554   0.51738   0.00000  Uiso   1.00
C47    C     0.97419   0.65214   0.78146   0.00000  Uiso   1.00
C48    C     0.00718   0.57561   0.77168   0.00000  Uiso   1.00
C49    C     0.01181   0.56111   0.82501   0.00000  Uiso   1.00
C50    C     0.04393   0.48734   0.80524   0.00000  Uiso   1.00
C51    C     0.09115   0.37721   0.80079   0.00000  Uiso   1.00
C52    C     0.02898   0.65864   0.74019   0.00000  Uiso   1.00
C53    C     0.05194   0.71395   0.76705   0.00000  Uiso   1.00
C54    C     0.10240   0.71008   0.72076   0.00000  Uiso   1.00
C55    C     0.18343   0.72888   0.66741   0.00000  Uiso   1.00
C56    C     0.91986   0.65007   0.74346   0.00000  Uiso   1.00
C57    C     0.85106   0.69818   0.77305   0.00000  Uiso   1.00
C58    C     0.80965   0.68710   0.72951   0.00000  Uiso   1.00
C59    C     0.72125   0.69258   0.68123   0.00000  Uiso   1.00
C60    C     0.02298   0.54692   0.65151   0.00000  Uiso   1.00
C61    C     0.03368   0.51846   0.70109   0.00000  Uiso   1.00
C62    C     0.06579   0.44469   0.68123   0.00000  Uiso   1.00
C63    C     0.07047   0.43008   0.73453   0.00000  Uiso   1.00
C64    C     0.05548   0.60149   0.66961   0.00000  Uiso   1.00
C65    C     0.10592   0.59753   0.62327   0.00000  Uiso   1.00
C66    C     0.12895   0.65282   0.65005   0.00000  Uiso   1.00
C67    C     0.94636   0.59291   0.67287   0.00000  Uiso   1.00
C68    C     0.90504   0.58175   0.62927   0.00000  Uiso   1.00
C69    C     0.83620   0.62984   0.65879   0.00000  Uiso   1.00
H70    H     0.95356   0.69664   0.83642   0.00000  Uiso   1.00
H71    H     0.99131   0.60536   0.87964   0.00000  Uiso   1.00
H72    H     0.03142   0.75818   0.82168   0.00000  Uiso   1.00
H73    H     0.83057   0.74240   0.82768   0.00000  Uiso   1.00
H74    H     0.04486   0.47895   0.89642   0.00000  Uiso   1.00
H75    H     0.12942   0.80120   0.77421   0.00000  Uiso   1.00
H76    H     0.70590   0.76793   0.78686   0.00000  Uiso   1.00
H77    H     0.04362   0.50242   0.59655   0.00000  Uiso   1.00
H78    H     0.08630   0.40047   0.62660   0.00000  Uiso   1.00
H79    H     0.12641   0.55330   0.56865   0.00000  Uiso   1.00
H80    H     0.92557   0.53752   0.57465   0.00000  Uiso   1.00
H81    H     0.12196   0.31266   0.69105   0.00000  Uiso   1.00
H82    H     0.20652   0.63491   0.56884   0.00000  Uiso   1.00
H83    H     0.78300   0.60164   0.58149   0.00000  Uiso   1.00
O84    O     0.10988   0.33225   0.81783   0.00000  Uiso   1.00
O85    O     0.22081   0.75503   0.65749   0.00000  Uiso   1.00
O86    O     0.66517   0.71138   0.67410   0.00000  Uiso   1.00
N87    N     0.05713   0.45380   0.84396   0.00000  Uiso   1.00
N88    N     0.13620   0.75508   0.72970   0.00000  Uiso   1.00
N89    N     0.74025   0.72399   0.74153   0.00000  Uiso   1.00
N90    N     0.09862   0.36432   0.73345   0.00000  Uiso   1.00
N91    N     0.17769   0.66560   0.61919   0.00000  Uiso   1.00
N92    N     0.78174   0.63451   0.63102   0.00000  Uiso   1.00
C93    C     0.89256   0.29827   0.00407   0.00000  Uiso   1.00
C94    C     0.90916   0.31122   0.94493   0.00000  Uiso   1.00
C95    C     0.93360   0.25776   0.87395   0.00000  Uiso   1.00
C96    C     0.94562   0.28073   0.82815   0.00000  Uiso   1.00
C97    C     0.97326   0.28960   0.73261   0.00000  Uiso   1.00
C98    C     0.93505   0.32450   0.05193   0.00000  Uiso   1.00
C99    C     0.98124   0.28220   0.07091   0.00000  Uiso   1.00
C100   C     0.01506   0.31634   0.11518   0.00000  Uiso   1.00
C101   C     0.08285   0.34584   0.18579   0.00000  Uiso   1.00
C102   C     0.81834   0.35220   0.04612   0.00000  Uiso   1.00
C103   C     0.76639   0.33319   0.06024   0.00000  Uiso   1.00
C104   C     0.70194   0.39066   0.09964   0.00000  Uiso   1.00
C105   C     0.58851   0.46316   0.16124   0.00000  Uiso   1.00
C106   C     0.87047   0.43413   0.04896   0.00000  Uiso   1.00
C107   C     0.89717   0.38501   0.96932   0.00000  Uiso   1.00
C108   C     0.90916   0.40807   0.92361   0.00000  Uiso   1.00
C109   C     0.93360   0.35465   0.85257   0.00000  Uiso   1.00
C110   C     0.92306   0.39828   0.07631   0.00000  Uiso   1.00
C111   C     0.95680   0.43250   0.12057   0.00000  Uiso   1.00
C112   C     0.00304   0.39026   0.13961   0.00000  Uiso   1.00
C113   C     0.80634   0.42599   0.07050   0.00000  Uiso   1.00
C114   C     0.74195   0.48349   0.10990   0.00000  Uiso   1.00
C115   C     0.68992   0.46458   0.12407   0.00000  Uiso   1.00
H116   H     0.90191   0.24083   0.98509   0.00000  Uiso   1.00
H117   H     0.94288   0.20066   0.85510   0.00000  Uiso   1.00
H118   H     0.99051   0.22510   0.05204   0.00000  Uiso   1.00
H119   H     0.77570   0.27608   0.04136   0.00000  Uiso   1.00
H120   H     0.98304   0.18867   0.72173   0.00000  Uiso   1.00
H121   H     0.08346   0.24020   0.13700   0.00000  Uiso   1.00
H122   H     0.63048   0.34771   0.11450   0.00000  Uiso   1.00
H123   H     0.86113   0.49158   0.06795   0.00000  Uiso   1.00
H124   H     0.89987   0.46517   0.94249   0.00000  Uiso   1.00
H125   H     0.94750   0.48960   0.13943   0.00000  Uiso   1.00
H126   H     0.73269   0.54059   0.12876   0.00000  Uiso   1.00
H127   H     0.94814   0.40335   0.79266   0.00000  Uiso   1.00
H128   H     0.04855   0.45488   0.20793   0.00000  Uiso   1.00
H129   H     0.59557   0.56240   0.18543   0.00000  Uiso   1.00
O130   O     0.99183   0.27411   0.67318   0.00000  Uiso   1.00
O131   O     0.12356   0.34172   0.21800   0.00000  Uiso   1.00
O132   O     0.52926   0.48277   0.18847   0.00000  Uiso   1.00
N133   N     0.96950   0.24282   0.75564   0.00000  Uiso   1.00
N134   N     0.06339   0.29099   0.14388   0.00000  Uiso   1.00
N135   N     0.63989   0.39151   0.12286   0.00000  Uiso   1.00
N136   N     0.95071   0.35834   0.79381   0.00000  Uiso   1.00
N137   N     0.04461   0.40651   0.18205   0.00000  Uiso   1.00
N138   N     0.62111   0.50703   0.16103   0.00000  Uiso   1.00
C139   C     0.51968   0.95510   0.46833   0.00000  Uiso   1.00
C140   C     0.51804   0.01755   0.45713   0.00000  Uiso   1.00
C141   C     0.53156   0.07685   0.50064   0.00000  Uiso   1.00
C142   C     0.52740   0.12814   0.48128   0.00000  Uiso   1.00
C143   C     0.52748   0.22626   0.47309   0.00000  Uiso   1.00
C144   C     0.56993   0.88331   0.40205   0.00000  Uiso   1.00
C145   C     0.62706   0.82975   0.39926   0.00000  Uiso   1.00
C146   C     0.66657   0.76804   0.33353   0.00000  Uiso   1.00
C147   C     0.74717   0.65774   0.23985   0.00000  Uiso   1.00
C148   C     0.44955   0.95460   0.46923   0.00000  Uiso   1.00
C149   C     0.40548   0.96095   0.52291   0.00000  Uiso   1.00
C150   C     0.34364   0.95923   0.51374   0.00000  Uiso   1.00
C151   C     0.23735   0.95961   0.52437   0.00000  Uiso   1.00
C152   C     0.48825   0.94073   0.35659   0.00000  Uiso   1.00
C153   C     0.50097   0.00974   0.39643   0.00000  Uiso   1.00
C154   C     0.49679   0.06095   0.37700   0.00000  Uiso   1.00
C155   C     0.51029   0.12032   0.42047   0.00000  Uiso   1.00
C156   C     0.55286   0.87550   0.34136   0.00000  Uiso   1.00
C157   C     0.59229   0.81385   0.27562   0.00000  Uiso   1.00
C158   C     0.64946   0.76021   0.27272   0.00000  Uiso   1.00
C159   C     0.43248   0.94679   0.40854   0.00000  Uiso   1.00
C160   C     0.37071   0.94506   0.39928   0.00000  Uiso   1.00
C161   C     0.32654   0.95141   0.45293   0.00000  Uiso   1.00
H162   H     0.53298   0.96118   0.51559   0.00000  Uiso   1.00
H163   H     0.54478   0.08287   0.54760   0.00000  Uiso   1.00
H164   H     0.64025   0.83581   0.44624   0.00000  Uiso   1.00
H165   H     0.41871   0.96699   0.56988   0.00000  Uiso   1.00
H166   H     0.55035   0.21433   0.55632   0.00000  Uiso   1.00
H167   H     0.75166   0.69337   0.34259   0.00000  Uiso   1.00
H168   H     0.28448   0.97000   0.60330   0.00000  Uiso   1.00
H169   H     0.47496   0.93465   0.30933   0.00000  Uiso   1.00
H170   H     0.48358   0.05489   0.33003   0.00000  Uiso   1.00
H171   H     0.57906   0.80783   0.22866   0.00000  Uiso   1.00
H172   H     0.35751   0.93901   0.35230   0.00000  Uiso   1.00
H173   H     0.50069   0.19162   0.37972   0.00000  Uiso   1.00
H174   H     0.70199   0.67066   0.16599   0.00000  Uiso   1.00
H175   H     0.23482   0.94729   0.42671   0.00000  Uiso   1.00
O176   O     0.53225   0.28254   0.48534   0.00000  Uiso   1.00
O177   O     0.79635   0.59906   0.20494   0.00000  Uiso   1.00
O178   O     0.18343   0.96199   0.54700   0.00000  Uiso   1.00
N179   N     0.53747   0.19249   0.51192   0.00000  Uiso   1.00
N180   N     0.72568   0.70543   0.31210   0.00000  Uiso   1.00
N181   N     0.28892   0.96404   0.55584   0.00000  Uiso   1.00
N182   N     0.51074   0.18027   0.41690   0.00000  Uiso   1.00
N183   N     0.69896   0.69321   0.21707   0.00000  Uiso   1.00
N184   N     0.26220   0.95182   0.46081   0.00000  Uiso   1.00
C185   C     0.51583   0.64152   0.69640   0.00000  Uiso   1.00
C186   C     0.53237   0.56891   0.62872   0.00000  Uiso   1.00
C187   C     0.56260   0.55039   0.56185   0.00000  Uiso   1.00
C188   C     0.57348   0.48128   0.50675   0.00000  Uiso   1.00
C189   C     0.60205   0.37593   0.39993   0.00000  Uiso   1.00
C190   C     0.55193   0.62021   0.74297   0.00000  Uiso   1.00
C191   C     0.59859   0.64482   0.77216   0.00000  Uiso   1.00
C192   C     0.62593   0.61890   0.81324   0.00000  Uiso   1.00
C193   C     0.68482   0.59324   0.88383   0.00000  Uiso   1.00
C194   C     0.43960   0.67391   0.73193   0.00000  Uiso   1.00
C195   C     0.39181   0.74369   0.75186   0.00000  Uiso   1.00
C196   C     0.32457   0.76299   0.78365   0.00000  Uiso   1.00
C197   C     0.20904   0.82072   0.83711   0.00000  Uiso   1.00
C198   C     0.48140   0.55172   0.71745   0.00000  Uiso   1.00
C199   C     0.51367   0.52013   0.64016   0.00000  Uiso   1.00
C200   C     0.52451   0.45104   0.58514   0.00000  Uiso   1.00
C201   C     0.55475   0.43241   0.51820   0.00000  Uiso   1.00
C202   C     0.53323   0.57143   0.75440   0.00000  Uiso   1.00
C203   C     0.56050   0.54547   0.79545   0.00000  Uiso   1.00
C204   C     0.60720   0.57004   0.82469   0.00000  Uiso   1.00
C205   C     0.42089   0.62514   0.74336   0.00000  Uiso   1.00
C206   C     0.35372   0.64434   0.77514   0.00000  Uiso   1.00
C207   C     0.30583   0.71413   0.79511   0.00000  Uiso   1.00
H208   H     0.53039   0.67949   0.68750   0.00000  Uiso   1.00
H209   H     0.57707   0.58814   0.55302   0.00000  Uiso   1.00
H210   H     0.61305   0.68257   0.76330   0.00000  Uiso   1.00
H211   H     0.40630   0.78142   0.74300   0.00000  Uiso   1.00
H212   H     0.62060   0.46535   0.40898   0.00000  Uiso   1.00
H213   H     0.69645   0.66447   0.85239   0.00000  Uiso   1.00
H214   H     0.26047   0.87292   0.80957   0.00000  Uiso   1.00
H215   H     0.46684   0.51375   0.72635   0.00000  Uiso   1.00
H216   H     0.51003   0.41330   0.59401   0.00000  Uiso   1.00
H217   H     0.54602   0.50773   0.80429   0.00000  Uiso   1.00
H218   H     0.33927   0.60658   0.78399   0.00000  Uiso   1.00
H219   H     0.56619   0.32344   0.44225   0.00000  Uiso   1.00
H220   H     0.64204   0.52257   0.88566   0.00000  Uiso   1.00
H221   H     0.20606   0.73101   0.84284   0.00000  Uiso   1.00
O222   O     0.62298   0.33129   0.33786   0.00000  Uiso   1.00
O223   O     0.72247   0.59256   0.91960   0.00000  Uiso   1.00
O224   O     0.15048   0.86602   0.86342   0.00000  Uiso   1.00
N225   N     0.60185   0.44574   0.43497   0.00000  Uiso   1.00
N226   N     0.67278   0.63190   0.84952   0.00000  Uiso   1.00
N227   N     0.26518   0.82679   0.80951   0.00000  Uiso   1.00
N228   N     0.57258   0.36938   0.45287   0.00000  Uiso   1.00
N229   N     0.64350   0.55554   0.86742   0.00000  Uiso   1.00
N230   N     0.23590   0.75043   0.82741   0.00000  Uiso   1.00
C231   C     0.45490   0.23982   0.03322   0.00000  Uiso   1.00
C232   C     0.48323   0.24005   0.09257   0.00000  Uiso   1.00
C233   C     0.50027   0.18354   0.10647   0.00000  Uiso   1.00
C234   C     0.52540   0.19436   0.16317   0.00000  Uiso   1.00
C235   C     0.56824   0.18480   0.24901   0.00000  Uiso   1.00
C236   C     0.50352   0.25229   0.99140   0.00000  Uiso   1.00
C237   C     0.53762   0.20608   0.92023   0.00000  Uiso   1.00
C238   C     0.57983   0.22721   0.89176   0.00000  Uiso   1.00
C239   C     0.65413   0.23669   0.82053   0.00000  Uiso   1.00
C240   C     0.38778   0.30914   0.06777   0.00000  Uiso   1.00
C241   C     0.32455   0.31074   0.06081   0.00000  Uiso   1.00
C242   C     0.26930   0.37973   0.09664   0.00000  Uiso   1.00
C243   C     0.16389   0.47748   0.14399   0.00000  Uiso   1.00
C244   C     0.46923   0.35950   0.10921   0.00000  Uiso   1.00
C245   C     0.49102   0.30505   0.13384   0.00000  Uiso   1.00
C246   C     0.51613   0.31596   0.19053   0.00000  Uiso   1.00
C247   C     0.53320   0.25948   0.20451   0.00000  Uiso   1.00
C248   C     0.51131   0.31729   0.03267   0.00000  Uiso   1.00
C249   C     0.55347   0.33850   0.00430   0.00000  Uiso   1.00
C250   C     0.58763   0.29233   0.93311   0.00000  Uiso   1.00
C251   C     0.39556   0.37415   0.10905   0.00000  Uiso   1.00
C252   C     0.34040   0.44315   0.14489   0.00000  Uiso   1.00
C253   C     0.27710   0.44486   0.13798   0.00000  Uiso   1.00
H254   H     0.44884   0.18921   0.00109   0.00000  Uiso   1.00
H255   H     0.49424   0.13324   0.07451   0.00000  Uiso   1.00
H256   H     0.53158   0.15578   0.88830   0.00000  Uiso   1.00
H257   H     0.31854   0.26042   0.02887   0.00000  Uiso   1.00
H258   H     0.54804   0.09984   0.17409   0.00000  Uiso   1.00
H259   H     0.62674   0.14739   0.78147   0.00000  Uiso   1.00
H260   H     0.17751   0.36804   0.07787   0.00000  Uiso   1.00
H261   H     0.47529   0.41012   0.14134   0.00000  Uiso   1.00
H262   H     0.52215   0.36627   0.22246   0.00000  Uiso   1.00
H263   H     0.55948   0.38881   0.03625   0.00000  Uiso   1.00
H264   H     0.34645   0.49345   0.17682   0.00000  Uiso   1.00
H265   H     0.57069   0.28898   0.29418   0.00000  Uiso   1.00
H266   H     0.64939   0.33652   0.90154   0.00000  Uiso   1.00
H267   H     0.20016   0.55717   0.19795   0.00000  Uiso   1.00
O268   O     0.58973   0.16157   0.28495   0.00000  Uiso   1.00
O269   O     0.69297   0.22395   0.76984   0.00000  Uiso   1.00
O270   O     0.10360   0.51344   0.15872   0.00000  Uiso   1.00
N271   N     0.54692   0.15038   0.19123   0.00000  Uiso   1.00
N272   N     0.62052   0.19482   0.82415   0.00000  Uiso   1.00
N273   N     0.20053   0.40112   0.10125   0.00000  Uiso   1.00
N274   N     0.55911   0.25215   0.25585   0.00000  Uiso   1.00
N275   N     0.63270   0.29659   0.88876   0.00000  Uiso   1.00
N276   N     0.21272   0.50289   0.16587   0.00000  Uiso   1.00
C277   C     0.95628   0.94233   0.79738   0.00000  Uiso   1.00
C278   C     0.93764   0.89607   0.73346   0.00000  Uiso   1.00
C279   C     0.94687   0.82335   0.70736   0.00000  Uiso   1.00
C280   C     0.92650   0.79076   0.64838   0.00000  Uiso   1.00
C281   C     0.90187   0.71304   0.55397   0.00000  Uiso   1.00
C282   C     0.89086   0.01187   0.84663   0.00000  Uiso   1.00
C283   C     0.86078   0.03651   0.91569   0.00000  Uiso   1.00
C284   C     0.80104   0.10140   0.95197   0.00000  Uiso   1.00
C285   C     0.70382   0.20349   0.03328   0.00000  Uiso   1.00
C286   C     0.00428   0.96800   0.77206   0.00000  Uiso   1.00
C287   C     0.06955   0.95577   0.77844   0.00000  Uiso   1.00
C288   C     0.10529   0.98374   0.75196   0.00000  Uiso   1.00
C289   C     0.18417   0.01772   0.71749   0.00000  Uiso   1.00
C290   C     0.90369   0.01376   0.73904   0.00000  Uiso   1.00
C291   C     0.90907   0.93488   0.70178   0.00000  Uiso   1.00
C292   C     0.88868   0.90238   0.64281   0.00000  Uiso   1.00
C293   C     0.89788   0.82962   0.61663   0.00000  Uiso   1.00
C294   C     0.86230   0.05067   0.81495   0.00000  Uiso   1.00
C295   C     0.80259   0.11554   0.85114   0.00000  Uiso   1.00
C296   C     0.77242   0.14027   0.92023   0.00000  Uiso   1.00
C297   C     0.97572   0.00680   0.74037   0.00000  Uiso   1.00
C298   C     0.01136   0.03480   0.71389   0.00000  Uiso   1.00
C299   C     0.07667   0.02262   0.72021   0.00000  Uiso   1.00
H300   H     0.97851   0.91213   0.82205   0.00000  Uiso   1.00
H301   H     0.96897   0.79335   0.73190   0.00000  Uiso   1.00
H302   H     0.88290   0.00648   0.94020   0.00000  Uiso   1.00
H303   H     0.09163   0.92575   0.80296   0.00000  Uiso   1.00
H304   H     0.94577   0.67878   0.61799   0.00000  Uiso   1.00
H305   H     0.76429   0.12818   0.05720   0.00000  Uiso   1.00
H306   H     0.20446   0.95795   0.76782   0.00000  Uiso   1.00
H307   H     0.88144   0.04397   0.71437   0.00000  Uiso   1.00
H308   H     0.86658   0.93242   0.61830   0.00000  Uiso   1.00
H309   H     0.78050   0.14555   0.82660   0.00000  Uiso   1.00
H310   H     0.98924   0.06482   0.68937   0.00000  Uiso   1.00
H311   H     0.86266   0.79166   0.52580   0.00000  Uiso   1.00
H312   H     0.68119   0.24107   0.96501   0.00000  Uiso   1.00
H313   H     0.12135   0.07083   0.67563   0.00000  Uiso   1.00
O314   O     0.89617   0.65946   0.51066   0.00000  Uiso   1.00
O315   O     0.65809   0.24908   0.08689   0.00000  Uiso   1.00
O316   O     0.23557   0.02574   0.70722   0.00000  Uiso   1.00
N317   N     0.92826   0.72065   0.60947   0.00000  Uiso   1.00
N318   N     0.75859   0.14081   0.02010   0.00000  Uiso   1.00
N319   N     0.17010   0.98168   0.74957   0.00000  Uiso   1.00
N320   N     0.88354   0.78138   0.55986   0.00000  Uiso   1.00
N321   N     0.71387   0.20155   0.97049   0.00000  Uiso   1.00
N322   N     0.12538   0.04242   0.69996   0.00000  Uiso   1.00
C323   C     0.92542   0.27159   0.26275   0.00000  Uiso   1.00
C324   C     0.90872   0.35389   0.29771   0.00000  Uiso   1.00
C325   C     0.88792   0.39679   0.26846   0.00000  Uiso   1.00
C326   C     0.87512   0.47101   0.30888   0.00000  Uiso   1.00
C327   C     0.84799   0.59423   0.35294   0.00000  Uiso   1.00
C328   C     0.87930   0.26474   0.31250   0.00000  Uiso   1.00
C329   C     0.83377   0.23268   0.29570   0.00000  Uiso   1.00
C330   C     0.79621   0.23185   0.34858   0.00000  Uiso   1.00
C331   C     0.72343   0.21662   0.41560   0.00000  Uiso   1.00
C332   C     0.99799   0.23418   0.26288   0.00000  Uiso   1.00
C333   C     0.05226   0.17640   0.20436   0.00000  Uiso   1.00
C334   C     0.11463   0.14983   0.21547   0.00000  Uiso   1.00
C335   C     0.22615   0.08714   0.20544   0.00000  Uiso   1.00
C336   C     0.93968   0.32711   0.38654   0.00000  Uiso   1.00
C337   C     0.91647   0.38405   0.36495   0.00000  Uiso   1.00
C338   C     0.90370   0.45822   0.40542   0.00000  Uiso   1.00
C339   C     0.88288   0.50123   0.37624   0.00000  Uiso   1.00
C340   C     0.88704   0.29490   0.37974   0.00000  Uiso   1.00
C341   C     0.84954   0.29411   0.43266   0.00000  Uiso   1.00
C342   C     0.80396   0.26206   0.41594   0.00000  Uiso   1.00
C343   C     0.00574   0.26434   0.33012   0.00000  Uiso   1.00
C344   C     0.06804   0.23784   0.34132   0.00000  Uiso   1.00
C345   C     0.12239   0.18004   0.28283   0.00000  Uiso   1.00
H346   H     0.91939   0.24810   0.21041   0.00000  Uiso   1.00
H347   H     0.88193   0.37343   0.21643   0.00000  Uiso   1.00
H348   H     0.82779   0.20934   0.24366   0.00000  Uiso   1.00
H349   H     0.04625   0.15308   0.15233   0.00000  Uiso   1.00
H350   H     0.84380   0.52569   0.25276   0.00000  Uiso   1.00
H351   H     0.72966   0.17967   0.31017   0.00000  Uiso   1.00
H352   H     0.19032   0.06103   0.11760   0.00000  Uiso   1.00
H353   H     0.94570   0.35059   0.43890   0.00000  Uiso   1.00
H354   H     0.90969   0.48155   0.45745   0.00000  Uiso   1.00
H355   H     0.85555   0.31745   0.48468   0.00000  Uiso   1.00
H356   H     0.07401   0.26119   0.39336   0.00000  Uiso   1.00
H357   H     0.86632   0.61344   0.44839   0.00000  Uiso   1.00
H358   H     0.75219   0.26741   0.50580   0.00000  Uiso   1.00
H359   H     0.21285   0.14878   0.31323   0.00000  Uiso   1.00
O360   O     0.83087   0.65386   0.35867   0.00000  Uiso   1.00
O361   O     0.68114   0.19989   0.43399   0.00000  Uiso   1.00
O362   O     0.28552   0.04424   0.18134   0.00000  Uiso   1.00
N363   N     0.85405   0.52836   0.29625   0.00000  Uiso   1.00
N364   N     0.74733   0.20487   0.34993   0.00000  Uiso   1.00
N365   N     0.17801   0.09394   0.16989   0.00000  Uiso   1.00
N366   N     0.86618   0.57558   0.40152   0.00000  Uiso   1.00
N367   N     0.75946   0.25208   0.45520   0.00000  Uiso   1.00
N368   N     0.19013   0.14115   0.27516   0.00000  Uiso   1.00
C369   C     0.00624   0.66531   0.08094   0.00000  Uiso   1.00
C370   C     0.97552   0.68958   0.15648   0.00000  Uiso   1.00
C371   C     0.97985   0.74582   0.21558   0.00000  Uiso   1.00
C372   C     0.94832   0.75954   0.28000   0.00000  Uiso   1.00
C373   C     0.90584   0.80351   0.39652   0.00000  Uiso   1.00
C374   C     0.94720   0.67183   0.04932   0.00000  Uiso   1.00
C375   C     0.92773   0.71313   0.01832   0.00000  Uiso   1.00
C376   C     0.87237   0.71191   0.99253   0.00000  Uiso   1.00
C377   C     0.78596   0.72826   0.94265   0.00000  Uiso   1.00
C378   C     0.05235   0.58270   0.04340   0.00000  Uiso   1.00
C379   C     0.12129   0.54906   0.00740   0.00000  Uiso   1.00
C380   C     0.15445   0.47279   0.97661   0.00000  Uiso   1.00
C381   C     0.23131   0.35076   0.91753   0.00000  Uiso   1.00
C382   C     0.94254   0.58969   0.09025   0.00000  Uiso   1.00
C383   C     0.94092   0.64851   0.16153   0.00000  Uiso   1.00
C384   C     0.90937   0.66216   0.22588   0.00000  Uiso   1.00
C385   C     0.91366   0.71840   0.28506   0.00000  Uiso   1.00
C386   C     0.91260   0.63076   0.05438   0.00000  Uiso   1.00
C387   C     0.85726   0.62947   0.02862   0.00000  Uiso   1.00
C388   C     0.83770   0.67076   0.99760   0.00000  Uiso   1.00
C389   C     0.01775   0.54163   0.04846   0.00000  Uiso   1.00
C390   C     0.05081   0.46540   0.01771   0.00000  Uiso   1.00
C391   C     0.11979   0.43164   0.98167   0.00000  Uiso   1.00
H392   H     0.03318   0.69729   0.07700   0.00000  Uiso   1.00
H393   H     0.00663   0.77759   0.21164   0.00000  Uiso   1.00
H394   H     0.95452   0.74490   0.01441   0.00000  Uiso   1.00
H395   H     0.14805   0.58086   0.00350   0.00000  Uiso   1.00
H396   H     0.96191   0.84853   0.36315   0.00000  Uiso   1.00
H397   H     0.85205   0.77959   0.94726   0.00000  Uiso   1.00
H398   H     0.26015   0.43366   0.92424   0.00000  Uiso   1.00
H399   H     0.91561   0.55772   0.09418   0.00000  Uiso   1.00
H400   H     0.88260   0.63036   0.22977   0.00000  Uiso   1.00
H401   H     0.83050   0.59768   0.03254   0.00000  Uiso   1.00
H402   H     0.02402   0.43363   0.02163   0.00000  Uiso   1.00
H403   H     0.86124   0.72904   0.37786   0.00000  Uiso   1.00
H404   H     0.75139   0.66009   0.96197   0.00000  Uiso   1.00
H405   H     0.15948   0.31417   0.93896   0.00000  Uiso   1.00
O406   O     0.89197   0.83911   0.45939   0.00000  Uiso   1.00
O407   O     0.74785   0.74864   0.91375   0.00000  Uiso   1.00
O408   O     0.28326   0.29480   0.88355   0.00000  Uiso   1.00
N409   N     0.94276   0.81043   0.34800   0.00000  Uiso   1.00
N410   N     0.84004   0.74598   0.95918   0.00000  Uiso   1.00
N411   N     0.22158   0.42257   0.93764   0.00000  Uiso   1.00
N412   N     0.88859   0.74613   0.35592   0.00000  Uiso   1.00
N413   N     0.78588   0.68168   0.96710   0.00000  Uiso   1.00
N414   N     0.16741   0.35827   0.94556   0.00000  Uiso   1.00
C415   C     0.45941   0.92159   0.92687   0.00000  Uiso   1.00
C416   C     0.43737   0.87677   0.95142   0.00000  Uiso   1.00
C417   C     0.43503   0.80958   0.90844   0.00000  Uiso   1.00
C418   C     0.41343   0.77739   0.94104   0.00000  Uiso   1.00
C419   C     0.38200   0.70267   0.96807   0.00000  Uiso   1.00
C420   C     0.39994   0.99813   0.96433   0.00000  Uiso   1.00
C421   C     0.36614   0.03296   0.93220   0.00000  Uiso   1.00
C422   C     0.31304   0.10294   0.97568   0.00000  Uiso   1.00
C423   C     0.22354   0.21664   0.02275   0.00000  Uiso   1.00
C424   C     0.51747   0.93259   0.95690   0.00000  Uiso   1.00
C425   C     0.58248   0.91233   0.91853   0.00000  Uiso   1.00
C426   C     0.62833   0.92714   0.95575   0.00000  Uiso   1.00
C427   C     0.72131   0.93908   0.99129   0.00000  Uiso   1.00
C428   C     0.42521   0.98392   0.06120   0.00000  Uiso   1.00
C429   C     0.41879   0.91063   0.02439   0.00000  Uiso   1.00
C430   C     0.39719   0.87853   0.05706   0.00000  Uiso   1.00
C431   C     0.39482   0.81130   0.01414   0.00000  Uiso   1.00
C432   C     0.38136   0.03198   0.03729   0.00000  Uiso   1.00
C433   C     0.32830   0.10192   0.08082   0.00000  Uiso   1.00
C434   C     0.29443   0.13685   0.04877   0.00000  Uiso   1.00
C435   C     0.49889   0.96644   0.02986   0.00000  Uiso   1.00
C436   C     0.54464   0.98129   0.06715   0.00000  Uiso   1.00
C437   C     0.60972   0.96106   0.02884   0.00000  Uiso   1.00
H438   H     0.47387   0.89524   0.87007   0.00000  Uiso   1.00
H439   H     0.44940   0.78340   0.85198   0.00000  Uiso   1.00
H440   H     0.38053   0.00676   0.87574   0.00000  Uiso   1.00
H441   H     0.59684   0.88614   0.86207   0.00000  Uiso   1.00
H442   H     0.41406   0.67435   0.86411   0.00000  Uiso   1.00
H443   H     0.26886   0.14531   0.91421   0.00000  Uiso   1.00
H444   H     0.72499   0.89097   0.88538   0.00000  Uiso   1.00
H445   H     0.41074   0.01028   0.11800   0.00000  Uiso   1.00
H446   H     0.38282   0.90474   0.11352   0.00000  Uiso   1.00
H447   H     0.31394   0.12810   0.13728   0.00000  Uiso   1.00
H448   H     0.53025   0.00748   0.12361   0.00000  Uiso   1.00
H449   H     0.36002   0.77283   0.07639   0.00000  Uiso   1.00
H450   H     0.21482   0.24381   0.12648   0.00000  Uiso   1.00
H451   H     0.67094   0.98946   0.09766   0.00000  Uiso   1.00
O452   O     0.36978   0.65211   0.96283   0.00000  Uiso   1.00
O453   O     0.17930   0.27000   0.02855   0.00000  Uiso   1.00
O454   O     0.77772   0.93631   0.99073   0.00000  Uiso   1.00
N455   N     0.40519   0.71200   0.91468   0.00000  Uiso   1.00
N456   N     0.26943   0.15232   0.96152   0.00000  Uiso   1.00
N457   N     0.69586   0.91455   0.93457   0.00000  Uiso   1.00
N458   N     0.37611   0.76500   0.02891   0.00000  Uiso   1.00
N459   N     0.24035   0.20532   0.07574   0.00000  Uiso   1.00
N460   N     0.66678   0.96755   0.04880   0.00000  Uiso   1.00
C461   C     0.43298   0.29497   0.79116   0.00000  Uiso   1.00
C462   C     0.39201   0.37424   0.85277   0.00000  Uiso   1.00
C463   C     0.38461   0.39788   0.92288   0.00000  Uiso   1.00
C464   C     0.34504   0.47269   0.97132   0.00000  Uiso   1.00
C465   C     0.28612   0.58827   0.07018   0.00000  Uiso   1.00
C466   C     0.38336   0.27435   0.75099   0.00000  Uiso   1.00
C467   C     0.36869   0.21399   0.73552   0.00000  Uiso   1.00
C468   C     0.32184   0.20469   0.69827   0.00000  Uiso   1.00
C469   C     0.24953   0.16515   0.63907   0.00000  Uiso   1.00
C470   C     0.48442   0.29854   0.74323   0.00000  Uiso   1.00
C471   C     0.55473   0.25851   0.72121   0.00000  Uiso   1.00
C472   C     0.59298   0.26957   0.67741   0.00000  Uiso   1.00
C473   C     0.67758   0.26760   0.60616   0.00000  Uiso   1.00
C474   C     0.37587   0.38577   0.75251   0.00000  Uiso   1.00
C475   C     0.36099   0.42356   0.83177   0.00000  Uiso   1.00
C476   C     0.32143   0.49835   0.88012   0.00000  Uiso   1.00
C477   C     0.31397   0.52210   0.95029   0.00000  Uiso   1.00
C478   C     0.35234   0.32367   0.73000   0.00000  Uiso   1.00
C479   C     0.30551   0.31445   0.69276   0.00000  Uiso   1.00
C480   C     0.29077   0.25410   0.67724   0.00000  Uiso   1.00
C481   C     0.45341   0.34786   0.72223   0.00000  Uiso   1.00
C482   C     0.49155   0.35898   0.67845   0.00000  Uiso   1.00
C483   C     0.56190   0.31898   0.65638   0.00000  Uiso   1.00
H484   H     0.45713   0.25657   0.80750   0.00000  Uiso   1.00
H485   H     0.40862   0.35970   0.93910   0.00000  Uiso   1.00
H486   H     0.39271   0.17582   0.75176   0.00000  Uiso   1.00
H487   H     0.57872   0.22035   0.73746   0.00000  Uiso   1.00
H488   H     0.34114   0.49578   0.07575   0.00000  Uiso   1.00
H489   H     0.30761   0.10806   0.68072   0.00000  Uiso   1.00
H490   H     0.69985   0.20195   0.65056   0.00000  Uiso   1.00
H491   H     0.35172   0.42417   0.73616   0.00000  Uiso   1.00
H492   H     0.29743   0.53651   0.86386   0.00000  Uiso   1.00
H493   H     0.28152   0.35263   0.67652   0.00000  Uiso   1.00
H494   H     0.46753   0.39716   0.66222   0.00000  Uiso   1.00
H495   H     0.25089   0.63929   0.01468   0.00000  Uiso   1.00
H496   H     0.21736   0.25156   0.61965   0.00000  Uiso   1.00
H497   H     0.60960   0.34545   0.58949   0.00000  Uiso   1.00
O498   O     0.26218   0.63840   0.13051   0.00000  Uiso   1.00
O499   O     0.21820   0.12972   0.61223   0.00000  Uiso   1.00
O500   O     0.73281   0.25290   0.57267   0.00000  Uiso   1.00
N501   N     0.32736   0.51414   0.04386   0.00000  Uiso   1.00
N502   N     0.29600   0.15165   0.67453   0.00000  Uiso   1.00
N503   N     0.66271   0.23941   0.64632   0.00000  Uiso   1.00
N504   N     0.27880   0.59136   0.01099   0.00000  Uiso   1.00
N505   N     0.24744   0.22887   0.64167   0.00000  Uiso   1.00
N506   N     0.61415   0.31663   0.61346   0.00000  Uiso   1.00
C507   C     0.50349   0.71134   0.38913   0.00000  Uiso   1.00
C508   C     0.45998   0.71407   0.34050   0.00000  Uiso   1.00
C509   C     0.45704   0.75200   0.30588   0.00000  Uiso   1.00
C510   C     0.41409   0.74763   0.26377   0.00000  Uiso   1.00
C511   C     0.35237   0.75811   0.18938   0.00000  Uiso   1.00
C512   C     0.45420   0.73896   0.45862   0.00000  Uiso   1.00
C513   C     0.44640   0.79780   0.52331   0.00000  Uiso   1.00
C514   C     0.39859   0.81437   0.58064   0.00000  Uiso   1.00
C515   C     0.32793   0.86345   0.68964   0.00000  Uiso   1.00
C516   C     0.54761   0.62947   0.35922   0.00000  Uiso   1.00
C517   C     0.61836   0.59625   0.34036   0.00000  Uiso   1.00
C518   C     0.64919   0.52064   0.31402   0.00000  Uiso   1.00
C519   C     0.72357   0.39973   0.26869   0.00000  Uiso   1.00
C520   C     0.43245   0.63614   0.37591   0.00000  Uiso   1.00
C521   C     0.42139   0.67323   0.33332   0.00000  Uiso   1.00
C522   C     0.37844   0.66879   0.29125   0.00000  Uiso   1.00
C523   C     0.37544   0.70670   0.25658   0.00000  Uiso   1.00
C524   C     0.41561   0.69811   0.45144   0.00000  Uiso   1.00
C525   C     0.36781   0.71460   0.50869   0.00000  Uiso   1.00
C526   C     0.35994   0.77345   0.57345   0.00000  Uiso   1.00
C527   C     0.50903   0.58862   0.35204   0.00000  Uiso   1.00
C528   C     0.53976   0.51305   0.32573   0.00000  Uiso   1.00
C529   C     0.61054   0.47972   0.30683   0.00000  Uiso   1.00
H530   H     0.53353   0.74315   0.39473   0.00000  Uiso   1.00
H531   H     0.48690   0.78361   0.31146   0.00000  Uiso   1.00
H532   H     0.47627   0.82940   0.52885   0.00000  Uiso   1.00
H533   H     0.64820   0.62788   0.34593   0.00000  Uiso   1.00
H534   H     0.41817   0.81047   0.21599   0.00000  Uiso   1.00
H535   H     0.39578   0.90701   0.67439   0.00000  Uiso   1.00
H536   H     0.75832   0.48207   0.28865   0.00000  Uiso   1.00
H537   H     0.40241   0.60434   0.37032   0.00000  Uiso   1.00
H538   H     0.34859   0.63718   0.28571   0.00000  Uiso   1.00
H539   H     0.33796   0.68297   0.50311   0.00000  Uiso   1.00
H540   H     0.50988   0.48146   0.32018   0.00000  Uiso   1.00
H541   H     0.30591   0.69163   0.19509   0.00000  Uiso   1.00
H542   H     0.28352   0.78816   0.65349   0.00000  Uiso   1.00
H543   H     0.64605   0.36323   0.26775   0.00000  Uiso   1.00
O544   O     0.32898   0.77518   0.15034   0.00000  Uiso   1.00
O545   O     0.29961   0.90182   0.75174   0.00000  Uiso   1.00
O546   O     0.77525   0.34432   0.24566   0.00000  Uiso   1.00
N547   N     0.39915   0.77798   0.22267   0.00000  Uiso   1.00
N548   N     0.37820   0.86824   0.65125   0.00000  Uiso   1.00
N549   N     0.71715   0.47097   0.29063   0.00000  Uiso   1.00
N550   N     0.33874   0.71404   0.21143   0.00000  Uiso   1.00
N551   N     0.31780   0.80429   0.64000   0.00000  Uiso   1.00
N552   N     0.65674   0.40702   0.27939   0.00000  Uiso   1.00
