data_job_04483
_audit_creation_date              2018-12-19
_audit_creation_method            'Materials Studio'
_symmetry_space_group_name_H-M    'P1'
_symmetry_Int_Tables_number       1
_symmetry_cell_setting            triclinic
loop_
_symmetry_equiv_pos_as_xyz
  x,y,z
_cell_length_a                    13.9682
_cell_length_b                    7.0529
_cell_length_c                    24.0383
_cell_angle_alpha                 90.0000
_cell_angle_beta                  81.8883
_cell_angle_gamma                 90.0000
loop_
_atom_site_label
_atom_site_type_symbol
_atom_site_fract_x
_atom_site_fract_y
_atom_site_fract_z
_atom_site_U_iso_or_equiv
_atom_site_adp_type
_atom_site_occupancy
C1     C     0.75048   0.56935   0.63539   0.00000  Uiso   1.00
C2     C     0.78129   0.43814   0.68007   0.00000  Uiso   1.00
C3     C     0.83499   0.49064   0.72194   0.00000  Uiso   1.00
C4     C     0.85574   0.34964   0.75874   0.00000  Uiso   1.00
C5     C     0.90846   0.17428   0.82884   0.00000  Uiso   1.00
C6     C     0.78932   0.48012   0.57892   0.00000  Uiso   1.00
C7     C     0.84976   0.56793   0.53574   0.00000  Uiso   1.00
C8     C     0.87725   0.46227   0.48739   0.00000  Uiso   1.00
C9     C     0.94238   0.35214   0.40044   0.00000  Uiso   1.00
C10    C     0.64065   0.55423   0.64094   0.00000  Uiso   1.00
C11    C     0.57608   0.70435   0.64990   0.00000  Uiso   1.00
C12    C     0.47839   0.66109   0.65376   0.00000  Uiso   1.00
C13    C     0.31268   0.66602   0.66312   0.00000  Uiso   1.00
C14    C     0.69182   0.22561   0.62628   0.00000  Uiso   1.00
C15    C     0.74943   0.25143   0.67512   0.00000  Uiso   1.00
C16    C     0.77009   0.11032   0.71186   0.00000  Uiso   1.00
C17    C     0.82381   0.16260   0.75378   0.00000  Uiso   1.00
C18    C     0.75746   0.29342   0.57397   0.00000  Uiso   1.00
C19    C     0.78486   0.18761   0.52567   0.00000  Uiso   1.00
C20    C     0.84533   0.27523   0.48243   0.00000  Uiso   1.00
C21    C     0.60878   0.36752   0.63600   0.00000  Uiso   1.00
C22    C     0.51118   0.32403   0.63983   0.00000  Uiso   1.00
C23    C     0.44647   0.47405   0.64880   0.00000  Uiso   1.00
H24    H     0.77529   0.71471   0.63924   0.00000  Uiso   1.00
H25    H     0.85965   0.63514   0.72575   0.00000  Uiso   1.00
H26    H     0.87440   0.71242   0.53958   0.00000  Uiso   1.00
H27    H     0.60076   0.84881   0.65373   0.00000  Uiso   1.00
H28    H     0.93915   0.46456   0.81947   0.00000  Uiso   1.00
H29    H     0.97023   0.62754   0.42691   0.00000  Uiso   1.00
H30    H     0.39320   0.91515   0.66762   0.00000  Uiso   1.00
H31    H     0.66701   0.08024   0.62243   0.00000  Uiso   1.00
H32    H     0.74543   0.96585   0.70803   0.00000  Uiso   1.00
H33    H     0.76018   0.04313   0.52185   0.00000  Uiso   1.00
H34    H     0.48654   0.17953   0.63600   0.00000  Uiso   1.00
H35    H     0.84645   0.92134   0.80508   0.00000  Uiso   1.00
H36    H     0.87752   0.08432   0.41252   0.00000  Uiso   1.00
H37    H     0.30050   0.37193   0.65323   0.00000  Uiso   1.00
O38    O     0.94636   0.12913   0.86887   0.00000  Uiso   1.00
O39    O     0.98712   0.34297   0.35385   0.00000  Uiso   1.00
O40    O     0.23008   0.72031   0.66965   0.00000  Uiso   1.00
N41    N     0.90655   0.35242   0.80434   0.00000  Uiso   1.00
N42    N     0.93562   0.50478   0.43733   0.00000  Uiso   1.00
N43    N     0.39616   0.77369   0.66235   0.00000  Uiso   1.00
N44    N     0.85667   0.06012   0.79660   0.00000  Uiso   1.00
N45    N     0.88574   0.21248   0.42959   0.00000  Uiso   1.00
N46    N     0.34627   0.48139   0.65461   0.00000  Uiso   1.00
C47    C     0.24952   0.56935   0.86461   0.00000  Uiso   1.00
C48    C     0.21871   0.43814   0.81993   0.00000  Uiso   1.00
C49    C     0.16501   0.49064   0.77806   0.00000  Uiso   1.00
C50    C     0.14426   0.34964   0.74126   0.00000  Uiso   1.00
C51    C     0.09154   0.17428   0.67116   0.00000  Uiso   1.00
C52    C     0.21068   0.48012   0.92108   0.00000  Uiso   1.00
C53    C     0.15024   0.56793   0.96426   0.00000  Uiso   1.00
C54    C     0.12275   0.46227   0.01261   0.00000  Uiso   1.00
C55    C     0.05762   0.35214   0.09956   0.00000  Uiso   1.00
C56    C     0.35935   0.55423   0.85906   0.00000  Uiso   1.00
C57    C     0.42392   0.70435   0.85010   0.00000  Uiso   1.00
C58    C     0.52161   0.66109   0.84624   0.00000  Uiso   1.00
C59    C     0.68732   0.66602   0.83688   0.00000  Uiso   1.00
C60    C     0.30818   0.22561   0.87372   0.00000  Uiso   1.00
C61    C     0.25057   0.25143   0.82488   0.00000  Uiso   1.00
C62    C     0.22991   0.11032   0.78814   0.00000  Uiso   1.00
C63    C     0.17619   0.16260   0.74622   0.00000  Uiso   1.00
C64    C     0.24254   0.29342   0.92603   0.00000  Uiso   1.00
C65    C     0.21514   0.18761   0.97433   0.00000  Uiso   1.00
C66    C     0.15467   0.27523   0.01757   0.00000  Uiso   1.00
C67    C     0.39122   0.36752   0.86400   0.00000  Uiso   1.00
C68    C     0.48882   0.32403   0.86017   0.00000  Uiso   1.00
C69    C     0.55353   0.47405   0.85120   0.00000  Uiso   1.00
H70    H     0.22471   0.71471   0.86076   0.00000  Uiso   1.00
H71    H     0.14035   0.63514   0.77425   0.00000  Uiso   1.00
H72    H     0.12560   0.71242   0.96042   0.00000  Uiso   1.00
H73    H     0.39924   0.84881   0.84627   0.00000  Uiso   1.00
H74    H     0.06085   0.46456   0.68053   0.00000  Uiso   1.00
H75    H     0.02977   0.62754   0.07309   0.00000  Uiso   1.00
H76    H     0.60680   0.91515   0.83238   0.00000  Uiso   1.00
H77    H     0.33299   0.08024   0.87757   0.00000  Uiso   1.00
H78    H     0.25457   0.96585   0.79197   0.00000  Uiso   1.00
H79    H     0.23982   0.04313   0.97815   0.00000  Uiso   1.00
H80    H     0.51346   0.17953   0.86400   0.00000  Uiso   1.00
H81    H     0.15355   0.92134   0.69492   0.00000  Uiso   1.00
H82    H     0.12248   0.08432   0.08748   0.00000  Uiso   1.00
H83    H     0.69950   0.37193   0.84677   0.00000  Uiso   1.00
O84    O     0.05364   0.12913   0.63113   0.00000  Uiso   1.00
O85    O     0.01288   0.34297   0.14615   0.00000  Uiso   1.00
O86    O     0.76992   0.72031   0.83035   0.00000  Uiso   1.00
N87    N     0.09345   0.35242   0.69566   0.00000  Uiso   1.00
N88    N     0.06438   0.50478   0.06267   0.00000  Uiso   1.00
N89    N     0.60384   0.77369   0.83765   0.00000  Uiso   1.00
N90    N     0.14333   0.06012   0.70340   0.00000  Uiso   1.00
N91    N     0.11426   0.21248   0.07041   0.00000  Uiso   1.00
N92    N     0.65373   0.48139   0.84539   0.00000  Uiso   1.00
C93    C     0.24952   0.43065   0.36461   0.00000  Uiso   1.00
C94    C     0.21871   0.56186   0.31993   0.00000  Uiso   1.00
C95    C     0.16501   0.50936   0.27806   0.00000  Uiso   1.00
C96    C     0.14426   0.65036   0.24126   0.00000  Uiso   1.00
C97    C     0.09154   0.82572   0.17116   0.00000  Uiso   1.00
C98    C     0.21068   0.51988   0.42108   0.00000  Uiso   1.00
C99    C     0.15024   0.43207   0.46426   0.00000  Uiso   1.00
C100   C     0.12275   0.53773   0.51261   0.00000  Uiso   1.00
C101   C     0.05762   0.64786   0.59956   0.00000  Uiso   1.00
C102   C     0.35935   0.44577   0.35906   0.00000  Uiso   1.00
C103   C     0.42392   0.29565   0.35010   0.00000  Uiso   1.00
C104   C     0.52161   0.33891   0.34624   0.00000  Uiso   1.00
C105   C     0.68732   0.33398   0.33688   0.00000  Uiso   1.00
C106   C     0.30818   0.77439   0.37372   0.00000  Uiso   1.00
C107   C     0.25057   0.74857   0.32488   0.00000  Uiso   1.00
C108   C     0.22991   0.88968   0.28814   0.00000  Uiso   1.00
C109   C     0.17619   0.83740   0.24622   0.00000  Uiso   1.00
C110   C     0.24254   0.70658   0.42603   0.00000  Uiso   1.00
C111   C     0.21514   0.81239   0.47433   0.00000  Uiso   1.00
C112   C     0.15467   0.72477   0.51757   0.00000  Uiso   1.00
C113   C     0.39122   0.63248   0.36400   0.00000  Uiso   1.00
C114   C     0.48882   0.67597   0.36017   0.00000  Uiso   1.00
C115   C     0.55353   0.52595   0.35120   0.00000  Uiso   1.00
H116   H     0.22471   0.28529   0.36076   0.00000  Uiso   1.00
H117   H     0.14035   0.36486   0.27425   0.00000  Uiso   1.00
H118   H     0.12560   0.28758   0.46042   0.00000  Uiso   1.00
H119   H     0.39924   0.15119   0.34627   0.00000  Uiso   1.00
H120   H     0.06085   0.53544   0.18053   0.00000  Uiso   1.00
H121   H     0.02977   0.37246   0.57309   0.00000  Uiso   1.00
H122   H     0.60680   0.08485   0.33238   0.00000  Uiso   1.00
H123   H     0.33299   0.91976   0.37757   0.00000  Uiso   1.00
H124   H     0.25457   0.03415   0.29197   0.00000  Uiso   1.00
H125   H     0.23982   0.95687   0.47815   0.00000  Uiso   1.00
H126   H     0.51346   0.82047   0.36400   0.00000  Uiso   1.00
H127   H     0.15355   0.07866   0.19492   0.00000  Uiso   1.00
H128   H     0.12248   0.91568   0.58748   0.00000  Uiso   1.00
H129   H     0.69950   0.62807   0.34677   0.00000  Uiso   1.00
O130   O     0.05364   0.87087   0.13113   0.00000  Uiso   1.00
O131   O     0.01288   0.65703   0.64615   0.00000  Uiso   1.00
O132   O     0.76992   0.27969   0.33035   0.00000  Uiso   1.00
N133   N     0.09345   0.64758   0.19566   0.00000  Uiso   1.00
N134   N     0.06438   0.49522   0.56267   0.00000  Uiso   1.00
N135   N     0.60384   0.22631   0.33765   0.00000  Uiso   1.00
N136   N     0.14333   0.93988   0.20340   0.00000  Uiso   1.00
N137   N     0.11426   0.78752   0.57041   0.00000  Uiso   1.00
N138   N     0.65373   0.51861   0.34539   0.00000  Uiso   1.00
C139   C     0.75048   0.43065   0.13539   0.00000  Uiso   1.00
C140   C     0.78129   0.56186   0.18007   0.00000  Uiso   1.00
C141   C     0.83499   0.50936   0.22194   0.00000  Uiso   1.00
C142   C     0.85574   0.65036   0.25874   0.00000  Uiso   1.00
C143   C     0.90846   0.82572   0.32884   0.00000  Uiso   1.00
C144   C     0.78932   0.51988   0.07892   0.00000  Uiso   1.00
C145   C     0.84976   0.43207   0.03574   0.00000  Uiso   1.00
C146   C     0.87725   0.53773   0.98739   0.00000  Uiso   1.00
C147   C     0.94238   0.64786   0.90044   0.00000  Uiso   1.00
C148   C     0.64065   0.44577   0.14094   0.00000  Uiso   1.00
C149   C     0.57608   0.29565   0.14990   0.00000  Uiso   1.00
C150   C     0.47839   0.33891   0.15376   0.00000  Uiso   1.00
C151   C     0.31268   0.33398   0.16312   0.00000  Uiso   1.00
C152   C     0.69182   0.77439   0.12628   0.00000  Uiso   1.00
C153   C     0.74943   0.74857   0.17512   0.00000  Uiso   1.00
C154   C     0.77009   0.88968   0.21186   0.00000  Uiso   1.00
C155   C     0.82381   0.83740   0.25378   0.00000  Uiso   1.00
C156   C     0.75746   0.70658   0.07397   0.00000  Uiso   1.00
C157   C     0.78486   0.81239   0.02567   0.00000  Uiso   1.00
C158   C     0.84533   0.72477   0.98243   0.00000  Uiso   1.00
C159   C     0.60878   0.63248   0.13600   0.00000  Uiso   1.00
C160   C     0.51118   0.67597   0.13983   0.00000  Uiso   1.00
C161   C     0.44647   0.52595   0.14880   0.00000  Uiso   1.00
H162   H     0.77529   0.28529   0.13924   0.00000  Uiso   1.00
H163   H     0.85965   0.36486   0.22575   0.00000  Uiso   1.00
H164   H     0.87440   0.28758   0.03958   0.00000  Uiso   1.00
H165   H     0.60076   0.15119   0.15373   0.00000  Uiso   1.00
H166   H     0.93915   0.53544   0.31947   0.00000  Uiso   1.00
H167   H     0.97023   0.37246   0.92691   0.00000  Uiso   1.00
H168   H     0.39320   0.08485   0.16762   0.00000  Uiso   1.00
H169   H     0.66701   0.91976   0.12243   0.00000  Uiso   1.00
H170   H     0.74543   0.03415   0.20803   0.00000  Uiso   1.00
H171   H     0.76018   0.95687   0.02185   0.00000  Uiso   1.00
H172   H     0.48654   0.82047   0.13600   0.00000  Uiso   1.00
H173   H     0.84645   0.07866   0.30508   0.00000  Uiso   1.00
H174   H     0.87752   0.91568   0.91252   0.00000  Uiso   1.00
H175   H     0.30050   0.62807   0.15323   0.00000  Uiso   1.00
O176   O     0.94636   0.87087   0.36887   0.00000  Uiso   1.00
O177   O     0.98712   0.65703   0.85385   0.00000  Uiso   1.00
O178   O     0.23008   0.27969   0.16965   0.00000  Uiso   1.00
N179   N     0.90655   0.64758   0.30434   0.00000  Uiso   1.00
N180   N     0.93562   0.49522   0.93733   0.00000  Uiso   1.00
N181   N     0.39616   0.22631   0.16235   0.00000  Uiso   1.00
N182   N     0.85667   0.93988   0.29660   0.00000  Uiso   1.00
N183   N     0.88574   0.78752   0.92959   0.00000  Uiso   1.00
N184   N     0.34627   0.51861   0.15461   0.00000  Uiso   1.00
