data_job_03498
_audit_creation_date              2018-12-19
_audit_creation_method            'Materials Studio'
_symmetry_space_group_name_H-M    'P1'
_symmetry_Int_Tables_number       1
_symmetry_cell_setting            triclinic
loop_
_symmetry_equiv_pos_as_xyz
  x,y,z
_cell_length_a                    16.3652
_cell_length_b                    16.3652
_cell_length_c                    18.3080
_cell_angle_alpha                 90.0000
_cell_angle_beta                  90.0000
_cell_angle_gamma                 120.0000
loop_
_atom_site_label
_atom_site_type_symbol
_atom_site_fract_x
_atom_site_fract_y
_atom_site_fract_z
_atom_site_U_iso_or_equiv
_atom_site_adp_type
_atom_site_occupancy
C1     C     0.20029   0.36862   0.74869   0.00000  Uiso   1.00
C2     C     0.17332   0.41491   0.68830   0.00000  Uiso   1.00
C3     C     0.19397   0.50812   0.68727   0.00000  Uiso   1.00
C4     C     0.16313   0.53691   0.62711   0.00000  Uiso   1.00
C5     C     0.12877   0.61824   0.54203   0.00000  Uiso   1.00
C6     C     0.10832   0.28349   0.77409   0.00000  Uiso   1.00
C7     C     0.07433   0.26621   0.84518   0.00000  Uiso   1.00
C8     C     0.98877   0.18436   0.85723   0.00000  Uiso   1.00
C9     C     0.85353   0.06164   0.90534   0.00000  Uiso   1.00
C10    C     0.25652   0.32890   0.71174   0.00000  Uiso   1.00
C11    C     0.34713   0.34977   0.73042   0.00000  Uiso   1.00
C12    C     0.38634   0.30613   0.68999   0.00000  Uiso   1.00
C13    C     0.48121   0.25391   0.64130   0.00000  Uiso   1.00
C14    C     0.10879   0.25399   0.64369   0.00000  Uiso   1.00
C15    C     0.12362   0.35264   0.63127   0.00000  Uiso   1.00
C16    C     0.09274   0.38130   0.57110   0.00000  Uiso   1.00
C17    C     0.11335   0.47454   0.56997   0.00000  Uiso   1.00
C18    C     0.05862   0.22123   0.71706   0.00000  Uiso   1.00
C19    C     0.97310   0.13939   0.72901   0.00000  Uiso   1.00
C20    C     0.93898   0.12199   0.80010   0.00000  Uiso   1.00
C21    C     0.20683   0.26664   0.65471   0.00000  Uiso   1.00
C22    C     0.24590   0.22295   0.61425   0.00000  Uiso   1.00
C23    C     0.33655   0.24376   0.63286   0.00000  Uiso   1.00
H24    H     0.23898   0.41708   0.79310   0.00000  Uiso   1.00
H25    H     0.23243   0.55627   0.73142   0.00000  Uiso   1.00
H26    H     0.11281   0.31440   0.88930   0.00000  Uiso   1.00
H27    H     0.38557   0.39795   0.77456   0.00000  Uiso   1.00
H28    H     0.20322   0.68313   0.63790   0.00000  Uiso   1.00
H29    H     0.95101   0.17310   0.97081   0.00000  Uiso   1.00
H30    H     0.52618   0.34928   0.72885   0.00000  Uiso   1.00
H31    H     0.07010   0.20552   0.59929   0.00000  Uiso   1.00
H32    H     0.05428   0.33310   0.52697   0.00000  Uiso   1.00
H33    H     0.93466   0.09123   0.68486   0.00000  Uiso   1.00
H34    H     0.20742   0.17478   0.57011   0.00000  Uiso   1.00
H35    H     0.05862   0.50199   0.47196   0.00000  Uiso   1.00
H36    H     0.80642   0.99196   0.80487   0.00000  Uiso   1.00
H37    H     0.38159   0.16815   0.56292   0.00000  Uiso   1.00
O38    O     0.12353   0.68030   0.51087   0.00000  Uiso   1.00
O39    O     0.79266   0.01116   0.94763   0.00000  Uiso   1.00
O40    O     0.54727   0.24231   0.63019   0.00000  Uiso   1.00
N41    N     0.17137   0.62299   0.60876   0.00000  Uiso   1.00
N42    N     0.93557   0.14616   0.92001   0.00000  Uiso   1.00
N43    N     0.47329   0.31085   0.69382   0.00000  Uiso   1.00
N44    N     0.09357   0.52553   0.51947   0.00000  Uiso   1.00
N45    N     0.85777   0.04869   0.83072   0.00000  Uiso   1.00
N46    N     0.39549   0.21339   0.60453   0.00000  Uiso   1.00
C47    C     0.63138   0.83167   0.74869   0.00000  Uiso   1.00
C48    C     0.58509   0.75841   0.68830   0.00000  Uiso   1.00
C49    C     0.49188   0.68586   0.68727   0.00000  Uiso   1.00
C50    C     0.46309   0.62622   0.62711   0.00000  Uiso   1.00
C51    C     0.38176   0.51053   0.54203   0.00000  Uiso   1.00
C52    C     0.71651   0.82483   0.77409   0.00000  Uiso   1.00
C53    C     0.73379   0.80812   0.84518   0.00000  Uiso   1.00
C54    C     0.81564   0.80441   0.85723   0.00000  Uiso   1.00
C55    C     0.93836   0.79189   0.90534   0.00000  Uiso   1.00
C56    C     0.67110   0.92762   0.71174   0.00000  Uiso   1.00
C57    C     0.65023   0.99737   0.73042   0.00000  Uiso   1.00
C58    C     0.69387   0.08021   0.68999   0.00000  Uiso   1.00
C59    C     0.74609   0.22730   0.64130   0.00000  Uiso   1.00
C60    C     0.74601   0.85480   0.64369   0.00000  Uiso   1.00
C61    C     0.64736   0.77098   0.63127   0.00000  Uiso   1.00
C62    C     0.61870   0.71144   0.57110   0.00000  Uiso   1.00
C63    C     0.52546   0.63881   0.56997   0.00000  Uiso   1.00
C64    C     0.77877   0.83739   0.71706   0.00000  Uiso   1.00
C65    C     0.86061   0.83371   0.72901   0.00000  Uiso   1.00
C66    C     0.87801   0.81699   0.80010   0.00000  Uiso   1.00
C67    C     0.73336   0.94019   0.65471   0.00000  Uiso   1.00
C68    C     0.77705   0.02295   0.61425   0.00000  Uiso   1.00
C69    C     0.75624   0.09280   0.63286   0.00000  Uiso   1.00
H70    H     0.58292   0.82189   0.79310   0.00000  Uiso   1.00
H71    H     0.44373   0.67615   0.73142   0.00000  Uiso   1.00
H72    H     0.68560   0.79841   0.88930   0.00000  Uiso   1.00
H73    H     0.60205   0.98762   0.77456   0.00000  Uiso   1.00
H74    H     0.31687   0.52009   0.63790   0.00000  Uiso   1.00
H75    H     0.82690   0.77791   0.97081   0.00000  Uiso   1.00
H76    H     0.65072   0.17689   0.72885   0.00000  Uiso   1.00
H77    H     0.79448   0.86458   0.59929   0.00000  Uiso   1.00
H78    H     0.66690   0.72118   0.52697   0.00000  Uiso   1.00
H79    H     0.90877   0.84344   0.68486   0.00000  Uiso   1.00
H80    H     0.82522   0.03264   0.57011   0.00000  Uiso   1.00
H81    H     0.49801   0.55663   0.47196   0.00000  Uiso   1.00
H82    H     0.00804   0.81446   0.80487   0.00000  Uiso   1.00
H83    H     0.83185   0.21344   0.56292   0.00000  Uiso   1.00
O84    O     0.31970   0.44324   0.51087   0.00000  Uiso   1.00
O85    O     0.98884   0.78151   0.94763   0.00000  Uiso   1.00
O86    O     0.75769   0.30496   0.63019   0.00000  Uiso   1.00
N87    N     0.37701   0.54838   0.60876   0.00000  Uiso   1.00
N88    N     0.85384   0.78941   0.92001   0.00000  Uiso   1.00
N89    N     0.68915   0.16244   0.69382   0.00000  Uiso   1.00
N90    N     0.47447   0.56805   0.51947   0.00000  Uiso   1.00
N91    N     0.95131   0.80908   0.83072   0.00000  Uiso   1.00
N92    N     0.78661   0.18210   0.60453   0.00000  Uiso   1.00
C93    C     0.16833   0.79971   0.74869   0.00000  Uiso   1.00
C94    C     0.24159   0.82668   0.68830   0.00000  Uiso   1.00
C95    C     0.31414   0.80603   0.68727   0.00000  Uiso   1.00
C96    C     0.37378   0.83687   0.62711   0.00000  Uiso   1.00
C97    C     0.48947   0.87123   0.54203   0.00000  Uiso   1.00
C98    C     0.17517   0.89168   0.77409   0.00000  Uiso   1.00
C99    C     0.19188   0.92567   0.84518   0.00000  Uiso   1.00
C100   C     0.19559   0.01123   0.85723   0.00000  Uiso   1.00
C101   C     0.20811   0.14647   0.90534   0.00000  Uiso   1.00
C102   C     0.07238   0.74348   0.71174   0.00000  Uiso   1.00
C103   C     0.00263   0.65287   0.73042   0.00000  Uiso   1.00
C104   C     0.91979   0.61366   0.68999   0.00000  Uiso   1.00
C105   C     0.77270   0.51879   0.64130   0.00000  Uiso   1.00
C106   C     0.14520   0.89121   0.64369   0.00000  Uiso   1.00
C107   C     0.22902   0.87638   0.63127   0.00000  Uiso   1.00
C108   C     0.28856   0.90726   0.57110   0.00000  Uiso   1.00
C109   C     0.36119   0.88665   0.56997   0.00000  Uiso   1.00
C110   C     0.16261   0.94138   0.71706   0.00000  Uiso   1.00
C111   C     0.16629   0.02690   0.72901   0.00000  Uiso   1.00
C112   C     0.18301   0.06102   0.80010   0.00000  Uiso   1.00
C113   C     0.05981   0.79317   0.65471   0.00000  Uiso   1.00
C114   C     0.97705   0.75410   0.61425   0.00000  Uiso   1.00
C115   C     0.90720   0.66345   0.63286   0.00000  Uiso   1.00
H116   H     0.17811   0.76102   0.79310   0.00000  Uiso   1.00
H117   H     0.32385   0.76757   0.73142   0.00000  Uiso   1.00
H118   H     0.20159   0.88719   0.88930   0.00000  Uiso   1.00
H119   H     0.01238   0.61443   0.77456   0.00000  Uiso   1.00
H120   H     0.47991   0.79678   0.63790   0.00000  Uiso   1.00
H121   H     0.22209   0.04899   0.97081   0.00000  Uiso   1.00
H122   H     0.82311   0.47382   0.72885   0.00000  Uiso   1.00
H123   H     0.13542   0.92990   0.59929   0.00000  Uiso   1.00
H124   H     0.27882   0.94572   0.52697   0.00000  Uiso   1.00
H125   H     0.15656   0.06534   0.68486   0.00000  Uiso   1.00
H126   H     0.96736   0.79258   0.57011   0.00000  Uiso   1.00
H127   H     0.44337   0.94138   0.47196   0.00000  Uiso   1.00
H128   H     0.18554   0.19358   0.80487   0.00000  Uiso   1.00
H129   H     0.78656   0.61841   0.56292   0.00000  Uiso   1.00
O130   O     0.55676   0.87647   0.51087   0.00000  Uiso   1.00
O131   O     0.21849   0.20734   0.94763   0.00000  Uiso   1.00
O132   O     0.69504   0.45273   0.63019   0.00000  Uiso   1.00
N133   N     0.45162   0.82863   0.60876   0.00000  Uiso   1.00
N134   N     0.21059   0.06443   0.92001   0.00000  Uiso   1.00
N135   N     0.83756   0.52671   0.69382   0.00000  Uiso   1.00
N136   N     0.43195   0.90643   0.51947   0.00000  Uiso   1.00
N137   N     0.19092   0.14223   0.83072   0.00000  Uiso   1.00
N138   N     0.81790   0.60451   0.60453   0.00000  Uiso   1.00
C139   C     0.79971   0.63138   0.25131   0.00000  Uiso   1.00
C140   C     0.82668   0.58509   0.31170   0.00000  Uiso   1.00
C141   C     0.80603   0.49188   0.31273   0.00000  Uiso   1.00
C142   C     0.83687   0.46309   0.37289   0.00000  Uiso   1.00
C143   C     0.87123   0.38176   0.45797   0.00000  Uiso   1.00
C144   C     0.89168   0.71651   0.22591   0.00000  Uiso   1.00
C145   C     0.92567   0.73379   0.15482   0.00000  Uiso   1.00
C146   C     0.01123   0.81564   0.14277   0.00000  Uiso   1.00
C147   C     0.14647   0.93836   0.09466   0.00000  Uiso   1.00
C148   C     0.74348   0.67110   0.28826   0.00000  Uiso   1.00
C149   C     0.65287   0.65023   0.26958   0.00000  Uiso   1.00
C150   C     0.61366   0.69387   0.31001   0.00000  Uiso   1.00
C151   C     0.51879   0.74609   0.35870   0.00000  Uiso   1.00
C152   C     0.89121   0.74601   0.35631   0.00000  Uiso   1.00
C153   C     0.87638   0.64736   0.36873   0.00000  Uiso   1.00
C154   C     0.90726   0.61870   0.42890   0.00000  Uiso   1.00
C155   C     0.88665   0.52546   0.43003   0.00000  Uiso   1.00
C156   C     0.94138   0.77877   0.28294   0.00000  Uiso   1.00
C157   C     0.02690   0.86061   0.27099   0.00000  Uiso   1.00
C158   C     0.06102   0.87801   0.19990   0.00000  Uiso   1.00
C159   C     0.79317   0.73336   0.34529   0.00000  Uiso   1.00
C160   C     0.75410   0.77705   0.38575   0.00000  Uiso   1.00
C161   C     0.66345   0.75624   0.36714   0.00000  Uiso   1.00
H162   H     0.76102   0.58292   0.20690   0.00000  Uiso   1.00
H163   H     0.76757   0.44373   0.26858   0.00000  Uiso   1.00
H164   H     0.88719   0.68560   0.11070   0.00000  Uiso   1.00
H165   H     0.61443   0.60205   0.22544   0.00000  Uiso   1.00
H166   H     0.79678   0.31687   0.36210   0.00000  Uiso   1.00
H167   H     0.04899   0.82690   0.02919   0.00000  Uiso   1.00
H168   H     0.47382   0.65072   0.27115   0.00000  Uiso   1.00
H169   H     0.92990   0.79448   0.40071   0.00000  Uiso   1.00
H170   H     0.94572   0.66690   0.47303   0.00000  Uiso   1.00
H171   H     0.06534   0.90877   0.31514   0.00000  Uiso   1.00
H172   H     0.79258   0.82522   0.42989   0.00000  Uiso   1.00
H173   H     0.94138   0.49801   0.52804   0.00000  Uiso   1.00
H174   H     0.19358   0.00804   0.19513   0.00000  Uiso   1.00
H175   H     0.61841   0.83185   0.43708   0.00000  Uiso   1.00
O176   O     0.87647   0.31970   0.48913   0.00000  Uiso   1.00
O177   O     0.20734   0.98884   0.05237   0.00000  Uiso   1.00
O178   O     0.45273   0.75769   0.36981   0.00000  Uiso   1.00
N179   N     0.82863   0.37701   0.39124   0.00000  Uiso   1.00
N180   N     0.06443   0.85384   0.07999   0.00000  Uiso   1.00
N181   N     0.52671   0.68915   0.30618   0.00000  Uiso   1.00
N182   N     0.90643   0.47447   0.48053   0.00000  Uiso   1.00
N183   N     0.14223   0.95131   0.16928   0.00000  Uiso   1.00
N184   N     0.60451   0.78661   0.39547   0.00000  Uiso   1.00
C185   C     0.36862   0.16833   0.25131   0.00000  Uiso   1.00
C186   C     0.41491   0.24159   0.31170   0.00000  Uiso   1.00
C187   C     0.50812   0.31414   0.31273   0.00000  Uiso   1.00
C188   C     0.53691   0.37378   0.37289   0.00000  Uiso   1.00
C189   C     0.61824   0.48947   0.45797   0.00000  Uiso   1.00
C190   C     0.28349   0.17517   0.22591   0.00000  Uiso   1.00
C191   C     0.26621   0.19188   0.15482   0.00000  Uiso   1.00
C192   C     0.18436   0.19559   0.14277   0.00000  Uiso   1.00
C193   C     0.06164   0.20811   0.09466   0.00000  Uiso   1.00
C194   C     0.32890   0.07238   0.28826   0.00000  Uiso   1.00
C195   C     0.34977   0.00263   0.26958   0.00000  Uiso   1.00
C196   C     0.30613   0.91979   0.31001   0.00000  Uiso   1.00
C197   C     0.25391   0.77270   0.35870   0.00000  Uiso   1.00
C198   C     0.25399   0.14520   0.35631   0.00000  Uiso   1.00
C199   C     0.35264   0.22902   0.36873   0.00000  Uiso   1.00
C200   C     0.38130   0.28856   0.42890   0.00000  Uiso   1.00
C201   C     0.47454   0.36119   0.43003   0.00000  Uiso   1.00
C202   C     0.22123   0.16261   0.28294   0.00000  Uiso   1.00
C203   C     0.13939   0.16629   0.27099   0.00000  Uiso   1.00
C204   C     0.12199   0.18301   0.19990   0.00000  Uiso   1.00
C205   C     0.26664   0.05981   0.34529   0.00000  Uiso   1.00
C206   C     0.22295   0.97705   0.38575   0.00000  Uiso   1.00
C207   C     0.24376   0.90720   0.36714   0.00000  Uiso   1.00
H208   H     0.41708   0.17811   0.20690   0.00000  Uiso   1.00
H209   H     0.55627   0.32385   0.26858   0.00000  Uiso   1.00
H210   H     0.31440   0.20159   0.11070   0.00000  Uiso   1.00
H211   H     0.39795   0.01238   0.22544   0.00000  Uiso   1.00
H212   H     0.68313   0.47991   0.36210   0.00000  Uiso   1.00
H213   H     0.17310   0.22209   0.02919   0.00000  Uiso   1.00
H214   H     0.34928   0.82311   0.27115   0.00000  Uiso   1.00
H215   H     0.20552   0.13542   0.40071   0.00000  Uiso   1.00
H216   H     0.33310   0.27882   0.47303   0.00000  Uiso   1.00
H217   H     0.09123   0.15656   0.31514   0.00000  Uiso   1.00
H218   H     0.17478   0.96736   0.42989   0.00000  Uiso   1.00
H219   H     0.50199   0.44337   0.52804   0.00000  Uiso   1.00
H220   H     0.99196   0.18554   0.19513   0.00000  Uiso   1.00
H221   H     0.16815   0.78656   0.43708   0.00000  Uiso   1.00
O222   O     0.68030   0.55676   0.48913   0.00000  Uiso   1.00
O223   O     0.01116   0.21849   0.05237   0.00000  Uiso   1.00
O224   O     0.24231   0.69504   0.36981   0.00000  Uiso   1.00
N225   N     0.62299   0.45162   0.39124   0.00000  Uiso   1.00
N226   N     0.14616   0.21059   0.07999   0.00000  Uiso   1.00
N227   N     0.31085   0.83756   0.30618   0.00000  Uiso   1.00
N228   N     0.52553   0.43195   0.48053   0.00000  Uiso   1.00
N229   N     0.04869   0.19092   0.16928   0.00000  Uiso   1.00
N230   N     0.21339   0.81790   0.39547   0.00000  Uiso   1.00
C231   C     0.83167   0.20029   0.25131   0.00000  Uiso   1.00
C232   C     0.75841   0.17332   0.31170   0.00000  Uiso   1.00
C233   C     0.68586   0.19397   0.31273   0.00000  Uiso   1.00
C234   C     0.62622   0.16313   0.37289   0.00000  Uiso   1.00
C235   C     0.51053   0.12877   0.45797   0.00000  Uiso   1.00
C236   C     0.82483   0.10832   0.22591   0.00000  Uiso   1.00
C237   C     0.80812   0.07433   0.15482   0.00000  Uiso   1.00
C238   C     0.80441   0.98877   0.14277   0.00000  Uiso   1.00
C239   C     0.79189   0.85353   0.09466   0.00000  Uiso   1.00
C240   C     0.92762   0.25652   0.28826   0.00000  Uiso   1.00
C241   C     0.99737   0.34713   0.26958   0.00000  Uiso   1.00
C242   C     0.08021   0.38634   0.31001   0.00000  Uiso   1.00
C243   C     0.22730   0.48121   0.35870   0.00000  Uiso   1.00
C244   C     0.85480   0.10879   0.35631   0.00000  Uiso   1.00
C245   C     0.77098   0.12362   0.36873   0.00000  Uiso   1.00
C246   C     0.71144   0.09274   0.42890   0.00000  Uiso   1.00
C247   C     0.63881   0.11335   0.43003   0.00000  Uiso   1.00
C248   C     0.83739   0.05862   0.28294   0.00000  Uiso   1.00
C249   C     0.83371   0.97310   0.27099   0.00000  Uiso   1.00
C250   C     0.81699   0.93898   0.19990   0.00000  Uiso   1.00
C251   C     0.94019   0.20683   0.34529   0.00000  Uiso   1.00
C252   C     0.02295   0.24590   0.38575   0.00000  Uiso   1.00
C253   C     0.09280   0.33655   0.36714   0.00000  Uiso   1.00
H254   H     0.82189   0.23898   0.20690   0.00000  Uiso   1.00
H255   H     0.67615   0.23243   0.26858   0.00000  Uiso   1.00
H256   H     0.79841   0.11281   0.11070   0.00000  Uiso   1.00
H257   H     0.98762   0.38557   0.22544   0.00000  Uiso   1.00
H258   H     0.52009   0.20322   0.36210   0.00000  Uiso   1.00
H259   H     0.77791   0.95101   0.02919   0.00000  Uiso   1.00
H260   H     0.17689   0.52618   0.27115   0.00000  Uiso   1.00
H261   H     0.86458   0.07010   0.40071   0.00000  Uiso   1.00
H262   H     0.72118   0.05428   0.47303   0.00000  Uiso   1.00
H263   H     0.84344   0.93466   0.31514   0.00000  Uiso   1.00
H264   H     0.03264   0.20742   0.42989   0.00000  Uiso   1.00
H265   H     0.55663   0.05862   0.52804   0.00000  Uiso   1.00
H266   H     0.81446   0.80642   0.19513   0.00000  Uiso   1.00
H267   H     0.21344   0.38159   0.43708   0.00000  Uiso   1.00
O268   O     0.44324   0.12353   0.48913   0.00000  Uiso   1.00
O269   O     0.78151   0.79266   0.05237   0.00000  Uiso   1.00
O270   O     0.30496   0.54727   0.36981   0.00000  Uiso   1.00
N271   N     0.54838   0.17137   0.39124   0.00000  Uiso   1.00
N272   N     0.78941   0.93557   0.07999   0.00000  Uiso   1.00
N273   N     0.16244   0.47329   0.30618   0.00000  Uiso   1.00
N274   N     0.56805   0.09357   0.48053   0.00000  Uiso   1.00
N275   N     0.80908   0.85777   0.16928   0.00000  Uiso   1.00
N276   N     0.18210   0.39549   0.39547   0.00000  Uiso   1.00
