data_job_01121
_audit_creation_date              2018-12-19
_audit_creation_method            'Materials Studio'
_symmetry_space_group_name_H-M    'P1'
_symmetry_Int_Tables_number       1
_symmetry_cell_setting            triclinic
loop_
_symmetry_equiv_pos_as_xyz
  x,y,z
_cell_length_a                    15.6959
_cell_length_b                    13.5649
_cell_length_c                    12.2354
_cell_angle_alpha                 90.0000
_cell_angle_beta                  76.0386
_cell_angle_gamma                 90.0000
loop_
_atom_site_label
_atom_site_type_symbol
_atom_site_fract_x
_atom_site_fract_y
_atom_site_fract_z
_atom_site_U_iso_or_equiv
_atom_site_adp_type
_atom_site_occupancy
C1     C     0.21625   0.15061   0.21019   0.00000  Uiso   1.00
C2     C     0.19529   0.06488   0.14039   0.00000  Uiso   1.00
C3     C     0.14427   0.07016   0.06240   0.00000  Uiso   1.00
C4     C     0.13287   0.98349   0.00727   0.00000  Uiso   1.00
C5     C     0.09446   0.86386   0.89556   0.00000  Uiso   1.00
C6     C     0.18563   0.11875   0.33295   0.00000  Uiso   1.00
C7     C     0.12651   0.16933   0.41685   0.00000  Uiso   1.00
C8     C     0.10699   0.12800   0.52383   0.00000  Uiso   1.00
C9     C     0.05364   0.09205   0.71108   0.00000  Uiso   1.00
C10    C     0.31612   0.15626   0.18520   0.00000  Uiso   1.00
C11    C     0.36671   0.23840   0.14490   0.00000  Uiso   1.00
C12    C     0.45705   0.22866   0.12750   0.00000  Uiso   1.00
C13    C     0.60630   0.25095   0.08535   0.00000  Uiso   1.00
C14    C     0.28673   0.98728   0.25099   0.00000  Uiso   1.00
C15    C     0.23357   0.97617   0.16256   0.00000  Uiso   1.00
C16    C     0.22224   0.88946   0.10753   0.00000  Uiso   1.00
C17    C     0.17122   0.89462   0.02946   0.00000  Uiso   1.00
C18    C     0.22391   0.03004   0.35511   0.00000  Uiso   1.00
C19    C     0.20448   0.98863   0.46199   0.00000  Uiso   1.00
C20    C     0.14534   0.03913   0.54603   0.00000  Uiso   1.00
C21    C     0.35440   0.06755   0.20736   0.00000  Uiso   1.00
C22    C     0.44468   0.05769   0.19003   0.00000  Uiso   1.00
C23    C     0.49540   0.13979   0.14971   0.00000  Uiso   1.00
H24    H     0.18645   0.21967   0.19295   0.00000  Uiso   1.00
H25    H     0.11465   0.13883   0.04528   0.00000  Uiso   1.00
H26    H     0.09690   0.23798   0.39968   0.00000  Uiso   1.00
H27    H     0.33707   0.30703   0.12776   0.00000  Uiso   1.00
H28    H     0.05191   0.01007   0.89136   0.00000  Uiso   1.00
H29    H     0.01450   0.21916   0.63864   0.00000  Uiso   1.00
H30    H     0.52094   0.36477   0.06526   0.00000  Uiso   1.00
H31    H     0.31653   0.91821   0.26825   0.00000  Uiso   1.00
H32    H     0.25187   0.82082   0.12470   0.00000  Uiso   1.00
H33    H     0.23412   0.91998   0.47911   0.00000  Uiso   1.00
H34    H     0.47428   0.98903   0.20719   0.00000  Uiso   1.00
H35    H     0.16328   0.75196   0.95583   0.00000  Uiso   1.00
H36    H     0.12588   0.96106   0.70312   0.00000  Uiso   1.00
H37    H     0.63231   0.10666   0.12973   0.00000  Uiso   1.00
O38    O     0.06269   0.82238   0.82784   0.00000  Uiso   1.00
O39    O     0.01363   0.09672   0.80825   0.00000  Uiso   1.00
O40    O     0.67805   0.28775   0.05597   0.00000  Uiso   1.00
N41    N     0.08701   0.96269   0.92622   0.00000  Uiso   1.00
N42    N     0.05203   0.15817   0.62488   0.00000  Uiso   1.00
N43    N     0.52549   0.29431   0.08884   0.00000  Uiso   1.00
N44    N     0.14693   0.82381   0.96090   0.00000  Uiso   1.00
N45    N     0.11195   0.01929   0.65957   0.00000  Uiso   1.00
N46    N     0.58542   0.15543   0.12353   0.00000  Uiso   1.00
C47    C     0.78375   0.65061   0.28981   0.00000  Uiso   1.00
C48    C     0.80471   0.56488   0.35961   0.00000  Uiso   1.00
C49    C     0.85573   0.57016   0.43760   0.00000  Uiso   1.00
C50    C     0.86713   0.48349   0.49273   0.00000  Uiso   1.00
C51    C     0.90554   0.36386   0.60444   0.00000  Uiso   1.00
C52    C     0.81437   0.61875   0.16705   0.00000  Uiso   1.00
C53    C     0.87349   0.66933   0.08315   0.00000  Uiso   1.00
C54    C     0.89301   0.62800   0.97617   0.00000  Uiso   1.00
C55    C     0.94636   0.59205   0.78892   0.00000  Uiso   1.00
C56    C     0.68388   0.65626   0.31480   0.00000  Uiso   1.00
C57    C     0.63329   0.73840   0.35510   0.00000  Uiso   1.00
C58    C     0.54295   0.72866   0.37250   0.00000  Uiso   1.00
C59    C     0.39370   0.75095   0.41465   0.00000  Uiso   1.00
C60    C     0.71327   0.48728   0.24901   0.00000  Uiso   1.00
C61    C     0.76643   0.47617   0.33744   0.00000  Uiso   1.00
C62    C     0.77776   0.38946   0.39247   0.00000  Uiso   1.00
C63    C     0.82878   0.39462   0.47054   0.00000  Uiso   1.00
C64    C     0.77609   0.53004   0.14489   0.00000  Uiso   1.00
C65    C     0.79552   0.48863   0.03801   0.00000  Uiso   1.00
C66    C     0.85466   0.53913   0.95397   0.00000  Uiso   1.00
C67    C     0.64560   0.56755   0.29264   0.00000  Uiso   1.00
C68    C     0.55532   0.55769   0.30997   0.00000  Uiso   1.00
C69    C     0.50460   0.63979   0.35029   0.00000  Uiso   1.00
H70    H     0.81355   0.71967   0.30705   0.00000  Uiso   1.00
H71    H     0.88535   0.63883   0.45472   0.00000  Uiso   1.00
H72    H     0.90310   0.73798   0.10032   0.00000  Uiso   1.00
H73    H     0.66293   0.80703   0.37224   0.00000  Uiso   1.00
H74    H     0.94809   0.51007   0.60864   0.00000  Uiso   1.00
H75    H     0.98550   0.71916   0.86136   0.00000  Uiso   1.00
H76    H     0.47906   0.86477   0.43474   0.00000  Uiso   1.00
H77    H     0.68347   0.41821   0.23175   0.00000  Uiso   1.00
H78    H     0.74813   0.32082   0.37530   0.00000  Uiso   1.00
H79    H     0.76588   0.41998   0.02089   0.00000  Uiso   1.00
H80    H     0.52572   0.48903   0.29281   0.00000  Uiso   1.00
H81    H     0.83672   0.25196   0.54417   0.00000  Uiso   1.00
H82    H     0.87412   0.46106   0.79688   0.00000  Uiso   1.00
H83    H     0.36769   0.60666   0.37027   0.00000  Uiso   1.00
O84    O     0.93731   0.32238   0.67216   0.00000  Uiso   1.00
O85    O     0.98637   0.59672   0.69175   0.00000  Uiso   1.00
O86    O     0.32195   0.78775   0.44403   0.00000  Uiso   1.00
N87    N     0.91299   0.46269   0.57378   0.00000  Uiso   1.00
N88    N     0.94797   0.65817   0.87512   0.00000  Uiso   1.00
N89    N     0.47451   0.79431   0.41116   0.00000  Uiso   1.00
N90    N     0.85307   0.32381   0.53910   0.00000  Uiso   1.00
N91    N     0.88805   0.51929   0.84043   0.00000  Uiso   1.00
N92    N     0.41458   0.65543   0.37647   0.00000  Uiso   1.00
C93    C     0.78375   0.84939   0.78981   0.00000  Uiso   1.00
C94    C     0.80471   0.93512   0.85961   0.00000  Uiso   1.00
C95    C     0.85573   0.92984   0.93760   0.00000  Uiso   1.00
C96    C     0.86713   0.01651   0.99273   0.00000  Uiso   1.00
C97    C     0.90554   0.13614   0.10444   0.00000  Uiso   1.00
C98    C     0.81437   0.88125   0.66705   0.00000  Uiso   1.00
C99    C     0.87349   0.83067   0.58315   0.00000  Uiso   1.00
C100   C     0.89301   0.87200   0.47617   0.00000  Uiso   1.00
C101   C     0.94636   0.90795   0.28892   0.00000  Uiso   1.00
C102   C     0.68388   0.84374   0.81480   0.00000  Uiso   1.00
C103   C     0.63329   0.76160   0.85510   0.00000  Uiso   1.00
C104   C     0.54295   0.77134   0.87250   0.00000  Uiso   1.00
C105   C     0.39370   0.74905   0.91465   0.00000  Uiso   1.00
C106   C     0.71327   0.01272   0.74901   0.00000  Uiso   1.00
C107   C     0.76643   0.02383   0.83744   0.00000  Uiso   1.00
C108   C     0.77776   0.11054   0.89247   0.00000  Uiso   1.00
C109   C     0.82878   0.10538   0.97054   0.00000  Uiso   1.00
C110   C     0.77609   0.96996   0.64489   0.00000  Uiso   1.00
C111   C     0.79552   0.01137   0.53801   0.00000  Uiso   1.00
C112   C     0.85466   0.96087   0.45397   0.00000  Uiso   1.00
C113   C     0.64560   0.93245   0.79264   0.00000  Uiso   1.00
C114   C     0.55532   0.94231   0.80997   0.00000  Uiso   1.00
C115   C     0.50460   0.86021   0.85029   0.00000  Uiso   1.00
H116   H     0.81355   0.78033   0.80705   0.00000  Uiso   1.00
H117   H     0.88535   0.86117   0.95472   0.00000  Uiso   1.00
H118   H     0.90310   0.76202   0.60032   0.00000  Uiso   1.00
H119   H     0.66293   0.69297   0.87224   0.00000  Uiso   1.00
H120   H     0.94809   0.98993   0.10864   0.00000  Uiso   1.00
H121   H     0.98550   0.78084   0.36136   0.00000  Uiso   1.00
H122   H     0.47906   0.63523   0.93474   0.00000  Uiso   1.00
H123   H     0.68347   0.08179   0.73175   0.00000  Uiso   1.00
H124   H     0.74813   0.17918   0.87530   0.00000  Uiso   1.00
H125   H     0.76588   0.08002   0.52089   0.00000  Uiso   1.00
H126   H     0.52572   0.01097   0.79281   0.00000  Uiso   1.00
H127   H     0.83672   0.24804   0.04417   0.00000  Uiso   1.00
H128   H     0.87412   0.03894   0.29688   0.00000  Uiso   1.00
H129   H     0.36769   0.89334   0.87027   0.00000  Uiso   1.00
O130   O     0.93731   0.17762   0.17216   0.00000  Uiso   1.00
O131   O     0.98637   0.90328   0.19175   0.00000  Uiso   1.00
O132   O     0.32195   0.71225   0.94403   0.00000  Uiso   1.00
N133   N     0.91299   0.03731   0.07378   0.00000  Uiso   1.00
N134   N     0.94797   0.84183   0.37512   0.00000  Uiso   1.00
N135   N     0.47451   0.70569   0.91116   0.00000  Uiso   1.00
N136   N     0.85307   0.17619   0.03910   0.00000  Uiso   1.00
N137   N     0.88805   0.98071   0.34043   0.00000  Uiso   1.00
N138   N     0.41458   0.84457   0.87647   0.00000  Uiso   1.00
C139   C     0.21625   0.34939   0.71019   0.00000  Uiso   1.00
C140   C     0.19529   0.43512   0.64039   0.00000  Uiso   1.00
C141   C     0.14427   0.42984   0.56240   0.00000  Uiso   1.00
C142   C     0.13287   0.51651   0.50727   0.00000  Uiso   1.00
C143   C     0.09446   0.63614   0.39556   0.00000  Uiso   1.00
C144   C     0.18563   0.38125   0.83295   0.00000  Uiso   1.00
C145   C     0.12651   0.33067   0.91685   0.00000  Uiso   1.00
C146   C     0.10699   0.37200   0.02383   0.00000  Uiso   1.00
C147   C     0.05364   0.40795   0.21108   0.00000  Uiso   1.00
C148   C     0.31612   0.34374   0.68520   0.00000  Uiso   1.00
C149   C     0.36671   0.26160   0.64490   0.00000  Uiso   1.00
C150   C     0.45705   0.27134   0.62750   0.00000  Uiso   1.00
C151   C     0.60630   0.24905   0.58535   0.00000  Uiso   1.00
C152   C     0.28673   0.51272   0.75099   0.00000  Uiso   1.00
C153   C     0.23357   0.52383   0.66256   0.00000  Uiso   1.00
C154   C     0.22224   0.61054   0.60753   0.00000  Uiso   1.00
C155   C     0.17122   0.60538   0.52946   0.00000  Uiso   1.00
C156   C     0.22391   0.46996   0.85511   0.00000  Uiso   1.00
C157   C     0.20448   0.51137   0.96199   0.00000  Uiso   1.00
C158   C     0.14534   0.46087   0.04603   0.00000  Uiso   1.00
C159   C     0.35440   0.43245   0.70736   0.00000  Uiso   1.00
C160   C     0.44468   0.44231   0.69003   0.00000  Uiso   1.00
C161   C     0.49540   0.36021   0.64971   0.00000  Uiso   1.00
H162   H     0.18645   0.28033   0.69295   0.00000  Uiso   1.00
H163   H     0.11465   0.36117   0.54528   0.00000  Uiso   1.00
H164   H     0.09690   0.26202   0.89968   0.00000  Uiso   1.00
H165   H     0.33707   0.19297   0.62776   0.00000  Uiso   1.00
H166   H     0.05191   0.48993   0.39136   0.00000  Uiso   1.00
H167   H     0.01450   0.28084   0.13864   0.00000  Uiso   1.00
H168   H     0.52094   0.13523   0.56526   0.00000  Uiso   1.00
H169   H     0.31653   0.58179   0.76825   0.00000  Uiso   1.00
H170   H     0.25187   0.67918   0.62470   0.00000  Uiso   1.00
H171   H     0.23412   0.58002   0.97911   0.00000  Uiso   1.00
H172   H     0.47428   0.51097   0.70719   0.00000  Uiso   1.00
H173   H     0.16328   0.74804   0.45583   0.00000  Uiso   1.00
H174   H     0.12588   0.53894   0.20312   0.00000  Uiso   1.00
H175   H     0.63231   0.39334   0.62973   0.00000  Uiso   1.00
O176   O     0.06269   0.67762   0.32784   0.00000  Uiso   1.00
O177   O     0.01363   0.40328   0.30825   0.00000  Uiso   1.00
O178   O     0.67805   0.21225   0.55597   0.00000  Uiso   1.00
N179   N     0.08701   0.53731   0.42622   0.00000  Uiso   1.00
N180   N     0.05203   0.34183   0.12488   0.00000  Uiso   1.00
N181   N     0.52549   0.20569   0.58884   0.00000  Uiso   1.00
N182   N     0.14693   0.67619   0.46090   0.00000  Uiso   1.00
N183   N     0.11195   0.48071   0.15957   0.00000  Uiso   1.00
N184   N     0.58542   0.34457   0.62353   0.00000  Uiso   1.00
