data_job_03045
_audit_creation_date              2018-12-19
_audit_creation_method            'Materials Studio'
_symmetry_space_group_name_H-M    'P1'
_symmetry_Int_Tables_number       1
_symmetry_cell_setting            triclinic
loop_
_symmetry_equiv_pos_as_xyz
  x,y,z
_cell_length_a                    21.1813
_cell_length_b                    21.1813
_cell_length_c                    12.5014
_cell_angle_alpha                 90.0000
_cell_angle_beta                  90.0000
_cell_angle_gamma                 120.0000
loop_
_atom_site_label
_atom_site_type_symbol
_atom_site_fract_x
_atom_site_fract_y
_atom_site_fract_z
_atom_site_U_iso_or_equiv
_atom_site_adp_type
_atom_site_occupancy
C1     C     0.12510   0.62174   0.51472   0.00000  Uiso   1.00
C2     C     0.04498   0.60040   0.52211   0.00000  Uiso   1.00
C3     C     0.01680   0.64588   0.50147   0.00000  Uiso   1.00
C4     C     0.94201   0.61603   0.51275   0.00000  Uiso   1.00
C5     C     0.82445   0.59397   0.51959   0.00000  Uiso   1.00
C6     C     0.14527   0.60507   0.62403   0.00000  Uiso   1.00
C7     C     0.20142   0.65448   0.68906   0.00000  Uiso   1.00
C8     C     0.21106   0.62856   0.78612   0.00000  Uiso   1.00
C9     C     0.24924   0.61373   0.95115   0.00000  Uiso   1.00
C10    C     0.12835   0.56800   0.43692   0.00000  Uiso   1.00
C11    C     0.17029   0.58623   0.34464   0.00000  Uiso   1.00
C12    C     0.16570   0.52909   0.28418   0.00000  Uiso   1.00
C13    C     0.17760   0.45670   0.15870   0.00000  Uiso   1.00
C14    C     0.04238   0.48784   0.57146   0.00000  Uiso   1.00
C15    C     0.00005   0.52767   0.55293   0.00000  Uiso   1.00
C16    C     0.92528   0.49774   0.56424   0.00000  Uiso   1.00
C17    C     0.89700   0.54317   0.54361   0.00000  Uiso   1.00
C18    C     0.10034   0.53235   0.65484   0.00000  Uiso   1.00
C19    C     0.10990   0.50634   0.75183   0.00000  Uiso   1.00
C20    C     0.16605   0.55570   0.81699   0.00000  Uiso   1.00
C21    C     0.08342   0.49527   0.46773   0.00000  Uiso   1.00
C22    C     0.07876   0.43809   0.40741   0.00000  Uiso   1.00
C23    C     0.12069   0.45623   0.31506   0.00000  Uiso   1.00
H24    H     0.16008   0.67837   0.49073   0.00000  Uiso   1.00
H25    H     0.05159   0.70217   0.47763   0.00000  Uiso   1.00
H26    H     0.23619   0.71076   0.66518   0.00000  Uiso   1.00
H27    H     0.20505   0.64252   0.32082   0.00000  Uiso   1.00
H28    H     0.91151   0.69649   0.47673   0.00000  Uiso   1.00
H29    H     0.30075   0.71460   0.87218   0.00000  Uiso   1.00
H30    H     0.23510   0.57070   0.14602   0.00000  Uiso   1.00
H31    H     0.00739   0.43122   0.59545   0.00000  Uiso   1.00
H32    H     0.89053   0.44146   0.58809   0.00000  Uiso   1.00
H33    H     0.07512   0.45005   0.77565   0.00000  Uiso   1.00
H34    H     0.04399   0.38181   0.43128   0.00000  Uiso   1.00
H35    H     0.78078   0.48489   0.56639   0.00000  Uiso   1.00
H36    H     0.17003   0.50300   0.96184   0.00000  Uiso   1.00
H37    H     0.10437   0.35910   0.23568   0.00000  Uiso   1.00
O38    O     0.77202   0.60189   0.51486   0.00000  Uiso   1.00
O39    O     0.28271   0.62565   0.03367   0.00000  Uiso   1.00
O40    O     0.19657   0.43686   0.08096   0.00000  Uiso   1.00
N41    N     0.89678   0.64528   0.49882   0.00000  Uiso   1.00
N42    N     0.26069   0.66222   0.86855   0.00000  Uiso   1.00
N43    N     0.19933   0.52769   0.18967   0.00000  Uiso   1.00
N44    N     0.82643   0.53142   0.54706   0.00000  Uiso   1.00
N45    N     0.19035   0.54836   0.91680   0.00000  Uiso   1.00
N46    N     0.12899   0.41382   0.23791   0.00000  Uiso   1.00
C47    C     0.37826   0.50335   0.18139   0.00000  Uiso   1.00
C48    C     0.39960   0.44458   0.18878   0.00000  Uiso   1.00
C49    C     0.35412   0.37092   0.16813   0.00000  Uiso   1.00
C50    C     0.38397   0.32598   0.17941   0.00000  Uiso   1.00
C51    C     0.40603   0.23049   0.18625   0.00000  Uiso   1.00
C52    C     0.39493   0.54020   0.29069   0.00000  Uiso   1.00
C53    C     0.34552   0.54694   0.35572   0.00000  Uiso   1.00
C54    C     0.37144   0.58251   0.45279   0.00000  Uiso   1.00
C55    C     0.38627   0.63551   0.61781   0.00000  Uiso   1.00
C56    C     0.43200   0.56035   0.10358   0.00000  Uiso   1.00
C57    C     0.41377   0.58406   0.01131   0.00000  Uiso   1.00
C58    C     0.47091   0.63661   0.95085   0.00000  Uiso   1.00
C59    C     0.54330   0.72090   0.82536   0.00000  Uiso   1.00
C60    C     0.51216   0.55453   0.23812   0.00000  Uiso   1.00
C61    C     0.47233   0.47238   0.21960   0.00000  Uiso   1.00
C62    C     0.50226   0.42754   0.23091   0.00000  Uiso   1.00
C63    C     0.45683   0.35383   0.21028   0.00000  Uiso   1.00
C64    C     0.46765   0.56800   0.32151   0.00000  Uiso   1.00
C65    C     0.49366   0.60357   0.41850   0.00000  Uiso   1.00
C66    C     0.44430   0.61036   0.48366   0.00000  Uiso   1.00
C67    C     0.50473   0.58815   0.13440   0.00000  Uiso   1.00
C68    C     0.56191   0.64068   0.07408   0.00000  Uiso   1.00
C69    C     0.54377   0.66446   0.98172   0.00000  Uiso   1.00
H70    H     0.32163   0.48171   0.15740   0.00000  Uiso   1.00
H71    H     0.29783   0.34943   0.14430   0.00000  Uiso   1.00
H72    H     0.28924   0.52543   0.33185   0.00000  Uiso   1.00
H73    H     0.35748   0.56253   0.98748   0.00000  Uiso   1.00
H74    H     0.30351   0.21502   0.14340   0.00000  Uiso   1.00
H75    H     0.28540   0.58615   0.53885   0.00000  Uiso   1.00
H76    H     0.42930   0.66440   0.81268   0.00000  Uiso   1.00
H77    H     0.56878   0.57618   0.26212   0.00000  Uiso   1.00
H78    H     0.55854   0.44907   0.25476   0.00000  Uiso   1.00
H79    H     0.54995   0.62507   0.44232   0.00000  Uiso   1.00
H80    H     0.61819   0.66218   0.09795   0.00000  Uiso   1.00
H81    H     0.51511   0.29589   0.23306   0.00000  Uiso   1.00
H82    H     0.49700   0.66703   0.62851   0.00000  Uiso   1.00
H83    H     0.64090   0.74527   0.90234   0.00000  Uiso   1.00
O84    O     0.39811   0.17013   0.18153   0.00000  Uiso   1.00
O85    O     0.37435   0.65706   0.70033   0.00000  Uiso   1.00
O86    O     0.56314   0.75971   0.74763   0.00000  Uiso   1.00
N87    N     0.35472   0.25150   0.16549   0.00000  Uiso   1.00
N88    N     0.33778   0.59847   0.53522   0.00000  Uiso   1.00
N89    N     0.47231   0.67164   0.85633   0.00000  Uiso   1.00
N90    N     0.46858   0.29501   0.21373   0.00000  Uiso   1.00
N91    N     0.45164   0.64199   0.58346   0.00000  Uiso   1.00
N92    N     0.58618   0.71516   0.90458   0.00000  Uiso   1.00
C93    C     0.49665   0.87490   0.84805   0.00000  Uiso   1.00
C94    C     0.55542   0.95502   0.85544   0.00000  Uiso   1.00
C95    C     0.62908   0.98320   0.83480   0.00000  Uiso   1.00
C96    C     0.67402   0.05799   0.84608   0.00000  Uiso   1.00
C97    C     0.76951   0.17555   0.85292   0.00000  Uiso   1.00
C98    C     0.45980   0.85473   0.95736   0.00000  Uiso   1.00
C99    C     0.45306   0.79858   0.02239   0.00000  Uiso   1.00
C100   C     0.41749   0.78894   0.11945   0.00000  Uiso   1.00
C101   C     0.36449   0.75076   0.28448   0.00000  Uiso   1.00
C102   C     0.43965   0.87165   0.77025   0.00000  Uiso   1.00
C103   C     0.41594   0.82971   0.67797   0.00000  Uiso   1.00
C104   C     0.36339   0.83430   0.61751   0.00000  Uiso   1.00
C105   C     0.27910   0.82240   0.49203   0.00000  Uiso   1.00
C106   C     0.44547   0.95762   0.90479   0.00000  Uiso   1.00
C107   C     0.52762   0.99995   0.88627   0.00000  Uiso   1.00
C108   C     0.57246   0.07472   0.89757   0.00000  Uiso   1.00
C109   C     0.64617   0.10300   0.87695   0.00000  Uiso   1.00
C110   C     0.43200   0.89966   0.98818   0.00000  Uiso   1.00
C111   C     0.39643   0.89010   0.08516   0.00000  Uiso   1.00
C112   C     0.38964   0.83395   0.15033   0.00000  Uiso   1.00
C113   C     0.41185   0.91658   0.80106   0.00000  Uiso   1.00
C114   C     0.35932   0.92124   0.74074   0.00000  Uiso   1.00
C115   C     0.33554   0.87931   0.64839   0.00000  Uiso   1.00
H116   H     0.51829   0.83992   0.82407   0.00000  Uiso   1.00
H117   H     0.65057   0.94841   0.81096   0.00000  Uiso   1.00
H118   H     0.47457   0.76381   0.99852   0.00000  Uiso   1.00
H119   H     0.43747   0.79495   0.65415   0.00000  Uiso   1.00
H120   H     0.78498   0.08849   0.81006   0.00000  Uiso   1.00
H121   H     0.41385   0.69925   0.20551   0.00000  Uiso   1.00
H122   H     0.33560   0.76490   0.47935   0.00000  Uiso   1.00
H123   H     0.42382   0.99261   0.92879   0.00000  Uiso   1.00
H124   H     0.55093   0.10947   0.92142   0.00000  Uiso   1.00
H125   H     0.37493   0.92488   0.10898   0.00000  Uiso   1.00
H126   H     0.33782   0.95601   0.76462   0.00000  Uiso   1.00
H127   H     0.70411   0.21922   0.89972   0.00000  Uiso   1.00
H128   H     0.33297   0.82997   0.29517   0.00000  Uiso   1.00
H129   H     0.25473   0.89563   0.56901   0.00000  Uiso   1.00
O130   O     0.82987   0.22798   0.84820   0.00000  Uiso   1.00
O131   O     0.34294   0.71729   0.36700   0.00000  Uiso   1.00
O132   O     0.24029   0.80343   0.41429   0.00000  Uiso   1.00
N133   N     0.74850   0.10322   0.83215   0.00000  Uiso   1.00
N134   N     0.40153   0.73931   0.20188   0.00000  Uiso   1.00
N135   N     0.32836   0.80067   0.52300   0.00000  Uiso   1.00
N136   N     0.70499   0.17357   0.88040   0.00000  Uiso   1.00
N137   N     0.35801   0.80965   0.25013   0.00000  Uiso   1.00
N138   N     0.28484   0.87101   0.57124   0.00000  Uiso   1.00
C139   C     0.62174   0.12510   0.48528   0.00000  Uiso   1.00
C140   C     0.60040   0.04498   0.47789   0.00000  Uiso   1.00
C141   C     0.64588   0.01680   0.49853   0.00000  Uiso   1.00
C142   C     0.61603   0.94201   0.48725   0.00000  Uiso   1.00
C143   C     0.59397   0.82445   0.48041   0.00000  Uiso   1.00
C144   C     0.60507   0.14527   0.37597   0.00000  Uiso   1.00
C145   C     0.65448   0.20142   0.31094   0.00000  Uiso   1.00
C146   C     0.62856   0.21106   0.21388   0.00000  Uiso   1.00
C147   C     0.61373   0.24924   0.04885   0.00000  Uiso   1.00
C148   C     0.56800   0.12835   0.56308   0.00000  Uiso   1.00
C149   C     0.58623   0.17029   0.65536   0.00000  Uiso   1.00
C150   C     0.52909   0.16570   0.71582   0.00000  Uiso   1.00
C151   C     0.45670   0.17760   0.84130   0.00000  Uiso   1.00
C152   C     0.48784   0.04238   0.42854   0.00000  Uiso   1.00
C153   C     0.52767   0.00005   0.44707   0.00000  Uiso   1.00
C154   C     0.49774   0.92528   0.43576   0.00000  Uiso   1.00
C155   C     0.54317   0.89700   0.45639   0.00000  Uiso   1.00
C156   C     0.53235   0.10034   0.34516   0.00000  Uiso   1.00
C157   C     0.50634   0.10990   0.24817   0.00000  Uiso   1.00
C158   C     0.55570   0.16605   0.18301   0.00000  Uiso   1.00
C159   C     0.49527   0.08342   0.53227   0.00000  Uiso   1.00
C160   C     0.43809   0.07876   0.59259   0.00000  Uiso   1.00
C161   C     0.45623   0.12069   0.68494   0.00000  Uiso   1.00
H162   H     0.67837   0.16008   0.50927   0.00000  Uiso   1.00
H163   H     0.70217   0.05159   0.52237   0.00000  Uiso   1.00
H164   H     0.71076   0.23619   0.33482   0.00000  Uiso   1.00
H165   H     0.64252   0.20505   0.67918   0.00000  Uiso   1.00
H166   H     0.69649   0.91151   0.52327   0.00000  Uiso   1.00
H167   H     0.71460   0.30075   0.12782   0.00000  Uiso   1.00
H168   H     0.57070   0.23510   0.85398   0.00000  Uiso   1.00
H169   H     0.43122   0.00739   0.40455   0.00000  Uiso   1.00
H170   H     0.44146   0.89053   0.41191   0.00000  Uiso   1.00
H171   H     0.45005   0.07512   0.22435   0.00000  Uiso   1.00
H172   H     0.38181   0.04399   0.56872   0.00000  Uiso   1.00
H173   H     0.48489   0.78078   0.43361   0.00000  Uiso   1.00
H174   H     0.50300   0.17003   0.03816   0.00000  Uiso   1.00
H175   H     0.35910   0.10437   0.76432   0.00000  Uiso   1.00
O176   O     0.60189   0.77202   0.48514   0.00000  Uiso   1.00
O177   O     0.62565   0.28271   0.96633   0.00000  Uiso   1.00
O178   O     0.43686   0.19657   0.91904   0.00000  Uiso   1.00
N179   N     0.64528   0.89678   0.50118   0.00000  Uiso   1.00
N180   N     0.66222   0.26069   0.13145   0.00000  Uiso   1.00
N181   N     0.52769   0.19933   0.81033   0.00000  Uiso   1.00
N182   N     0.53142   0.82643   0.45294   0.00000  Uiso   1.00
N183   N     0.54836   0.19035   0.08320   0.00000  Uiso   1.00
N184   N     0.41382   0.12899   0.76209   0.00000  Uiso   1.00
C185   C     0.50335   0.37826   0.81861   0.00000  Uiso   1.00
C186   C     0.44458   0.39960   0.81122   0.00000  Uiso   1.00
C187   C     0.37092   0.35412   0.83187   0.00000  Uiso   1.00
C188   C     0.32598   0.38397   0.82059   0.00000  Uiso   1.00
C189   C     0.23049   0.40603   0.81375   0.00000  Uiso   1.00
C190   C     0.54020   0.39493   0.70931   0.00000  Uiso   1.00
C191   C     0.54694   0.34552   0.64428   0.00000  Uiso   1.00
C192   C     0.58251   0.37144   0.54721   0.00000  Uiso   1.00
C193   C     0.63551   0.38627   0.38219   0.00000  Uiso   1.00
C194   C     0.56035   0.43200   0.89642   0.00000  Uiso   1.00
C195   C     0.58406   0.41377   0.98869   0.00000  Uiso   1.00
C196   C     0.63661   0.47091   0.04915   0.00000  Uiso   1.00
C197   C     0.72090   0.54330   0.17464   0.00000  Uiso   1.00
C198   C     0.55453   0.51216   0.76188   0.00000  Uiso   1.00
C199   C     0.47238   0.47233   0.78040   0.00000  Uiso   1.00
C200   C     0.42754   0.50226   0.76909   0.00000  Uiso   1.00
C201   C     0.35383   0.45683   0.78972   0.00000  Uiso   1.00
C202   C     0.56800   0.46765   0.67849   0.00000  Uiso   1.00
C203   C     0.60357   0.49366   0.58150   0.00000  Uiso   1.00
C204   C     0.61036   0.44430   0.51634   0.00000  Uiso   1.00
C205   C     0.58815   0.50473   0.86560   0.00000  Uiso   1.00
C206   C     0.64068   0.56191   0.92592   0.00000  Uiso   1.00
C207   C     0.66446   0.54377   0.01828   0.00000  Uiso   1.00
H208   H     0.48171   0.32163   0.84260   0.00000  Uiso   1.00
H209   H     0.34943   0.29783   0.85570   0.00000  Uiso   1.00
H210   H     0.52543   0.28924   0.66815   0.00000  Uiso   1.00
H211   H     0.56253   0.35748   0.01252   0.00000  Uiso   1.00
H212   H     0.21502   0.30351   0.85660   0.00000  Uiso   1.00
H213   H     0.58615   0.28540   0.46115   0.00000  Uiso   1.00
H214   H     0.66440   0.42930   0.18732   0.00000  Uiso   1.00
H215   H     0.57618   0.56878   0.73788   0.00000  Uiso   1.00
H216   H     0.44907   0.55854   0.74524   0.00000  Uiso   1.00
H217   H     0.62507   0.54995   0.55768   0.00000  Uiso   1.00
H218   H     0.66218   0.61819   0.90205   0.00000  Uiso   1.00
H219   H     0.29589   0.51511   0.76694   0.00000  Uiso   1.00
H220   H     0.66703   0.49700   0.37149   0.00000  Uiso   1.00
H221   H     0.74527   0.64090   0.09766   0.00000  Uiso   1.00
O222   O     0.17013   0.39811   0.81847   0.00000  Uiso   1.00
O223   O     0.65706   0.37435   0.29967   0.00000  Uiso   1.00
O224   O     0.75971   0.56314   0.25237   0.00000  Uiso   1.00
N225   N     0.25150   0.35472   0.83451   0.00000  Uiso   1.00
N226   N     0.59847   0.33778   0.46478   0.00000  Uiso   1.00
N227   N     0.67164   0.47231   0.14367   0.00000  Uiso   1.00
N228   N     0.29501   0.46858   0.78627   0.00000  Uiso   1.00
N229   N     0.64199   0.45164   0.41654   0.00000  Uiso   1.00
N230   N     0.71516   0.58618   0.09542   0.00000  Uiso   1.00
C231   C     0.87490   0.49665   0.15195   0.00000  Uiso   1.00
C232   C     0.95502   0.55542   0.14456   0.00000  Uiso   1.00
C233   C     0.98320   0.62908   0.16520   0.00000  Uiso   1.00
C234   C     0.05799   0.67402   0.15392   0.00000  Uiso   1.00
C235   C     0.17555   0.76951   0.14708   0.00000  Uiso   1.00
C236   C     0.85473   0.45980   0.04264   0.00000  Uiso   1.00
C237   C     0.79858   0.45306   0.97761   0.00000  Uiso   1.00
C238   C     0.78894   0.41749   0.88055   0.00000  Uiso   1.00
C239   C     0.75076   0.36449   0.71552   0.00000  Uiso   1.00
C240   C     0.87165   0.43965   0.22975   0.00000  Uiso   1.00
C241   C     0.82971   0.41594   0.32203   0.00000  Uiso   1.00
C242   C     0.83430   0.36339   0.38249   0.00000  Uiso   1.00
C243   C     0.82240   0.27910   0.50797   0.00000  Uiso   1.00
C244   C     0.95762   0.44547   0.09521   0.00000  Uiso   1.00
C245   C     0.99995   0.52762   0.11373   0.00000  Uiso   1.00
C246   C     0.07472   0.57246   0.10243   0.00000  Uiso   1.00
C247   C     0.10300   0.64617   0.12305   0.00000  Uiso   1.00
C248   C     0.89966   0.43200   0.01182   0.00000  Uiso   1.00
C249   C     0.89010   0.39643   0.91484   0.00000  Uiso   1.00
C250   C     0.83395   0.38964   0.84967   0.00000  Uiso   1.00
C251   C     0.91658   0.41185   0.19894   0.00000  Uiso   1.00
C252   C     0.92124   0.35932   0.25926   0.00000  Uiso   1.00
C253   C     0.87931   0.33554   0.35161   0.00000  Uiso   1.00
H254   H     0.83992   0.51829   0.17593   0.00000  Uiso   1.00
H255   H     0.94841   0.65057   0.18904   0.00000  Uiso   1.00
H256   H     0.76381   0.47457   0.00148   0.00000  Uiso   1.00
H257   H     0.79495   0.43747   0.34585   0.00000  Uiso   1.00
H258   H     0.08849   0.78498   0.18994   0.00000  Uiso   1.00
H259   H     0.69925   0.41385   0.79449   0.00000  Uiso   1.00
H260   H     0.76490   0.33560   0.52065   0.00000  Uiso   1.00
H261   H     0.99261   0.42382   0.07121   0.00000  Uiso   1.00
H262   H     0.10947   0.55093   0.07858   0.00000  Uiso   1.00
H263   H     0.92488   0.37493   0.89102   0.00000  Uiso   1.00
H264   H     0.95601   0.33782   0.23538   0.00000  Uiso   1.00
H265   H     0.21922   0.70411   0.10028   0.00000  Uiso   1.00
H266   H     0.82997   0.33297   0.70483   0.00000  Uiso   1.00
H267   H     0.89563   0.25473   0.43099   0.00000  Uiso   1.00
O268   O     0.22798   0.82987   0.15180   0.00000  Uiso   1.00
O269   O     0.71729   0.34294   0.63300   0.00000  Uiso   1.00
O270   O     0.80343   0.24029   0.58571   0.00000  Uiso   1.00
N271   N     0.10322   0.74850   0.16785   0.00000  Uiso   1.00
N272   N     0.73931   0.40153   0.79812   0.00000  Uiso   1.00
N273   N     0.80067   0.32836   0.47700   0.00000  Uiso   1.00
N274   N     0.17357   0.70499   0.11960   0.00000  Uiso   1.00
N275   N     0.80965   0.35801   0.74987   0.00000  Uiso   1.00
N276   N     0.87101   0.28484   0.42876   0.00000  Uiso   1.00
