data_job_00847
_audit_creation_date              2018-12-19
_audit_creation_method            'Materials Studio'
_symmetry_space_group_name_H-M    'P1'
_symmetry_Int_Tables_number       1
_symmetry_cell_setting            triclinic
loop_
_symmetry_equiv_pos_as_xyz
  x,y,z
_cell_length_a                    12.4698
_cell_length_b                    21.1034
_cell_length_c                    9.9056
_cell_angle_alpha                 90.0000
_cell_angle_beta                  90.0000
_cell_angle_gamma                 90.0000
loop_
_atom_site_label
_atom_site_type_symbol
_atom_site_fract_x
_atom_site_fract_y
_atom_site_fract_z
_atom_site_U_iso_or_equiv
_atom_site_adp_type
_atom_site_occupancy
C1     C     0.19300   0.30013   0.12712   0.00000  Uiso   1.00
C2     C     0.17613   0.36361   0.05670   0.00000  Uiso   1.00
C3     C     0.18811   0.37491   0.91952   0.00000  Uiso   1.00
C4     C     0.16903   0.43624   0.87486   0.00000  Uiso   1.00
C5     C     0.14746   0.52748   0.75194   0.00000  Uiso   1.00
C6     C     0.27659   0.31192   0.23664   0.00000  Uiso   1.00
C7     C     0.37302   0.27976   0.25074   0.00000  Uiso   1.00
C8     C     0.43849   0.29759   0.35757   0.00000  Uiso   1.00
C9     C     0.57284   0.30855   0.51405   0.00000  Uiso   1.00
C10    C     0.08845   0.28572   0.20084   0.00000  Uiso   1.00
C11    C     0.02671   0.23152   0.18488   0.00000  Uiso   1.00
C12    C     0.93380   0.22727   0.26160   0.00000  Uiso   1.00
C13    C     0.77605   0.19755   0.36251   0.00000  Uiso   1.00
C14    C     0.13780   0.38895   0.29177   0.00000  Uiso   1.00
C15    C     0.14615   0.41185   0.14614   0.00000  Uiso   1.00
C16    C     0.12704   0.47319   0.10168   0.00000  Uiso   1.00
C17    C     0.13899   0.48458   0.96445   0.00000  Uiso   1.00
C18    C     0.24661   0.36017   0.32607   0.00000  Uiso   1.00
C19    C     0.31195   0.37804   0.43290   0.00000  Uiso   1.00
C20    C     0.40846   0.34592   0.44716   0.00000  Uiso   1.00
C21    C     0.05847   0.33397   0.29027   0.00000  Uiso   1.00
C22    C     0.96564   0.32980   0.36704   0.00000  Uiso   1.00
C23    C     0.90377   0.27560   0.35120   0.00000  Uiso   1.00
H24    H     0.21634   0.26256   0.05750   0.00000  Uiso   1.00
H25    H     0.21133   0.33756   0.85034   0.00000  Uiso   1.00
H26    H     0.39620   0.24243   0.18152   0.00000  Uiso   1.00
H27    H     0.04994   0.19419   0.11567   0.00000  Uiso   1.00
H28    H     0.19259   0.44199   0.66012   0.00000  Uiso   1.00
H29    H     0.58237   0.24138   0.35846   0.00000  Uiso   1.00
H30    H     0.85223   0.13966   0.21960   0.00000  Uiso   1.00
H31    H     0.11445   0.42651   0.36140   0.00000  Uiso   1.00
H32    H     0.10384   0.51051   0.17091   0.00000  Uiso   1.00
H33    H     0.28872   0.41538   0.50209   0.00000  Uiso   1.00
H34    H     0.94246   0.36714   0.43624   0.00000  Uiso   1.00
H35    H     0.10535   0.58237   0.92031   0.00000  Uiso   1.00
H36    H     0.49514   0.38175   0.61865   0.00000  Uiso   1.00
H37    H     0.76499   0.28004   0.47978   0.00000  Uiso   1.00
O38    O     0.14386   0.56448   0.65943   0.00000  Uiso   1.00
O39    O     0.65524   0.30128   0.57564   0.00000  Uiso   1.00
O40    O     0.69731   0.16783   0.39344   0.00000  Uiso   1.00
N41    N     0.17349   0.46350   0.74749   0.00000  Uiso   1.00
N42    N     0.53793   0.27595   0.40039   0.00000  Uiso   1.00
N43    N     0.85532   0.18084   0.27059   0.00000  Uiso   1.00
N44    N     0.12655   0.53903   0.88750   0.00000  Uiso   1.00
N45    N     0.49098   0.35148   0.54039   0.00000  Uiso   1.00
N46    N     0.80838   0.25637   0.41059   0.00000  Uiso   1.00
C47    C     0.80700   0.69987   0.12712   0.00000  Uiso   1.00
C48    C     0.82387   0.63639   0.05670   0.00000  Uiso   1.00
C49    C     0.81189   0.62509   0.91952   0.00000  Uiso   1.00
C50    C     0.83097   0.56376   0.87486   0.00000  Uiso   1.00
C51    C     0.85254   0.47252   0.75194   0.00000  Uiso   1.00
C52    C     0.72341   0.68808   0.23664   0.00000  Uiso   1.00
C53    C     0.62698   0.72024   0.25074   0.00000  Uiso   1.00
C54    C     0.56151   0.70241   0.35757   0.00000  Uiso   1.00
C55    C     0.42716   0.69145   0.51405   0.00000  Uiso   1.00
C56    C     0.91155   0.71428   0.20084   0.00000  Uiso   1.00
C57    C     0.97329   0.76848   0.18488   0.00000  Uiso   1.00
C58    C     0.06620   0.77273   0.26160   0.00000  Uiso   1.00
C59    C     0.22395   0.80245   0.36251   0.00000  Uiso   1.00
C60    C     0.86220   0.61105   0.29177   0.00000  Uiso   1.00
C61    C     0.85385   0.58815   0.14614   0.00000  Uiso   1.00
C62    C     0.87296   0.52681   0.10168   0.00000  Uiso   1.00
C63    C     0.86101   0.51542   0.96445   0.00000  Uiso   1.00
C64    C     0.75339   0.63983   0.32607   0.00000  Uiso   1.00
C65    C     0.68805   0.62196   0.43290   0.00000  Uiso   1.00
C66    C     0.59154   0.65408   0.44716   0.00000  Uiso   1.00
C67    C     0.94153   0.66603   0.29027   0.00000  Uiso   1.00
C68    C     0.03436   0.67020   0.36704   0.00000  Uiso   1.00
C69    C     0.09623   0.72440   0.35120   0.00000  Uiso   1.00
H70    H     0.78366   0.73744   0.05750   0.00000  Uiso   1.00
H71    H     0.78867   0.66244   0.85034   0.00000  Uiso   1.00
H72    H     0.60380   0.75757   0.18152   0.00000  Uiso   1.00
H73    H     0.95006   0.80581   0.11567   0.00000  Uiso   1.00
H74    H     0.80741   0.55801   0.66012   0.00000  Uiso   1.00
H75    H     0.41763   0.75862   0.35846   0.00000  Uiso   1.00
H76    H     0.14777   0.86034   0.21960   0.00000  Uiso   1.00
H77    H     0.88555   0.57349   0.36140   0.00000  Uiso   1.00
H78    H     0.89616   0.48949   0.17091   0.00000  Uiso   1.00
H79    H     0.71128   0.58462   0.50209   0.00000  Uiso   1.00
H80    H     0.05754   0.63286   0.43624   0.00000  Uiso   1.00
H81    H     0.89465   0.41763   0.92031   0.00000  Uiso   1.00
H82    H     0.50486   0.61825   0.61865   0.00000  Uiso   1.00
H83    H     0.23501   0.71996   0.47978   0.00000  Uiso   1.00
O84    O     0.85614   0.43552   0.65943   0.00000  Uiso   1.00
O85    O     0.34476   0.69872   0.57564   0.00000  Uiso   1.00
O86    O     0.30269   0.83217   0.39344   0.00000  Uiso   1.00
N87    N     0.82651   0.53650   0.74749   0.00000  Uiso   1.00
N88    N     0.46207   0.72405   0.40039   0.00000  Uiso   1.00
N89    N     0.14468   0.81916   0.27059   0.00000  Uiso   1.00
N90    N     0.87345   0.46097   0.88750   0.00000  Uiso   1.00
N91    N     0.50902   0.64852   0.54039   0.00000  Uiso   1.00
N92    N     0.19162   0.74363   0.41059   0.00000  Uiso   1.00
C93    C     0.19300   0.19987   0.62712   0.00000  Uiso   1.00
C94    C     0.17613   0.13639   0.55670   0.00000  Uiso   1.00
C95    C     0.18811   0.12509   0.41952   0.00000  Uiso   1.00
C96    C     0.16903   0.06376   0.37486   0.00000  Uiso   1.00
C97    C     0.14746   0.97252   0.25194   0.00000  Uiso   1.00
C98    C     0.27659   0.18808   0.73664   0.00000  Uiso   1.00
C99    C     0.37302   0.22024   0.75074   0.00000  Uiso   1.00
C100   C     0.43849   0.20241   0.85757   0.00000  Uiso   1.00
C101   C     0.57284   0.19145   0.01405   0.00000  Uiso   1.00
C102   C     0.08845   0.21428   0.70084   0.00000  Uiso   1.00
C103   C     0.02671   0.26848   0.68488   0.00000  Uiso   1.00
C104   C     0.93380   0.27273   0.76160   0.00000  Uiso   1.00
C105   C     0.77605   0.30245   0.86251   0.00000  Uiso   1.00
C106   C     0.13780   0.11105   0.79177   0.00000  Uiso   1.00
C107   C     0.14615   0.08815   0.64614   0.00000  Uiso   1.00
C108   C     0.12704   0.02681   0.60168   0.00000  Uiso   1.00
C109   C     0.13899   0.01542   0.46445   0.00000  Uiso   1.00
C110   C     0.24661   0.13983   0.82607   0.00000  Uiso   1.00
C111   C     0.31195   0.12196   0.93290   0.00000  Uiso   1.00
C112   C     0.40846   0.15408   0.94716   0.00000  Uiso   1.00
C113   C     0.05847   0.16603   0.79027   0.00000  Uiso   1.00
C114   C     0.96564   0.17020   0.86704   0.00000  Uiso   1.00
C115   C     0.90377   0.22440   0.85120   0.00000  Uiso   1.00
H116   H     0.21634   0.23744   0.55750   0.00000  Uiso   1.00
H117   H     0.21133   0.16244   0.35034   0.00000  Uiso   1.00
H118   H     0.39620   0.25757   0.68152   0.00000  Uiso   1.00
H119   H     0.04994   0.30581   0.61567   0.00000  Uiso   1.00
H120   H     0.19259   0.05801   0.16012   0.00000  Uiso   1.00
H121   H     0.58237   0.25862   0.85846   0.00000  Uiso   1.00
H122   H     0.85223   0.36034   0.71960   0.00000  Uiso   1.00
H123   H     0.11445   0.07349   0.86140   0.00000  Uiso   1.00
H124   H     0.10384   0.98949   0.67091   0.00000  Uiso   1.00
H125   H     0.28872   0.08462   0.00209   0.00000  Uiso   1.00
H126   H     0.94246   0.13286   0.93624   0.00000  Uiso   1.00
H127   H     0.10535   0.91763   0.42031   0.00000  Uiso   1.00
H128   H     0.49514   0.11825   0.11865   0.00000  Uiso   1.00
H129   H     0.76499   0.21996   0.97978   0.00000  Uiso   1.00
O130   O     0.14386   0.93552   0.15943   0.00000  Uiso   1.00
O131   O     0.65524   0.19872   0.07564   0.00000  Uiso   1.00
O132   O     0.69731   0.33217   0.89344   0.00000  Uiso   1.00
N133   N     0.17349   0.03650   0.24749   0.00000  Uiso   1.00
N134   N     0.53793   0.22405   0.90039   0.00000  Uiso   1.00
N135   N     0.85532   0.31916   0.77059   0.00000  Uiso   1.00
N136   N     0.12655   0.96097   0.38750   0.00000  Uiso   1.00
N137   N     0.49098   0.14852   0.04039   0.00000  Uiso   1.00
N138   N     0.80838   0.24363   0.91059   0.00000  Uiso   1.00
C139   C     0.80700   0.80013   0.62712   0.00000  Uiso   1.00
C140   C     0.82387   0.86361   0.55670   0.00000  Uiso   1.00
C141   C     0.81189   0.87491   0.41952   0.00000  Uiso   1.00
C142   C     0.83097   0.93624   0.37486   0.00000  Uiso   1.00
C143   C     0.85254   0.02748   0.25194   0.00000  Uiso   1.00
C144   C     0.72341   0.81192   0.73664   0.00000  Uiso   1.00
C145   C     0.62698   0.77976   0.75074   0.00000  Uiso   1.00
C146   C     0.56151   0.79759   0.85757   0.00000  Uiso   1.00
C147   C     0.42716   0.80855   0.01405   0.00000  Uiso   1.00
C148   C     0.91155   0.78572   0.70084   0.00000  Uiso   1.00
C149   C     0.97329   0.73152   0.68488   0.00000  Uiso   1.00
C150   C     0.06620   0.72727   0.76160   0.00000  Uiso   1.00
C151   C     0.22395   0.69755   0.86251   0.00000  Uiso   1.00
C152   C     0.86220   0.88895   0.79177   0.00000  Uiso   1.00
C153   C     0.85385   0.91185   0.64614   0.00000  Uiso   1.00
C154   C     0.87296   0.97319   0.60168   0.00000  Uiso   1.00
C155   C     0.86101   0.98458   0.46445   0.00000  Uiso   1.00
C156   C     0.75339   0.86017   0.82607   0.00000  Uiso   1.00
C157   C     0.68805   0.87804   0.93290   0.00000  Uiso   1.00
C158   C     0.59154   0.84592   0.94716   0.00000  Uiso   1.00
C159   C     0.94153   0.83397   0.79027   0.00000  Uiso   1.00
C160   C     0.03436   0.82980   0.86704   0.00000  Uiso   1.00
C161   C     0.09623   0.77560   0.85120   0.00000  Uiso   1.00
H162   H     0.78366   0.76256   0.55750   0.00000  Uiso   1.00
H163   H     0.78867   0.83756   0.35034   0.00000  Uiso   1.00
H164   H     0.60380   0.74243   0.68152   0.00000  Uiso   1.00
H165   H     0.95006   0.69419   0.61567   0.00000  Uiso   1.00
H166   H     0.80741   0.94199   0.16012   0.00000  Uiso   1.00
H167   H     0.41763   0.74138   0.85846   0.00000  Uiso   1.00
H168   H     0.14777   0.63966   0.71960   0.00000  Uiso   1.00
H169   H     0.88555   0.92651   0.86140   0.00000  Uiso   1.00
H170   H     0.89616   0.01051   0.67091   0.00000  Uiso   1.00
H171   H     0.71128   0.91538   0.00209   0.00000  Uiso   1.00
H172   H     0.05754   0.86714   0.93624   0.00000  Uiso   1.00
H173   H     0.89465   0.08237   0.42031   0.00000  Uiso   1.00
H174   H     0.50486   0.88175   0.11865   0.00000  Uiso   1.00
H175   H     0.23501   0.78004   0.97978   0.00000  Uiso   1.00
O176   O     0.85614   0.06448   0.15943   0.00000  Uiso   1.00
O177   O     0.34476   0.80128   0.07564   0.00000  Uiso   1.00
O178   O     0.30269   0.66783   0.89344   0.00000  Uiso   1.00
N179   N     0.82651   0.96350   0.24749   0.00000  Uiso   1.00
N180   N     0.46207   0.77595   0.90039   0.00000  Uiso   1.00
N181   N     0.14468   0.68084   0.77059   0.00000  Uiso   1.00
N182   N     0.87345   0.03903   0.38750   0.00000  Uiso   1.00
N183   N     0.50902   0.85148   0.04039   0.00000  Uiso   1.00
N184   N     0.19162   0.75637   0.91059   0.00000  Uiso   1.00
