data_job_06990
_audit_creation_date              2018-12-19
_audit_creation_method            'Materials Studio'
_symmetry_space_group_name_H-M    'P1'
_symmetry_Int_Tables_number       1
_symmetry_cell_setting            triclinic
loop_
_symmetry_equiv_pos_as_xyz
  x,y,z
_cell_length_a                    20.4857
_cell_length_b                    23.1012
_cell_length_c                    23.7435
_cell_angle_alpha                 105.0740
_cell_angle_beta                  108.9990
_cell_angle_gamma                 92.7828
loop_
_atom_site_label
_atom_site_type_symbol
_atom_site_fract_x
_atom_site_fract_y
_atom_site_fract_z
_atom_site_U_iso_or_equiv
_atom_site_adp_type
_atom_site_occupancy
C1     C     0.95388   0.65979   0.50022   0.00000  Uiso   1.00
C2     C     0.91929   0.59423   0.46744   0.00000  Uiso   1.00
C3     C     0.90582   0.55235   0.49634   0.00000  Uiso   1.00
C4     C     0.87379   0.49467   0.45816   0.00000  Uiso   1.00
C5     C     0.82284   0.39516   0.41711   0.00000  Uiso   1.00
C6     C     0.01689   0.66729   0.48060   0.00000  Uiso   1.00
C7     C     0.08548   0.68685   0.52057   0.00000  Uiso   1.00
C8     C     0.13561   0.69068   0.49346   0.00000  Uiso   1.00
C9     C     0.23618   0.70465   0.47285   0.00000  Uiso   1.00
C10    C     0.90289   0.69869   0.47092   0.00000  Uiso   1.00
C11    C     0.87563   0.74466   0.50276   0.00000  Uiso   1.00
C12    C     0.82979   0.77493   0.46752   0.00000  Uiso   1.00
C13    C     0.75335   0.83765   0.43188   0.00000  Uiso   1.00
C14    C     0.92095   0.63182   0.38100   0.00000  Uiso   1.00
C15    C     0.90141   0.57903   0.40269   0.00000  Uiso   1.00
C16    C     0.86939   0.52140   0.36445   0.00000  Uiso   1.00
C17    C     0.85587   0.47944   0.39329   0.00000  Uiso   1.00
C18    C     0.99901   0.65210   0.41585   0.00000  Uiso   1.00
C19    C     0.04905   0.65590   0.38868   0.00000  Uiso   1.00
C20    C     0.11770   0.67546   0.42860   0.00000  Uiso   1.00
C21    C     0.88500   0.68349   0.40617   0.00000  Uiso   1.00
C22    C     0.83920   0.71370   0.37087   0.00000  Uiso   1.00
C23    C     0.81187   0.75971   0.40265   0.00000  Uiso   1.00
H24    H     0.96781   0.67162   0.55063   0.00000  Uiso   1.00
H25    H     0.91967   0.56413   0.54646   0.00000  Uiso   1.00
H26    H     0.09930   0.69861   0.57068   0.00000  Uiso   1.00
H27    H     0.88948   0.75640   0.55287   0.00000  Uiso   1.00
H28    H     0.85845   0.43824   0.51328   0.00000  Uiso   1.00
H29    H     0.23720   0.72183   0.56435   0.00000  Uiso   1.00
H30    H     0.79476   0.84370   0.52681   0.00000  Uiso   1.00
H31    H     0.90703   0.61999   0.33059   0.00000  Uiso   1.00
H32    H     0.85556   0.50965   0.31434   0.00000  Uiso   1.00
H33    H     0.03519   0.64414   0.33857   0.00000  Uiso   1.00
H34    H     0.82537   0.70193   0.32076   0.00000  Uiso   1.00
H35    H     0.80641   0.39402   0.32488   0.00000  Uiso   1.00
H36    H     0.18517   0.67762   0.37596   0.00000  Uiso   1.00
H37    H     0.74272   0.79948   0.33841   0.00000  Uiso   1.00
O38    O     0.79969   0.34448   0.41236   0.00000  Uiso   1.00
O39    O     0.29660   0.71655   0.47937   0.00000  Uiso   1.00
O40    O     0.71612   0.87643   0.43011   0.00000  Uiso   1.00
N41    N     0.85325   0.44298   0.47117   0.00000  Uiso   1.00
N42    N     0.20737   0.70811   0.51892   0.00000  Uiso   1.00
N43    N     0.79373   0.82206   0.48382   0.00000  Uiso   1.00
N44    N     0.82525   0.41919   0.36979   0.00000  Uiso   1.00
N45    N     0.17937   0.68432   0.41754   0.00000  Uiso   1.00
N46    N     0.76573   0.79826   0.38245   0.00000  Uiso   1.00
C47    C     0.54367   0.98842   0.64992   0.00000  Uiso   1.00
C48    C     0.49341   0.94021   0.59304   0.00000  Uiso   1.00
C49    C     0.48828   0.93269   0.53175   0.00000  Uiso   1.00
C50    C     0.43900   0.88592   0.48639   0.00000  Uiso   1.00
C51    C     0.36741   0.81683   0.39573   0.00000  Uiso   1.00
C52    C     0.49853   0.02301   0.68292   0.00000  Uiso   1.00
C53    C     0.49772   0.08511   0.69720   0.00000  Uiso   1.00
C54    C     0.45274   0.10804   0.72751   0.00000  Uiso   1.00
C55    C     0.38914   0.16751   0.77642   0.00000  Uiso   1.00
C56    C     0.58534   0.95430   0.69327   0.00000  Uiso   1.00
C57    C     0.65751   0.95863   0.71629   0.00000  Uiso   1.00
C58    C     0.68563   0.92371   0.75533   0.00000  Uiso   1.00
C59    C     0.75681   0.87649   0.82032   0.00000  Uiso   1.00
C60    C     0.46526   0.91873   0.67834   0.00000  Uiso   1.00
C61    C     0.45082   0.90236   0.60848   0.00000  Uiso   1.00
C62    C     0.40153   0.85558   0.56320   0.00000  Uiso   1.00
C63    C     0.39634   0.84799   0.50186   0.00000  Uiso   1.00
C64    C     0.45594   0.98516   0.69836   0.00000  Uiso   1.00
C65    C     0.41096   0.00800   0.72865   0.00000  Uiso   1.00
C66    C     0.41008   0.07012   0.74298   0.00000  Uiso   1.00
C67    C     0.54275   0.91644   0.70871   0.00000  Uiso   1.00
C68    C     0.57076   0.88152   0.74773   0.00000  Uiso   1.00
C69    C     0.64296   0.88579   0.77079   0.00000  Uiso   1.00
H70    H     0.57683   0.01790   0.63790   0.00000  Uiso   1.00
H71    H     0.52125   0.96200   0.51982   0.00000  Uiso   1.00
H72    H     0.53068   0.11439   0.68526   0.00000  Uiso   1.00
H73    H     0.69045   0.98793   0.70433   0.00000  Uiso   1.00
H74    H     0.44083   0.88334   0.39572   0.00000  Uiso   1.00
H75    H     0.46074   0.20468   0.74456   0.00000  Uiso   1.00
H76    H     0.79765   0.93800   0.78479   0.00000  Uiso   1.00
H77    H     0.43210   0.88926   0.69036   0.00000  Uiso   1.00
H78    H     0.36858   0.82629   0.57516   0.00000  Uiso   1.00
H79    H     0.37801   0.97869   0.74059   0.00000  Uiso   1.00
H80    H     0.53779   0.85223   0.75967   0.00000  Uiso   1.00
H81    H     0.31692   0.77320   0.44064   0.00000  Uiso   1.00
H82    H     0.33683   0.09454   0.78948   0.00000  Uiso   1.00
H83    H     0.67374   0.82787   0.82970   0.00000  Uiso   1.00
O84    O     0.33968   0.78918   0.34145   0.00000  Uiso   1.00
O85    O     0.36582   0.21077   0.79912   0.00000  Uiso   1.00
O86    O     0.80783   0.86090   0.85189   0.00000  Uiso   1.00
N87    N     0.42039   0.86605   0.42210   0.00000  Uiso   1.00
N88    N     0.43900   0.16648   0.74824   0.00000  Uiso   1.00
N89    N     0.75399   0.91718   0.78586   0.00000  Uiso   1.00
N90    N     0.35372   0.80679   0.44627   0.00000  Uiso   1.00
N91    N     0.37233   0.10722   0.77241   0.00000  Uiso   1.00
N92    N     0.68731   0.85791   0.81003   0.00000  Uiso   1.00
C93    C     0.68980   0.47360   0.96991   0.00000  Uiso   1.00
C94    C     0.61137   0.46097   0.93407   0.00000  Uiso   1.00
C95    C     0.56677   0.50423   0.92964   0.00000  Uiso   1.00
C96    C     0.49674   0.48349   0.89466   0.00000  Uiso   1.00
C97    C     0.37869   0.47328   0.84353   0.00000  Uiso   1.00
C98    C     0.70325   0.43603   0.01561   0.00000  Uiso   1.00
C99    C     0.73590   0.45833   0.07973   0.00000  Uiso   1.00
C100   C     0.74322   0.41659   0.11339   0.00000  Uiso   1.00
C101   C     0.76785   0.36765   0.18885   0.00000  Uiso   1.00
C102   C     0.72390   0.44584   0.92288   0.00000  Uiso   1.00
C103   C     0.77394   0.47638   0.90904   0.00000  Uiso   1.00
C104   C     0.79866   0.44290   0.86464   0.00000  Uiso   1.00
C105   C     0.85536   0.40919   0.79611   0.00000  Uiso   1.00
C106   C     0.64476   0.35983   0.91568   0.00000  Uiso   1.00
C107   C     0.58691   0.39917   0.90462   0.00000  Uiso   1.00
C108   C     0.51694   0.37836   0.86964   0.00000  Uiso   1.00
C109   C     0.47224   0.42159   0.86515   0.00000  Uiso   1.00
C110   C     0.67879   0.37423   0.98616   0.00000  Uiso   1.00
C111   C     0.68607   0.33245   0.01973   0.00000  Uiso   1.00
C112   C     0.71872   0.35468   0.08389   0.00000  Uiso   1.00
C113   C     0.69944   0.38404   0.89342   0.00000  Uiso   1.00
C114   C     0.72410   0.35051   0.84904   0.00000  Uiso   1.00
C115   C     0.77416   0.38100   0.83513   0.00000  Uiso   1.00
H116   H     0.70884   0.52171   0.99284   0.00000  Uiso   1.00
H117   H     0.58572   0.55205   0.95244   0.00000  Uiso   1.00
H118   H     0.75483   0.50615   0.10251   0.00000  Uiso   1.00
H119   H     0.79285   0.52420   0.93184   0.00000  Uiso   1.00
H120   H     0.43842   0.55844   0.89468   0.00000  Uiso   1.00
H121   H     0.79502   0.46165   0.21111   0.00000  Uiso   1.00
H122   H     0.87521   0.49972   0.85122   0.00000  Uiso   1.00
H123   H     0.62571   0.31172   0.89275   0.00000  Uiso   1.00
H124   H     0.49802   0.33054   0.84685   0.00000  Uiso   1.00
H125   H     0.66714   0.28464   0.99693   0.00000  Uiso   1.00
H126   H     0.70516   0.30269   0.82626   0.00000  Uiso   1.00
H127   H     0.36724   0.37865   0.80899   0.00000  Uiso   1.00
H128   H     0.72385   0.28186   0.12541   0.00000  Uiso   1.00
H129   H     0.80403   0.31993   0.76552   0.00000  Uiso   1.00
O130   O     0.32033   0.48471   0.82347   0.00000  Uiso   1.00
O131   O     0.78819   0.35773   0.23860   0.00000  Uiso   1.00
O132   O     0.89338   0.40767   0.76644   0.00000  Uiso   1.00
N133   N     0.43919   0.51354   0.88080   0.00000  Uiso   1.00
N134   N     0.77258   0.42305   0.17664   0.00000  Uiso   1.00
N135   N     0.84756   0.45864   0.84019   0.00000  Uiso   1.00
N136   N     0.40089   0.41680   0.83469   0.00000  Uiso   1.00
N137   N     0.73428   0.32631   0.13053   0.00000  Uiso   1.00
N138   N     0.80927   0.36190   0.79408   0.00000  Uiso   1.00
C139   C     0.37129   0.98234   0.16928   0.00000  Uiso   1.00
C140   C     0.33288   0.95134   0.10004   0.00000  Uiso   1.00
C141   C     0.31160   0.98036   0.05415   0.00000  Uiso   1.00
C142   C     0.27721   0.94393   0.99355   0.00000  Uiso   1.00
C143   C     0.21952   0.90540   0.88818   0.00000  Uiso   1.00
C144   C     0.43820   0.95437   0.18705   0.00000  Uiso   1.00
C145   C     0.50547   0.98594   0.21431   0.00000  Uiso   1.00
C146   C     0.55973   0.95206   0.22696   0.00000  Uiso   1.00
C147   C     0.66554   0.91823   0.25671   0.00000  Uiso   1.00
C148   C     0.32688   0.96162   0.20293   0.00000  Uiso   1.00
C149   C     0.30056   0.99929   0.24356   0.00000  Uiso   1.00
C150   C     0.26111   0.97151   0.26959   0.00000  Uiso   1.00
C151   C     0.19408   0.94895   0.32400   0.00000  Uiso   1.00
C152   C     0.34804   0.86604   0.14327   0.00000  Uiso   1.00
C153   C     0.32025   0.88817   0.08591   0.00000  Uiso   1.00
C154   C     0.28588   0.85169   0.02537   0.00000  Uiso   1.00
C155   C     0.26455   0.88065   0.97939   0.00000  Uiso   1.00
C156   C     0.42557   0.89120   0.17292   0.00000  Uiso   1.00
C157   C     0.47975   0.85726   0.18553   0.00000  Uiso   1.00
C158   C     0.54708   0.88877   0.21280   0.00000  Uiso   1.00
C159   C     0.31425   0.89845   0.18880   0.00000  Uiso   1.00
C160   C     0.27483   0.87061   0.21478   0.00000  Uiso   1.00
C161   C     0.24846   0.90823   0.25544   0.00000  Uiso   1.00
H162   H     0.38113   0.03152   0.18028   0.00000  Uiso   1.00
H163   H     0.32139   0.02925   0.06510   0.00000  Uiso   1.00
H164   H     0.51523   0.03482   0.22525   0.00000  Uiso   1.00
H165   H     0.31035   0.04817   0.25449   0.00000  Uiso   1.00
H166   H     0.24962   0.99886   0.93116   0.00000  Uiso   1.00
H167   H     0.65832   0.01062   0.26886   0.00000  Uiso   1.00
H168   H     0.22630   0.03877   0.33052   0.00000  Uiso   1.00
H169   H     0.33821   0.81686   0.13227   0.00000  Uiso   1.00
H170   H     0.27611   0.80280   0.01445   0.00000  Uiso   1.00
H171   H     0.46995   0.80838   0.17459   0.00000  Uiso   1.00
H172   H     0.26507   0.82173   0.20383   0.00000  Uiso   1.00
H173   H     0.21287   0.81507   0.89005   0.00000  Uiso   1.00
H174   H     0.62158   0.82684   0.22775   0.00000  Uiso   1.00
H175   H     0.18955   0.85498   0.28940   0.00000  Uiso   1.00
O176   O     0.19119   0.90159   0.83396   0.00000  Uiso   1.00
O177   O     0.72740   0.91702   0.27702   0.00000  Uiso   1.00
O178   O     0.16059   0.95395   0.35791   0.00000  Uiso   1.00
N179   N     0.24948   0.95754   0.93766   0.00000  Uiso   1.00
N180   N     0.63160   0.96853   0.25337   0.00000  Uiso   1.00
N181   N     0.22770   0.99485   0.31103   0.00000  Uiso   1.00
N182   N     0.22970   0.85864   0.91554   0.00000  Uiso   1.00
N183   N     0.61182   0.86964   0.23125   0.00000  Uiso   1.00
N184   N     0.20793   0.89595   0.28891   0.00000  Uiso   1.00
C185   C     0.99973   0.16449   0.47941   0.00000  Uiso   1.00
C186   C     0.96712   0.09976   0.44004   0.00000  Uiso   1.00
C187   C     0.00290   0.05052   0.43216   0.00000  Uiso   1.00
C188   C     0.96361   0.99505   0.39431   0.00000  Uiso   1.00
C189   C     0.92400   0.89543   0.33761   0.00000  Uiso   1.00
C190   C     0.96225   0.18235   0.52593   0.00000  Uiso   1.00
C191   C     0.99393   0.20255   0.59025   0.00000  Uiso   1.00
C192   C     0.95053   0.21661   0.62469   0.00000  Uiso   1.00
C193   C     0.90336   0.24525   0.70132   0.00000  Uiso   1.00
C194   C     0.97839   0.20388   0.43579   0.00000  Uiso   1.00
C195   C     0.02363   0.24219   0.42434   0.00000  Uiso   1.00
C196   C     0.99381   0.27438   0.38289   0.00000  Uiso   1.00
C197   C     0.97170   0.33645   0.31958   0.00000  Uiso   1.00
C198   C     0.86632   0.15356   0.42619   0.00000  Uiso   1.00
C199   C     0.89466   0.09382   0.41114   0.00000  Uiso   1.00
C200   C     0.85530   0.03841   0.37328   0.00000  Uiso   1.00
C201   C     0.89102   0.98909   0.36535   0.00000  Uiso   1.00
C202   C     0.88979   0.17641   0.49702   0.00000  Uiso   1.00
C203   C     0.84634   0.19044   0.53137   0.00000  Uiso   1.00
C204   C     0.87794   0.21065   0.59573   0.00000  Uiso   1.00
C205   C     0.90592   0.19793   0.40688   0.00000  Uiso   1.00
C206   C     0.87603   0.23008   0.36546   0.00000  Uiso   1.00
C207   C     0.92122   0.26843   0.35394   0.00000  Uiso   1.00
H208   H     0.05614   0.16912   0.50191   0.00000  Uiso   1.00
H209   H     0.05898   0.05513   0.45455   0.00000  Uiso   1.00
H210   H     0.05001   0.20715   0.61261   0.00000  Uiso   1.00
H211   H     0.07970   0.24678   0.44671   0.00000  Uiso   1.00
H212   H     0.03016   0.92613   0.38930   0.00000  Uiso   1.00
H213   H     0.01126   0.24668   0.72258   0.00000  Uiso   1.00
H214   H     0.07387   0.33025   0.37276   0.00000  Uiso   1.00
H215   H     0.80991   0.14893   0.40369   0.00000  Uiso   1.00
H216   H     0.79923   0.03383   0.35092   0.00000  Uiso   1.00
H217   H     0.79026   0.18584   0.50899   0.00000  Uiso   1.00
H218   H     0.81996   0.22547   0.34310   0.00000  Uiso   1.00
H219   H     0.81934   0.90884   0.30520   0.00000  Uiso   1.00
H220   H     0.80044   0.22939   0.63848   0.00000  Uiso   1.00
H221   H     0.86305   0.31296   0.28866   0.00000  Uiso   1.00
O222   O     0.92217   0.84213   0.31433   0.00000  Uiso   1.00
O223   O     0.89737   0.26268   0.75158   0.00000  Uiso   1.00
O224   O     0.97952   0.37232   0.29263   0.00000  Uiso   1.00
N225   N     0.98201   0.93786   0.37673   0.00000  Uiso   1.00
N226   N     0.96434   0.23754   0.68833   0.00000  Uiso   1.00
N227   N     0.02287   0.31569   0.36130   0.00000  Uiso   1.00
N228   N     0.86857   0.92855   0.33148   0.00000  Uiso   1.00
N229   N     0.85090   0.22824   0.64308   0.00000  Uiso   1.00
N230   N     0.90943   0.30638   0.31605   0.00000  Uiso   1.00
C231   C     0.19743   0.46070   0.99563   0.00000  Uiso   1.00
C232   C     0.12588   0.42212   0.97038   0.00000  Uiso   1.00
C233   C     0.08768   0.41015   0.00583   0.00000  Uiso   1.00
C234   C     0.02332   0.37384   0.97394   0.00000  Uiso   1.00
C235   C     0.91603   0.31753   0.94461   0.00000  Uiso   1.00
C236   C     0.18949   0.51004   0.96292   0.00000  Uiso   1.00
C237   C     0.20479   0.57200   0.99210   0.00000  Uiso   1.00
C238   C     0.19398   0.60971   0.95393   0.00000  Uiso   1.00
C239   C     0.18550   0.68990   0.91302   0.00000  Uiso   1.00
C240   C     0.24513   0.42033   0.97159   0.00000  Uiso   1.00
C241   C     0.30723   0.40688   0.00805   0.00000  Uiso   1.00
C242   C     0.34329   0.36906   0.97718   0.00000  Uiso   1.00
C243   C     0.42120   0.30997   0.94974   0.00000  Uiso   1.00
C244   C     0.15104   0.41750   0.87596   0.00000  Uiso   1.00
C245   C     0.10068   0.39866   0.90537   0.00000  Uiso   1.00
C246   C     0.03636   0.36235   0.87342   0.00000  Uiso   1.00
C247   C     0.99808   0.35033   0.90882   0.00000  Uiso   1.00
C248   C     0.16429   0.48658   0.89792   0.00000  Uiso   1.00
C249   C     0.15346   0.52420   0.85969   0.00000  Uiso   1.00
C250   C     0.16873   0.58620   0.88881   0.00000  Uiso   1.00
C251   C     0.21994   0.39687   0.90658   0.00000  Uiso   1.00
C252   C     0.25590   0.35907   0.87565   0.00000  Uiso   1.00
C253   C     0.31804   0.34556   0.91206   0.00000  Uiso   1.00
H254   H     0.21705   0.47897   0.04623   0.00000  Uiso   1.00
H255   H     0.10720   0.42832   0.05613   0.00000  Uiso   1.00
H256   H     0.22429   0.59015   0.04240   0.00000  Uiso   1.00
H257   H     0.32672   0.42504   0.05835   0.00000  Uiso   1.00
H258   H     0.97429   0.36184   0.03843   0.00000  Uiso   1.00
H259   H     0.22120   0.70305   0.00948   0.00000  Uiso   1.00
H260   H     0.43719   0.35490   0.04313   0.00000  Uiso   1.00
H261   H     0.13142   0.39923   0.82535   0.00000  Uiso   1.00
H262   H     0.01687   0.34420   0.82312   0.00000  Uiso   1.00
H263   H     0.13396   0.50603   0.80939   0.00000  Uiso   1.00
H264   H     0.23639   0.34092   0.82535   0.00000  Uiso   1.00
H265   H     0.90097   0.29357   0.84931   0.00000  Uiso   1.00
H266   H     0.14789   0.63478   0.82037   0.00000  Uiso   1.00
H267   H     0.36388   0.28663   0.85401   0.00000  Uiso   1.00
O268   O     0.86381   0.29296   0.94639   0.00000  Uiso   1.00
O269   O     0.18777   0.74062   0.90842   0.00000  Uiso   1.00
O270   O     0.47114   0.28385   0.95255   0.00000  Uiso   1.00
N271   N     0.97276   0.35332   0.99423   0.00000  Uiso   1.00
N272   N     0.20360   0.67233   0.96717   0.00000  Uiso   1.00
N273   N     0.40554   0.34685   0.99862   0.00000  Uiso   1.00
N274   N     0.93331   0.31658   0.89247   0.00000  Uiso   1.00
N275   N     0.16415   0.63559   0.86540   0.00000  Uiso   1.00
N276   N     0.36609   0.31011   0.89685   0.00000  Uiso   1.00
C277   C     0.11392   0.39034   0.56034   0.00000  Uiso   1.00
C278   C     0.15006   0.45541   0.59358   0.00000  Uiso   1.00
C279   C     0.16384   0.49749   0.56500   0.00000  Uiso   1.00
C280   C     0.19736   0.55465   0.60357   0.00000  Uiso   1.00
C281   C     0.25055   0.65350   0.64532   0.00000  Uiso   1.00
C282   C     0.05152   0.38366   0.58097   0.00000  Uiso   1.00
C283   C     0.98245   0.36540   0.54179   0.00000  Uiso   1.00
C284   C     0.93304   0.36215   0.56976   0.00000  Uiso   1.00
C285   C     0.83326   0.34956   0.59194   0.00000  Uiso   1.00
C286   C     0.16418   0.35023   0.58825   0.00000  Uiso   1.00
C287   C     0.18982   0.30385   0.55518   0.00000  Uiso   1.00
C288   C     0.23524   0.27245   0.58928   0.00000  Uiso   1.00
C289   C     0.31037   0.20795   0.62275   0.00000  Uiso   1.00
C290   C     0.14896   0.41703   0.67967   0.00000  Uiso   1.00
C291   C     0.16909   0.46991   0.65839   0.00000  Uiso   1.00
C292   C     0.20261   0.52702   0.69703   0.00000  Uiso   1.00
C293   C     0.21643   0.56917   0.66851   0.00000  Uiso   1.00
C294   C     0.07055   0.39816   0.64579   0.00000  Uiso   1.00
C295   C     0.02123   0.39494   0.67382   0.00000  Uiso   1.00
C296   C     0.95210   0.37668   0.63470   0.00000  Uiso   1.00
C297   C     0.18321   0.36473   0.65307   0.00000  Uiso   1.00
C298   C     0.22859   0.33339   0.68721   0.00000  Uiso   1.00
C299   C     0.25430   0.28697   0.65421   0.00000  Uiso   1.00
H300   H     0.09909   0.37905   0.50988   0.00000  Uiso   1.00
H301   H     0.14909   0.48625   0.51483   0.00000  Uiso   1.00
H302   H     0.96774   0.35417   0.49163   0.00000  Uiso   1.00
H303   H     0.17508   0.29264   0.50503   0.00000  Uiso   1.00
H304   H     0.21289   0.61150   0.54891   0.00000  Uiso   1.00
H305   H     0.83051   0.33300   0.49999   0.00000  Uiso   1.00
H306   H     0.26772   0.20324   0.52823   0.00000  Uiso   1.00
H307   H     0.16378   0.42832   0.73014   0.00000  Uiso   1.00
H308   H     0.21733   0.53823   0.74718   0.00000  Uiso   1.00
H309   H     0.03598   0.40616   0.72398   0.00000  Uiso   1.00
H310   H     0.24331   0.34462   0.73737   0.00000  Uiso   1.00
H311   H     0.26828   0.65370   0.73750   0.00000  Uiso   1.00
H312   H     0.88589   0.37519   0.68858   0.00000  Uiso   1.00
H313   H     0.32310   0.24543   0.71681   0.00000  Uiso   1.00
O314   O     0.27463   0.70402   0.65044   0.00000  Uiso   1.00
O315   O     0.77296   0.33862   0.58626   0.00000  Uiso   1.00
O316   O     0.34656   0.16838   0.62331   0.00000  Uiso   1.00
N317   N     0.21859   0.60635   0.59096   0.00000  Uiso   1.00
N318   N     0.86109   0.34597   0.54522   0.00000  Uiso   1.00
N319   N     0.26982   0.22465   0.57162   0.00000  Uiso   1.00
N320   N     0.24839   0.62905   0.69243   0.00000  Uiso   1.00
N321   N     0.89089   0.36867   0.64670   0.00000  Uiso   1.00
N322   N     0.29962   0.24735   0.67309   0.00000  Uiso   1.00
C323   C     0.49417   0.12450   0.41476   0.00000  Uiso   1.00
C324   C     0.51991   0.14975   0.48553   0.00000  Uiso   1.00
C325   C     0.47868   0.16931   0.52094   0.00000  Uiso   1.00
C326   C     0.51214   0.19087   0.58504   0.00000  Uiso   1.00
C327   C     0.54113   0.22976   0.69073   0.00000  Uiso   1.00
C328   C     0.51712   0.06213   0.40092   0.00000  Uiso   1.00
C329   C     0.47354   0.00802   0.36518   0.00000  Uiso   1.00
C330   C     0.50465   0.95581   0.35805   0.00000  Uiso   1.00
C331   C     0.52931   0.85867   0.33235   0.00000  Uiso   1.00
C332   C     0.53643   0.16402   0.39269   0.00000  Uiso   1.00
C333   C     0.50910   0.19558   0.35001   0.00000  Uiso   1.00
C334   C     0.55647   0.22915   0.33594   0.00000  Uiso   1.00
C335   C     0.61113   0.29022   0.29745   0.00000  Uiso   1.00
C336   C     0.62689   0.12800   0.46564   0.00000  Uiso   1.00
C337   C     0.59200   0.15165   0.51317   0.00000  Uiso   1.00
C338   C     0.62552   0.17319   0.57723   0.00000  Uiso   1.00
C339   C     0.58436   0.19278   0.61273   0.00000  Uiso   1.00
C340   C     0.58920   0.06403   0.42856   0.00000  Uiso   1.00
C341   C     0.62038   0.01189   0.42148   0.00000  Uiso   1.00
C342   C     0.57687   0.95772   0.38574   0.00000  Uiso   1.00
C343   C     0.60852   0.16593   0.42033   0.00000  Uiso   1.00
C344   C     0.65595   0.19945   0.40631   0.00000  Uiso   1.00
C345   C     0.62869   0.23106   0.36362   0.00000  Uiso   1.00
H346   H     0.43804   0.12302   0.39324   0.00000  Uiso   1.00
H347   H     0.42289   0.16783   0.49953   0.00000  Uiso   1.00
H348   H     0.41776   0.00656   0.34380   0.00000  Uiso   1.00
H349   H     0.45331   0.19409   0.32864   0.00000  Uiso   1.00
H350   H     0.43789   0.21833   0.62957   0.00000  Uiso   1.00
H351   H     0.42705   0.87829   0.30117   0.00000  Uiso   1.00
H352   H     0.50203   0.27374   0.26920   0.00000  Uiso   1.00
H353   H     0.68302   0.12948   0.48715   0.00000  Uiso   1.00
H354   H     0.68131   0.17465   0.59860   0.00000  Uiso   1.00
H355   H     0.67617   0.01338   0.44287   0.00000  Uiso   1.00
H356   H     0.71173   0.20091   0.42770   0.00000  Uiso   1.00
H357   H     0.64763   0.22386   0.70998   0.00000  Uiso   1.00
H358   H     0.63679   0.88382   0.38158   0.00000  Uiso   1.00
H359   H     0.71177   0.27927   0.34961   0.00000  Uiso   1.00
O360   O     0.53721   0.25068   0.74139   0.00000  Uiso   1.00
O361   O     0.52300   0.80456   0.31054   0.00000  Uiso   1.00
O362   O     0.62137   0.32338   0.26859   0.00000  Uiso   1.00
N363   N     0.48748   0.21345   0.63320   0.00000  Uiso   1.00
N364   N     0.47735   0.89552   0.32618   0.00000  Uiso   1.00
N365   N     0.54745   0.26522   0.29627   0.00000  Uiso   1.00
N366   N     0.60034   0.21642   0.67646   0.00000  Uiso   1.00
N367   N     0.59021   0.89850   0.36944   0.00000  Uiso   1.00
N368   N     0.66031   0.26820   0.33953   0.00000  Uiso   1.00
C369   C     0.40824   0.56137   0.09393   0.00000  Uiso   1.00
C370   C     0.48681   0.57248   0.12893   0.00000  Uiso   1.00
C371   C     0.53005   0.52815   0.13284   0.00000  Uiso   1.00
C372   C     0.60048   0.54756   0.16708   0.00000  Uiso   1.00
C373   C     0.71850   0.55544   0.21695   0.00000  Uiso   1.00
C374   C     0.39542   0.59884   0.04814   0.00000  Uiso   1.00
C375   C     0.36181   0.57667   0.98412   0.00000  Uiso   1.00
C376   C     0.35530   0.61827   0.95036   0.00000  Uiso   1.00
C377   C     0.33139   0.66708   0.87481   0.00000  Uiso   1.00
C378   C     0.37551   0.59045   0.14162   0.00000  Uiso   1.00
C379   C     0.32514   0.56124   0.15619   0.00000  Uiso   1.00
C380   C     0.30186   0.59579   0.20111   0.00000  Uiso   1.00
C381   C     0.24705   0.63158   0.27070   0.00000  Uiso   1.00
C382   C     0.45644   0.67468   0.14779   0.00000  Uiso   1.00
C383   C     0.51299   0.63402   0.15818   0.00000  Uiso   1.00
C384   C     0.58337   0.65351   0.19243   0.00000  Uiso   1.00
C385   C     0.62670   0.60921   0.19639   0.00000  Uiso   1.00
C386   C     0.42160   0.66038   0.07739   0.00000  Uiso   1.00
C387   C     0.41513   0.70203   0.04372   0.00000  Uiso   1.00
C388   C     0.38152   0.67993   0.97967   0.00000  Uiso   1.00
C389   C     0.40169   0.65200   0.17087   0.00000  Uiso   1.00
C390   C     0.37848   0.68660   0.21578   0.00000  Uiso   1.00
C391   C     0.32809   0.65744   0.23042   0.00000  Uiso   1.00
H392   H     0.38785   0.51346   0.07115   0.00000  Uiso   1.00
H393   H     0.50977   0.48052   0.11018   0.00000  Uiso   1.00
H394   H     0.34155   0.52904   0.96150   0.00000  Uiso   1.00
H395   H     0.30490   0.51361   0.13354   0.00000  Uiso   1.00
H396   H     0.65648   0.47115   0.16635   0.00000  Uiso   1.00
H397   H     0.30176   0.57345   0.85284   0.00000  Uiso   1.00
H398   H     0.22447   0.54092   0.21561   0.00000  Uiso   1.00
H399   H     0.47682   0.72260   0.17057   0.00000  Uiso   1.00
H400   H     0.60362   0.70114   0.21507   0.00000  Uiso   1.00
H401   H     0.43540   0.74965   0.06637   0.00000  Uiso   1.00
H402   H     0.39875   0.73422   0.23841   0.00000  Uiso   1.00
H403   H     0.73265   0.65020   0.25147   0.00000  Uiso   1.00
H404   H     0.37793   0.75251   0.93796   0.00000  Uiso   1.00
H405   H     0.30064   0.71998   0.30074   0.00000  Uiso   1.00
O406   O     0.77638   0.54279   0.23637   0.00000  Uiso   1.00
O407   O     0.31098   0.67700   0.82506   0.00000  Uiso   1.00
O408   O     0.20959   0.63433   0.30101   0.00000  Uiso   1.00
N409   N     0.65700   0.51623   0.18029   0.00000  Uiso   1.00
N410   N     0.32537   0.61188   0.88717   0.00000  Uiso   1.00
N411   N     0.25310   0.58147   0.22632   0.00000  Uiso   1.00
N412   N     0.69799   0.61258   0.22609   0.00000  Uiso   1.00
N413   N     0.36636   0.70823   0.93297   0.00000  Uiso   1.00
N414   N     0.29409   0.67782   0.27213   0.00000  Uiso   1.00
C415   C     0.49624   0.04203   0.92832   0.00000  Uiso   1.00
C416   C     0.52984   0.06568   0.99904   0.00000  Uiso   1.00
C417   C     0.55761   0.03113   0.03854   0.00000  Uiso   1.00
C418   C     0.58597   0.06124   0.10181   0.00000  Uiso   1.00
C419   C     0.63802   0.08846   0.20814   0.00000  Uiso   1.00
C420   C     0.42316   0.05983   0.91224   0.00000  Uiso   1.00
C421   C     0.36124   0.02037   0.87875   0.00000  Uiso   1.00
C422   C     0.29981   0.04557   0.86895   0.00000  Uiso   1.00
C423   C     0.18625   0.06372   0.84048   0.00000  Uiso   1.00
C424   C     0.53639   0.07932   0.90257   0.00000  Uiso   1.00
C425   C     0.56966   0.05624   0.86093   0.00000  Uiso   1.00
C426   C     0.60354   0.09784   0.84297   0.00000  Uiso   1.00
C427   C     0.66579   0.14625   0.79948   0.00000  Uiso   1.00
C428   C     0.49723   0.15693   0.97046   0.00000  Uiso   1.00
C429   C     0.53037   0.12809   0.02193   0.00000  Uiso   1.00
C430   C     0.55870   0.15826   0.08516   0.00000  Uiso   1.00
C431   C     0.58651   0.12376   0.12475   0.00000  Uiso   1.00
C432   C     0.42370   0.12224   0.93513   0.00000  Uiso   1.00
C433   C     0.36234   0.14750   0.92538   0.00000  Uiso   1.00
C434   C     0.30034   0.10809   0.89189   0.00000  Uiso   1.00
C435   C     0.53693   0.14173   0.92546   0.00000  Uiso   1.00
C436   C     0.57076   0.18337   0.90756   0.00000  Uiso   1.00
C437   C     0.60408   0.16037   0.86591   0.00000  Uiso   1.00
H438   H     0.49582   0.99344   0.91050   0.00000  Uiso   1.00
H439   H     0.55718   0.98283   0.02080   0.00000  Uiso   1.00
H440   H     0.36085   0.97208   0.86104   0.00000  Uiso   1.00
H441   H     0.56924   0.00794   0.84322   0.00000  Uiso   1.00
H442   H     0.62542   0.99859   0.15319   0.00000  Uiso   1.00
H443   H     0.21145   0.97592   0.81630   0.00000  Uiso   1.00
H444   H     0.65087   0.05155   0.77873   0.00000  Uiso   1.00
H445   H     0.49764   0.20552   0.98829   0.00000  Uiso   1.00
H446   H     0.55911   0.20656   0.10286   0.00000  Uiso   1.00
H447   H     0.36277   0.19580   0.94310   0.00000  Uiso   1.00
H448   H     0.57116   0.23166   0.92528   0.00000  Uiso   1.00
H449   H     0.62698   0.18017   0.21980   0.00000  Uiso   1.00
H450   H     0.21301   0.15750   0.88290   0.00000  Uiso   1.00
H451   H     0.65244   0.23313   0.84534   0.00000  Uiso   1.00
O452   O     0.66658   0.08623   0.26047   0.00000  Uiso   1.00
O453   O     0.12346   0.05649   0.81846   0.00000  Uiso   1.00
O454   O     0.69999   0.15571   0.76918   0.00000  Uiso   1.00
N455   N     0.61737   0.04119   0.15314   0.00000  Uiso   1.00
N456   N     0.23032   0.01999   0.83818   0.00000  Uiso   1.00
N457   N     0.64114   0.09069   0.80304   0.00000  Uiso   1.00
N458   N     0.61821   0.13890   0.18898   0.00000  Uiso   1.00
N459   N     0.23117   0.11770   0.87402   0.00000  Uiso   1.00
N460   N     0.64198   0.18840   0.83888   0.00000  Uiso   1.00
C461   C     0.05452   0.88246   0.57851   0.00000  Uiso   1.00
C462   C     0.08317   0.94829   0.61645   0.00000  Uiso   1.00
C463   C     0.04358   0.99436   0.62657   0.00000  Uiso   1.00
C464   C     0.07964   0.05153   0.66258   0.00000  Uiso   1.00
C465   C     0.11303   0.15214   0.71766   0.00000  Uiso   1.00
C466   C     0.08781   0.86802   0.52857   0.00000  Uiso   1.00
C467   C     0.05211   0.84658   0.46481   0.00000  Uiso   1.00
C468   C     0.09207   0.83616   0.42684   0.00000  Uiso   1.00
C469   C     0.13265   0.81209   0.34549   0.00000  Uiso   1.00
C470   C     0.08472   0.84451   0.62200   0.00000  Uiso   1.00
C471   C     0.04642   0.80329   0.63679   0.00000  Uiso   1.00
C472   C     0.08379   0.77307   0.67748   0.00000  Uiso   1.00
C473   C     0.11957   0.71251   0.74120   0.00000  Uiso   1.00
C474   C     0.18898   0.90207   0.62446   0.00000  Uiso   1.00
C475   C     0.15620   0.95894   0.64140   0.00000  Uiso   1.00
C476   C     0.19234   0.01606   0.67741   0.00000  Uiso   1.00
C477   C     0.15280   0.06220   0.68759   0.00000  Uiso   1.00
C478   C     0.16084   0.87867   0.55352   0.00000  Uiso   1.00
C479   C     0.20087   0.86827   0.51564   0.00000  Uiso   1.00
C480   C     0.16524   0.84683   0.45184   0.00000  Uiso   1.00
C481   C     0.15775   0.85516   0.64696   0.00000  Uiso   1.00
C482   C     0.19518   0.82499   0.68763   0.00000  Uiso   1.00
C483   C     0.15695   0.78374   0.70248   0.00000  Uiso   1.00
H484   H     0.99766   0.87417   0.55908   0.00000  Uiso   1.00
H485   H     0.98706   0.98610   0.60724   0.00000  Uiso   1.00
H486   H     0.99559   0.83833   0.44551   0.00000  Uiso   1.00
H487   H     0.98991   0.79506   0.61747   0.00000  Uiso   1.00
H488   H     0.00752   0.11490   0.67163   0.00000  Uiso   1.00
H489   H     0.02550   0.80331   0.33060   0.00000  Uiso   1.00
H490   H     0.01351   0.71206   0.69321   0.00000  Uiso   1.00
H491   H     0.24584   0.91036   0.64389   0.00000  Uiso   1.00
H492   H     0.24885   0.02429   0.69672   0.00000  Uiso   1.00
H493   H     0.25738   0.87652   0.53498   0.00000  Uiso   1.00
H494   H     0.25170   0.83325   0.70694   0.00000  Uiso   1.00
H495   H     0.22000   0.14589   0.74425   0.00000  Uiso   1.00
H496   H     0.23798   0.83430   0.40321   0.00000  Uiso   1.00
H497   H     0.22599   0.74305   0.76583   0.00000  Uiso   1.00
O498   O     0.11126   0.20469   0.74114   0.00000  Uiso   1.00
O499   O     0.13486   0.79588   0.29372   0.00000  Uiso   1.00
O500   O     0.11913   0.67617   0.76946   0.00000  Uiso   1.00
N501   N     0.05711   0.10656   0.68149   0.00000  Uiso   1.00
N502   N     0.07392   0.81525   0.36264   0.00000  Uiso   1.00
N503   N     0.06271   0.72992   0.70163   0.00000  Uiso   1.00
N504   N     0.17144   0.12324   0.72056   0.00000  Uiso   1.00
N505   N     0.18826   0.83193   0.40171   0.00000  Uiso   1.00
N506   N     0.17705   0.74660   0.74071   0.00000  Uiso   1.00
C507   C     0.90123   0.57982   0.07122   0.00000  Uiso   1.00
C508   C     0.97466   0.61330   0.09045   0.00000  Uiso   1.00
C509   C     0.00577   0.62613   0.05032   0.00000  Uiso   1.00
C510   C     0.07333   0.65718   0.07706   0.00000  Uiso   1.00
C511   C     0.18202   0.70647   0.09708   0.00000  Uiso   1.00
C512   C     0.90965   0.52616   0.09790   0.00000  Uiso   1.00
C513   C     0.88610   0.46573   0.06404   0.00000  Uiso   1.00
C514   C     0.89893   0.42343   0.09706   0.00000  Uiso   1.00
C515   C     0.90663   0.33744   0.12867   0.00000  Uiso   1.00
C516   C     0.86370   0.62213   0.10676   0.00000  Uiso   1.00
C517   C     0.80150   0.64239   0.08035   0.00000  Uiso   1.00
C518   C     0.77563   0.68088   0.12082   0.00000  Uiso   1.00
C519   C     0.71199   0.74391   0.16618   0.00000  Uiso   1.00
C520   C     0.96588   0.61214   0.19006   0.00000  Uiso   1.00
C521   C     0.00977   0.63085   0.15499   0.00000  Uiso   1.00
C522   C     0.07730   0.66189   0.18180   0.00000  Uiso   1.00
C523   C     0.10851   0.67477   0.14172   0.00000  Uiso   1.00
C524   C     0.94476   0.54371   0.16245   0.00000  Uiso   1.00
C525   C     0.95762   0.50149   0.19552   0.00000  Uiso   1.00
C526   C     0.93410   0.44101   0.16172   0.00000  Uiso   1.00
C527   C     0.89881   0.63969   0.17130   0.00000  Uiso   1.00
C528   C     0.87303   0.67815   0.21182   0.00000  Uiso   1.00
C529   C     0.81080   0.69847   0.18548   0.00000  Uiso   1.00
H530   H     0.87390   0.56615   0.02097   0.00000  Uiso   1.00
H531   H     0.97859   0.61253   0.00037   0.00000  Uiso   1.00
H532   H     0.85892   0.45216   0.01410   0.00000  Uiso   1.00
H533   H     0.77434   0.62880   0.03040   0.00000  Uiso   1.00
H534   H     0.11015   0.67168   0.00600   0.00000  Uiso   1.00
H535   H     0.85781   0.33353   0.03493   0.00000  Uiso   1.00
H536   H     0.67945   0.70600   0.06931   0.00000  Uiso   1.00
H537   H     0.99322   0.62580   0.24031   0.00000  Uiso   1.00
H538   H     0.10446   0.67547   0.23175   0.00000  Uiso   1.00
H539   H     0.98479   0.51509   0.24547   0.00000  Uiso   1.00
H540   H     0.90021   0.69173   0.26177   0.00000  Uiso   1.00
H541   H     0.21231   0.72276   0.19379   0.00000  Uiso   1.00
H542   H     0.95997   0.38461   0.22273   0.00000  Uiso   1.00
H543   H     0.78161   0.75708   0.25710   0.00000  Uiso   1.00
O544   O     0.23226   0.72880   0.09030   0.00000  Uiso   1.00
O545   O     0.90119   0.28516   0.12826   0.00000  Uiso   1.00
O546   O     0.66719   0.77383   0.17336   0.00000  Uiso   1.00
N547   N     0.11892   0.67690   0.05137   0.00000  Uiso   1.00
N548   N     0.88301   0.36075   0.07842   0.00000  Uiso   1.00
N549   N     0.71625   0.70896   0.11056   0.00000  Uiso   1.00
N550   N     0.17390   0.70438   0.15242   0.00000  Uiso   1.00
N551   N     0.93798   0.38823   0.17947   0.00000  Uiso   1.00
N552   N     0.77122   0.73645   0.21161   0.00000  Uiso   1.00
