data_job_05201
_audit_creation_date              2018-12-19
_audit_creation_method            'Materials Studio'
_symmetry_space_group_name_H-M    'P1'
_symmetry_Int_Tables_number       1
_symmetry_cell_setting            triclinic
loop_
_symmetry_equiv_pos_as_xyz
  x,y,z
_cell_length_a                    38.8695
_cell_length_b                    12.4235
_cell_length_c                    12.5960
_cell_angle_alpha                 89.9862
_cell_angle_beta                  89.4958
_cell_angle_gamma                 90.0250
loop_
_atom_site_label
_atom_site_type_symbol
_atom_site_fract_x
_atom_site_fract_y
_atom_site_fract_z
_atom_site_U_iso_or_equiv
_atom_site_adp_type
_atom_site_occupancy
C1     C     0.37500   0.83392   0.42736   0.00000  Uiso   1.00
C2     C     0.35058   0.74931   0.38312   0.00000  Uiso   1.00
C3     C     0.34299   0.65077   0.42966   0.00000  Uiso   1.00
C4     C     0.32000   0.58467   0.37671   0.00000  Uiso   1.00
C5     C     0.28435   0.44850   0.32260   0.00000  Uiso   1.00
C6     C     0.40167   0.85492   0.34027   0.00000  Uiso   1.00
C7     C     0.43704   0.84519   0.35080   0.00000  Uiso   1.00
C8     C     0.45707   0.86801   0.26178   0.00000  Uiso   1.00
C9     C     0.50073   0.89588   0.14117   0.00000  Uiso   1.00
C10    C     0.35403   0.93716   0.43752   0.00000  Uiso   1.00
C11    C     0.34936   0.99659   0.52980   0.00000  Uiso   1.00
C12    C     0.32928   0.08867   0.52264   0.00000  Uiso   1.00
C13    C     0.29898   0.24422   0.55302   0.00000  Uiso   1.00
C14    C     0.34766   0.89179   0.25055   0.00000  Uiso   1.00
C15    C     0.33573   0.78075   0.28708   0.00000  Uiso   1.00
C16    C     0.31274   0.71479   0.23404   0.00000  Uiso   1.00
C17    C     0.30513   0.61616   0.28050   0.00000  Uiso   1.00
C18    C     0.38682   0.88636   0.24424   0.00000  Uiso   1.00
C19    C     0.40680   0.90921   0.15518   0.00000  Uiso   1.00
C20    C     0.44219   0.89950   0.16557   0.00000  Uiso   1.00
C21    C     0.33918   0.96859   0.34148   0.00000  Uiso   1.00
C22    C     0.31911   0.06061   0.33418   0.00000  Uiso   1.00
C23    C     0.31440   0.12016   0.42643   0.00000  Uiso   1.00
H24    H     0.38657   0.80945   0.50212   0.00000  Uiso   1.00
H25    H     0.35449   0.62646   0.50398   0.00000  Uiso   1.00
H26    H     0.44853   0.82087   0.42513   0.00000  Uiso   1.00
H27    H     0.36085   0.97224   0.60410   0.00000  Uiso   1.00
H28    H     0.31239   0.43744   0.46367   0.00000  Uiso   1.00
H29    H     0.51067   0.84739   0.29742   0.00000  Uiso   1.00
H30    H     0.32580   0.16658   0.67482   0.00000  Uiso   1.00
H31    H     0.33610   0.91626   0.17578   0.00000  Uiso   1.00
H32    H     0.30126   0.73914   0.15973   0.00000  Uiso   1.00
H33    H     0.39530   0.93354   0.08088   0.00000  Uiso   1.00
H34    H     0.30762   0.08491   0.25985   0.00000  Uiso   1.00
H35    H     0.26919   0.52889   0.18425   0.00000  Uiso   1.00
H36    H     0.46747   0.93884   0.01801   0.00000  Uiso   1.00
H37    H     0.28259   0.25803   0.39540   0.00000  Uiso   1.00
O38    O     0.26879   0.36471   0.31927   0.00000  Uiso   1.00
O39    O     0.52892   0.90256   0.10117   0.00000  Uiso   1.00
O40    O     0.28637   0.32133   0.59630   0.00000  Uiso   1.00
N41    N     0.30700   0.48328   0.40012   0.00000  Uiso   1.00
N42    N     0.49238   0.86654   0.24469   0.00000  Uiso   1.00
N43    N     0.31954   0.16497   0.59751   0.00000  Uiso   1.00
N44    N     0.28375   0.53249   0.24977   0.00000  Uiso   1.00
N45    N     0.46913   0.91575   0.09434   0.00000  Uiso   1.00
N46    N     0.29629   0.21418   0.44716   0.00000  Uiso   1.00
C47    C     0.87838   0.21446   0.14037   0.00000  Uiso   1.00
C48    C     0.85342   0.29825   0.18449   0.00000  Uiso   1.00
C49    C     0.84535   0.39569   0.13694   0.00000  Uiso   1.00
C50    C     0.82192   0.46119   0.18996   0.00000  Uiso   1.00
C51    C     0.78543   0.59602   0.24372   0.00000  Uiso   1.00
C52    C     0.90504   0.19619   0.22663   0.00000  Uiso   1.00
C53    C     0.94037   0.20781   0.21451   0.00000  Uiso   1.00
C54    C     0.96039   0.18737   0.30300   0.00000  Uiso   1.00
C55    C     0.00403   0.16368   0.42217   0.00000  Uiso   1.00
C56    C     0.85801   0.10990   0.13247   0.00000  Uiso   1.00
C57    C     0.85380   0.04894   0.04118   0.00000  Uiso   1.00
C58    C     0.83423   0.95583   0.05040   0.00000  Uiso   1.00
C59    C     0.80485   0.79816   0.02337   0.00000  Uiso   1.00
C60    C     0.85112   0.15748   0.31908   0.00000  Uiso   1.00
C61    C     0.83861   0.26730   0.28156   0.00000  Uiso   1.00
C62    C     0.81519   0.33266   0.33466   0.00000  Uiso   1.00
C63    C     0.80708   0.43018   0.28720   0.00000  Uiso   1.00
C64    C     0.89023   0.16524   0.32370   0.00000  Uiso   1.00
C65    C     0.91020   0.14477   0.41223   0.00000  Uiso   1.00
C66    C     0.94555   0.15637   0.40024   0.00000  Uiso   1.00
C67    C     0.84320   0.07895   0.22953   0.00000  Uiso   1.00
C68    C     0.82363   0.98591   0.23890   0.00000  Uiso   1.00
C69    C     0.81939   0.92483   0.14764   0.00000  Uiso   1.00
H70    H     0.88991   0.23855   0.06481   0.00000  Uiso   1.00
H71    H     0.85682   0.41962   0.06183   0.00000  Uiso   1.00
H72    H     0.95182   0.23175   0.13938   0.00000  Uiso   1.00
H73    H     0.86526   0.07291   0.96608   0.00000  Uiso   1.00
H74    H     0.81361   0.60674   0.10135   0.00000  Uiso   1.00
H75    H     0.01392   0.21057   0.26487   0.00000  Uiso   1.00
H76    H     0.83140   0.87563   0.89943   0.00000  Uiso   1.00
H77    H     0.83959   0.13339   0.39465   0.00000  Uiso   1.00
H78    H     0.80373   0.30869   0.40977   0.00000  Uiso   1.00
H79    H     0.89873   0.12082   0.48733   0.00000  Uiso   1.00
H80    H     0.81217   0.96198   0.31403   0.00000  Uiso   1.00
H81    H     0.77052   0.51670   0.38376   0.00000  Uiso   1.00
H82    H     0.97084   0.12053   0.54727   0.00000  Uiso   1.00
H83    H     0.78831   0.78560   0.18183   0.00000  Uiso   1.00
O84    O     0.76940   0.67895   0.24657   0.00000  Uiso   1.00
O85    O     0.03220   0.15917   0.46108   0.00000  Uiso   1.00
O86    O     0.79273   0.71975   0.98164   0.00000  Uiso   1.00
N87    N     0.80839   0.56148   0.16573   0.00000  Uiso   1.00
N88    N     0.99567   0.19110   0.31861   0.00000  Uiso   1.00
N89    N     0.82503   0.87795   0.97696   0.00000  Uiso   1.00
N90    N     0.78520   0.51303   0.31769   0.00000  Uiso   1.00
N91    N     0.97248   0.14266   0.47057   0.00000  Uiso   1.00
N92    N     0.80184   0.82950   0.12892   0.00000  Uiso   1.00
C93    C     0.63216   0.33344   0.13492   0.00000  Uiso   1.00
C94    C     0.65659   0.24898   0.17932   0.00000  Uiso   1.00
C95    C     0.66424   0.15050   0.13281   0.00000  Uiso   1.00
C96    C     0.68722   0.08453   0.18592   0.00000  Uiso   1.00
C97    C     0.72289   0.94856   0.24026   0.00000  Uiso   1.00
C98    C     0.60542   0.35423   0.22183   0.00000  Uiso   1.00
C99    C     0.57006   0.34426   0.21106   0.00000  Uiso   1.00
C100   C     0.54997   0.36690   0.29995   0.00000  Uiso   1.00
C101   C     0.50620   0.39442   0.42027   0.00000  Uiso   1.00
C102   C     0.65310   0.43683   0.12492   0.00000  Uiso   1.00
C103   C     0.65781   0.49634   0.03267   0.00000  Uiso   1.00
C104   C     0.67785   0.58855   0.03997   0.00000  Uiso   1.00
C105   C     0.70811   0.74432   0.00982   0.00000  Uiso   1.00
C106   C     0.65935   0.39139   0.31192   0.00000  Uiso   1.00
C107   C     0.67135   0.28045   0.27546   0.00000  Uiso   1.00
C108   C     0.69433   0.21461   0.32865   0.00000  Uiso   1.00
C109   C     0.70202   0.11606   0.28223   0.00000  Uiso   1.00
C110   C     0.62019   0.38570   0.31797   0.00000  Uiso   1.00
C111   C     0.60014   0.40837   0.40690   0.00000  Uiso   1.00
C112   C     0.56476   0.39843   0.39627   0.00000  Uiso   1.00
C113   C     0.66787   0.46831   0.22106   0.00000  Uiso   1.00
C114   C     0.68790   0.56044   0.22851   0.00000  Uiso   1.00
C115   C     0.69265   0.62008   0.13629   0.00000  Uiso   1.00
H116   H     0.62066   0.30894   0.06007   0.00000  Uiso   1.00
H117   H     0.65281   0.12617   0.05841   0.00000  Uiso   1.00
H118   H     0.55864   0.31991   0.13665   0.00000  Uiso   1.00
H119   H     0.64638   0.47196   0.95829   0.00000  Uiso   1.00
H120   H     0.69495   0.93740   0.09899   0.00000  Uiso   1.00
H121   H     0.49639   0.34595   0.26395   0.00000  Uiso   1.00
H122   H     0.68141   0.66658   0.88783   0.00000  Uiso   1.00
H123   H     0.67085   0.41589   0.38678   0.00000  Uiso   1.00
H124   H     0.70575   0.23899   0.40305   0.00000  Uiso   1.00
H125   H     0.61158   0.43273   0.48128   0.00000  Uiso   1.00
H126   H     0.69932   0.58478   0.30292   0.00000  Uiso   1.00
H127   H     0.73792   0.02897   0.37871   0.00000  Uiso   1.00
H128   H     0.53936   0.43752   0.54366   0.00000  Uiso   1.00
H129   H     0.72438   0.75814   0.16755   0.00000  Uiso   1.00
O130   O     0.73848   0.86487   0.24368   0.00000  Uiso   1.00
O131   O     0.47798   0.40088   0.46008   0.00000  Uiso   1.00
O132   O     0.72072   0.82153   0.96662   0.00000  Uiso   1.00
N133   N     0.70028   0.98324   0.16258   0.00000  Uiso   1.00
N134   N     0.51464   0.36519   0.31681   0.00000  Uiso   1.00
N135   N     0.68761   0.66496   0.96517   0.00000  Uiso   1.00
N136   N     0.72340   0.03251   0.31310   0.00000  Uiso   1.00
N137   N     0.53776   0.41446   0.46732   0.00000  Uiso   1.00
N138   N     0.71073   0.71423   0.11569   0.00000  Uiso   1.00
C139   C     0.12861   0.71418   0.42313   0.00000  Uiso   1.00
C140   C     0.15353   0.79813   0.37890   0.00000  Uiso   1.00
C141   C     0.16156   0.89567   0.42634   0.00000  Uiso   1.00
C142   C     0.18495   0.96130   0.37323   0.00000  Uiso   1.00
C143   C     0.22137   0.09637   0.31930   0.00000  Uiso   1.00
C144   C     0.10196   0.69566   0.33690   0.00000  Uiso   1.00
C145   C     0.06662   0.70702   0.34904   0.00000  Uiso   1.00
C146   C     0.04661   0.68637   0.26058   0.00000  Uiso   1.00
C147   C     0.00297   0.66228   0.14147   0.00000  Uiso   1.00
C148   C     0.14904   0.60978   0.43113   0.00000  Uiso   1.00
C149   C     0.15328   0.54891   0.52248   0.00000  Uiso   1.00
C150   C     0.17290   0.45594   0.51335   0.00000  Uiso   1.00
C151   C     0.20236   0.29851   0.54053   0.00000  Uiso   1.00
C152   C     0.15589   0.65729   0.24446   0.00000  Uiso   1.00
C153   C     0.16835   0.76723   0.28186   0.00000  Uiso   1.00
C154   C     0.19174   0.83273   0.22867   0.00000  Uiso   1.00
C155   C     0.19980   0.93034   0.27602   0.00000  Uiso   1.00
C156   C     0.11678   0.66476   0.23986   0.00000  Uiso   1.00
C157   C     0.09681   0.64408   0.15137   0.00000  Uiso   1.00
C158   C     0.06145   0.65542   0.16336   0.00000  Uiso   1.00
C159   C     0.16386   0.57888   0.33409   0.00000  Uiso   1.00
C160   C     0.18347   0.48598   0.32481   0.00000  Uiso   1.00
C161   C     0.18774   0.42499   0.41613   0.00000  Uiso   1.00
H162   H     0.11708   0.73823   0.49867   0.00000  Uiso   1.00
H163   H     0.15008   0.91955   0.50143   0.00000  Uiso   1.00
H164   H     0.05517   0.73092   0.42415   0.00000  Uiso   1.00
H165   H     0.14181   0.57285   0.59756   0.00000  Uiso   1.00
H166   H     0.19320   0.10697   0.46168   0.00000  Uiso   1.00
H167   H     0.99306   0.70920   0.29873   0.00000  Uiso   1.00
H168   H     0.17578   0.37586   0.66440   0.00000  Uiso   1.00
H169   H     0.16743   0.63324   0.16891   0.00000  Uiso   1.00
H170   H     0.20320   0.80880   0.15357   0.00000  Uiso   1.00
H171   H     0.10828   0.62017   0.07629   0.00000  Uiso   1.00
H172   H     0.19493   0.46209   0.24970   0.00000  Uiso   1.00
H173   H     0.23631   0.01708   0.17934   0.00000  Uiso   1.00
H174   H     0.03617   0.61930   0.01639   0.00000  Uiso   1.00
H175   H     0.21889   0.28597   0.38206   0.00000  Uiso   1.00
O176   O     0.23737   0.17942   0.31635   0.00000  Uiso   1.00
O177   O     0.97480   0.65754   0.10258   0.00000  Uiso   1.00
O178   O     0.21452   0.22021   0.58234   0.00000  Uiso   1.00
N179   N     0.19844   0.06171   0.39734   0.00000  Uiso   1.00
N180   N     0.01133   0.68984   0.24499   0.00000  Uiso   1.00
N181   N     0.18214   0.37817   0.58686   0.00000  Uiso   1.00
N182   N     0.22164   0.01334   0.24542   0.00000  Uiso   1.00
N183   N     0.03453   0.64147   0.09307   0.00000  Uiso   1.00
N184   N     0.20534   0.32980   0.43494   0.00000  Uiso   1.00
C185   C     0.63869   0.06972   0.60966   0.00000  Uiso   1.00
C186   C     0.66082   0.15538   0.66251   0.00000  Uiso   1.00
C187   C     0.66924   0.25497   0.61963   0.00000  Uiso   1.00
C188   C     0.68978   0.32192   0.68050   0.00000  Uiso   1.00
C189   C     0.72236   0.45976   0.74735   0.00000  Uiso   1.00
C190   C     0.60936   0.04589   0.68739   0.00000  Uiso   1.00
C191   C     0.57452   0.05341   0.66542   0.00000  Uiso   1.00
C192   C     0.55174   0.02818   0.74723   0.00000  Uiso   1.00
C193   C     0.50443   0.99595   0.85269   0.00000  Uiso   1.00
C194   C     0.66061   0.96802   0.60542   0.00000  Uiso   1.00
C195   C     0.66885   0.91005   0.51454   0.00000  Uiso   1.00
C196   C     0.68921   0.81924   0.52735   0.00000  Uiso   1.00
C197   C     0.72146   0.66612   0.50554   0.00000  Uiso   1.00
C198   C     0.66019   0.01153   0.79402   0.00000  Uiso   1.00
C199   C     0.67250   0.12377   0.76265   0.00000  Uiso   1.00
C200   C     0.69303   0.19059   0.82361   0.00000  Uiso   1.00
C201   C     0.70148   0.29026   0.78082   0.00000  Uiso   1.00
C202   C     0.62104   0.01429   0.78753   0.00000  Uiso   1.00
C203   C     0.59831   0.98903   0.86939   0.00000  Uiso   1.00
C204   C     0.56344   0.99652   0.84755   0.00000  Uiso   1.00
C205   C     0.67229   0.93642   0.70556   0.00000  Uiso   1.00
C206   C     0.69263   0.84568   0.71852   0.00000  Uiso   1.00
C207   C     0.70090   0.78758   0.62767   0.00000  Uiso   1.00
H208   H     0.62960   0.09432   0.53170   0.00000  Uiso   1.00
H209   H     0.66020   0.27940   0.54213   0.00000  Uiso   1.00
H210   H     0.56549   0.07786   0.58791   0.00000  Uiso   1.00
H211   H     0.65980   0.93453   0.43706   0.00000  Uiso   1.00
H212   H     0.69927   0.47067   0.59787   0.00000  Uiso   1.00
H213   H     0.49958   0.04567   0.69439   0.00000  Uiso   1.00
H214   H     0.69845   0.74343   0.37629   0.00000  Uiso   1.00
H215   H     0.66928   0.98693   0.87199   0.00000  Uiso   1.00
H216   H     0.70206   0.16611   0.90110   0.00000  Uiso   1.00
H217   H     0.60735   0.96457   0.94688   0.00000  Uiso   1.00
H218   H     0.70166   0.82124   0.79602   0.00000  Uiso   1.00
H219   H     0.73325   0.37872   0.88923   0.00000  Uiso   1.00
H220   H     0.53355   0.95372   0.98575   0.00000  Uiso   1.00
H221   H     0.73242   0.65148   0.66764   0.00000  Uiso   1.00
O222   O     0.73710   0.54452   0.75657   0.00000  Uiso   1.00
O223   O     0.47511   0.98692   0.88319   0.00000  Uiso   1.00
O224   O     0.73603   0.59040   0.46585   0.00000  Uiso   1.00
N225   N     0.70277   0.42443   0.66244   0.00000  Uiso   1.00
N226   N     0.51607   0.02710   0.75269   0.00000  Uiso   1.00
N227   N     0.70199   0.74451   0.45529   0.00000  Uiso   1.00
N228   N     0.72106   0.37495   0.81922   0.00000  Uiso   1.00
N229   N     0.53435   0.97762   0.90946   0.00000  Uiso   1.00
N230   N     0.72027   0.69504   0.61206   0.00000  Uiso   1.00
C231   C     0.14176   0.98578   0.94837   0.00000  Uiso   1.00
C232   C     0.16367   0.89985   0.89399   0.00000  Uiso   1.00
C233   C     0.17176   0.79980   0.93592   0.00000  Uiso   1.00
C234   C     0.19214   0.73265   0.87370   0.00000  Uiso   1.00
C235   C     0.22436   0.59435   0.80454   0.00000  Uiso   1.00
C236   C     0.11256   0.01084   0.87216   0.00000  Uiso   1.00
C237   C     0.07768   0.00413   0.89575   0.00000  Uiso   1.00
C238   C     0.05504   0.03043   0.81515   0.00000  Uiso   1.00
C239   C     0.00791   0.06453   0.71212   0.00000  Uiso   1.00
C240   C     0.16398   0.08687   0.95213   0.00000  Uiso   1.00
C241   C     0.17232   0.14410   0.04295   0.00000  Uiso   1.00
C242   C     0.19297   0.23443   0.02968   0.00000  Uiso   1.00
C243   C     0.22566   0.38656   0.05081   0.00000  Uiso   1.00
C244   C     0.16357   0.04446   0.76331   0.00000  Uiso   1.00
C245   C     0.17552   0.93172   0.79347   0.00000  Uiso   1.00
C246   C     0.19589   0.86472   0.73117   0.00000  Uiso   1.00
C247   C     0.20401   0.76458   0.77301   0.00000  Uiso   1.00
C248   C     0.12441   0.04271   0.77165   0.00000  Uiso   1.00
C249   C     0.10181   0.06905   0.69100   0.00000  Uiso   1.00
C250   C     0.06691   0.06236   0.71445   0.00000  Uiso   1.00
C251   C     0.17583   0.11874   0.85161   0.00000  Uiso   1.00
C252   C     0.19646   0.20901   0.83820   0.00000  Uiso   1.00
C253   C     0.20483   0.26636   0.92898   0.00000  Uiso   1.00
H254   H     0.13253   0.96097   0.02663   0.00000  Uiso   1.00
H255   H     0.16259   0.77516   0.01371   0.00000  Uiso   1.00
H256   H     0.06852   0.97947   0.97355   0.00000  Uiso   1.00
H257   H     0.16315   0.11941   0.12072   0.00000  Uiso   1.00
H258   H     0.20112   0.58318   0.95505   0.00000  Uiso   1.00
H259   H     0.00278   0.01402   0.87037   0.00000  Uiso   1.00
H260   H     0.20233   0.30912   0.18072   0.00000  Uiso   1.00
H261   H     0.17279   0.06928   0.68505   0.00000  Uiso   1.00
H262   H     0.20506   0.88940   0.65339   0.00000  Uiso   1.00
H263   H     0.11099   0.09371   0.61322   0.00000  Uiso   1.00
H264   H     0.20562   0.23365   0.76040   0.00000  Uiso   1.00
H265   H     0.23559   0.67591   0.66260   0.00000  Uiso   1.00
H266   H     0.03725   0.10675   0.57792   0.00000  Uiso   1.00
H267   H     0.23679   0.40184   0.88827   0.00000  Uiso   1.00
O268   O     0.23885   0.50925   0.79415   0.00000  Uiso   1.00
O269   O     0.97863   0.07451   0.68306   0.00000  Uiso   1.00
O270   O     0.24043   0.46166   0.09023   0.00000  Uiso   1.00
N271   N     0.20481   0.62970   0.89057   0.00000  Uiso   1.00
N272   N     0.01938   0.03249   0.81140   0.00000  Uiso   1.00
N273   N     0.20592   0.30840   0.10155   0.00000  Uiso   1.00
N274   N     0.22336   0.67959   0.73321   0.00000  Uiso   1.00
N275   N     0.03792   0.08239   0.65403   0.00000  Uiso   1.00
N276   N     0.22447   0.35829   0.94418   0.00000  Uiso   1.00
C277   C     0.36830   0.56911   0.95274   0.00000  Uiso   1.00
C278   C     0.34617   0.65483   0.90001   0.00000  Uiso   1.00
C279   C     0.33784   0.75443   0.94292   0.00000  Uiso   1.00
C280   C     0.31729   0.82145   0.88217   0.00000  Uiso   1.00
C281   C     0.28473   0.95937   0.81550   0.00000  Uiso   1.00
C282   C     0.39756   0.54523   0.87480   0.00000  Uiso   1.00
C283   C     0.43242   0.55266   0.89653   0.00000  Uiso   1.00
C284   C     0.45512   0.52738   0.81456   0.00000  Uiso   1.00
C285   C     0.50234   0.49506   0.70878   0.00000  Uiso   1.00
C286   C     0.34633   0.46747   0.95716   0.00000  Uiso   1.00
C287   C     0.33813   0.40950   0.04813   0.00000  Uiso   1.00
C288   C     0.31771   0.31875   0.03549   0.00000  Uiso   1.00
C289   C     0.28540   0.16570   0.05758   0.00000  Uiso   1.00
C290   C     0.34664   0.51101   0.76855   0.00000  Uiso   1.00
C291   C     0.33441   0.62327   0.79997   0.00000  Uiso   1.00
C292   C     0.31386   0.69014   0.73914   0.00000  Uiso   1.00
C293   C     0.30550   0.78983   0.78195   0.00000  Uiso   1.00
C294   C     0.38579   0.51366   0.77476   0.00000  Uiso   1.00
C295   C     0.40845   0.48837   0.69275   0.00000  Uiso   1.00
C296   C     0.44334   0.49576   0.71434   0.00000  Uiso   1.00
C297   C     0.33456   0.43591   0.85712   0.00000  Uiso   1.00
C298   C     0.31416   0.34522   0.84434   0.00000  Uiso   1.00
C299   C     0.30593   0.28713   0.93527   0.00000  Uiso   1.00
H300   H     0.37747   0.59369   0.03062   0.00000  Uiso   1.00
H301   H     0.34695   0.77883   0.02034   0.00000  Uiso   1.00
H302   H     0.44152   0.57707   0.97396   0.00000  Uiso   1.00
H303   H     0.34724   0.43395   0.12553   0.00000  Uiso   1.00
H304   H     0.30794   0.97020   0.96481   0.00000  Uiso   1.00
H305   H     0.50734   0.54475   0.86702   0.00000  Uiso   1.00
H306   H     0.30854   0.24293   0.18664   0.00000  Uiso   1.00
H307   H     0.33747   0.48643   0.69065   0.00000  Uiso   1.00
H308   H     0.30476   0.66570   0.66172   0.00000  Uiso   1.00
H309   H     0.39933   0.46394   0.61534   0.00000  Uiso   1.00
H310   H     0.30506   0.32081   0.76691   0.00000  Uiso   1.00
H311   H     0.27370   0.87838   0.67374   0.00000  Uiso   1.00
H312   H     0.47310   0.45292   0.57595   0.00000  Uiso   1.00
H313   H     0.27430   0.15111   0.89557   0.00000  Uiso   1.00
O314   O     0.27003   0.04417   0.80636   0.00000  Uiso   1.00
O315   O     0.53164   0.48596   0.67807   0.00000  Uiso   1.00
O316   O     0.27082   0.09000   0.09740   0.00000  Uiso   1.00
N317   N     0.30436   0.92398   0.90028   0.00000  Uiso   1.00
N318   N     0.49079   0.52622   0.80885   0.00000  Uiso   1.00
N319   N     0.30494   0.24404   0.10767   0.00000  Uiso   1.00
N320   N     0.28594   0.87457   0.74366   0.00000  Uiso   1.00
N321   N     0.47237   0.47681   0.65223   0.00000  Uiso   1.00
N322   N     0.28652   0.19463   0.95105   0.00000  Uiso   1.00
C323   C     0.86497   0.48517   0.61534   0.00000  Uiso   1.00
C324   C     0.84301   0.39928   0.66976   0.00000  Uiso   1.00
C325   C     0.83485   0.29928   0.62785   0.00000  Uiso   1.00
C326   C     0.81444   0.23218   0.69010   0.00000  Uiso   1.00
C327   C     0.78215   0.09395   0.75933   0.00000  Uiso   1.00
C328   C     0.89420   0.51009   0.69150   0.00000  Uiso   1.00
C329   C     0.92907   0.50326   0.66786   0.00000  Uiso   1.00
C330   C     0.95174   0.52945   0.74842   0.00000  Uiso   1.00
C331   C     0.99892   0.56333   0.85137   0.00000  Uiso   1.00
C332   C     0.84281   0.58633   0.61161   0.00000  Uiso   1.00
C333   C     0.83449   0.64363   0.52081   0.00000  Uiso   1.00
C334   C     0.81391   0.73403   0.53411   0.00000  Uiso   1.00
C335   C     0.78130   0.88629   0.51303   0.00000  Uiso   1.00
C336   C     0.84323   0.54384   0.80044   0.00000  Uiso   1.00
C337   C     0.83121   0.43115   0.77030   0.00000  Uiso   1.00
C338   C     0.81080   0.36419   0.83263   0.00000  Uiso   1.00
C339   C     0.80261   0.26410   0.79082   0.00000  Uiso   1.00
C340   C     0.88239   0.54195   0.79203   0.00000  Uiso   1.00
C341   C     0.90502   0.56817   0.87264   0.00000  Uiso   1.00
C342   C     0.93991   0.56137   0.84913   0.00000  Uiso   1.00
C343   C     0.83100   0.61820   0.71215   0.00000  Uiso   1.00
C344   C     0.81044   0.70853   0.72560   0.00000  Uiso   1.00
C345   C     0.80208   0.76595   0.63483   0.00000  Uiso   1.00
H346   H     0.87417   0.46036   0.53707   0.00000  Uiso   1.00
H347   H     0.84400   0.27464   0.55004   0.00000  Uiso   1.00
H348   H     0.93820   0.47861   0.59005   0.00000  Uiso   1.00
H349   H     0.84363   0.61895   0.44302   0.00000  Uiso   1.00
H350   H     0.80535   0.08278   0.60877   0.00000  Uiso   1.00
H351   H     0.00398   0.51288   0.69311   0.00000  Uiso   1.00
H352   H     0.80457   0.80882   0.38308   0.00000  Uiso   1.00
H353   H     0.83404   0.56865   0.87871   0.00000  Uiso   1.00
H354   H     0.80167   0.38887   0.91043   0.00000  Uiso   1.00
H355   H     0.89587   0.59283   0.95043   0.00000  Uiso   1.00
H356   H     0.80130   0.73317   0.80341   0.00000  Uiso   1.00
H357   H     0.77099   0.17548   0.90128   0.00000  Uiso   1.00
H358   H     0.96962   0.60559   0.98562   0.00000  Uiso   1.00
H359   H     0.77021   0.90153   0.67559   0.00000  Uiso   1.00
O360   O     0.76761   0.00890   0.76974   0.00000  Uiso   1.00
O361   O     0.02820   0.57320   0.88038   0.00000  Uiso   1.00
O362   O     0.76658   0.96146   0.47363   0.00000  Uiso   1.00
N363   N     0.80170   0.12928   0.67325   0.00000  Uiso   1.00
N364   N     0.98741   0.53138   0.75211   0.00000  Uiso   1.00
N365   N     0.80098   0.80808   0.46226   0.00000  Uiso   1.00
N366   N     0.78321   0.17916   0.83065   0.00000  Uiso   1.00
N367   N     0.96892   0.58127   0.90951   0.00000  Uiso   1.00
N368   N     0.78250   0.85796   0.61965   0.00000  Uiso   1.00
