data_job_00893
_audit_creation_date              2018-12-19
_audit_creation_method            'Materials Studio'
_symmetry_space_group_name_H-M    'P1'
_symmetry_Int_Tables_number       1
_symmetry_cell_setting            triclinic
loop_
_symmetry_equiv_pos_as_xyz
  x,y,z
_cell_length_a                    31.7574
_cell_length_b                    7.2604
_cell_length_c                    22.6676
_cell_angle_alpha                 90.0000
_cell_angle_beta                  101.5230
_cell_angle_gamma                 90.0000
loop_
_atom_site_label
_atom_site_type_symbol
_atom_site_fract_x
_atom_site_fract_y
_atom_site_fract_z
_atom_site_U_iso_or_equiv
_atom_site_adp_type
_atom_site_occupancy
C1     C     0.12642   0.54709   0.74310   0.00000  Uiso   1.00
C2     C     0.10841   0.67909   0.69193   0.00000  Uiso   1.00
C3     C     0.09697   0.63290   0.63144   0.00000  Uiso   1.00
C4     C     0.08112   0.77349   0.59164   0.00000  Uiso   1.00
C5     C     0.05383   0.95104   0.50914   0.00000  Uiso   1.00
C6     C     0.16910   0.62952   0.77494   0.00000  Uiso   1.00
C7     C     0.20869   0.54164   0.78424   0.00000  Uiso   1.00
C8     C     0.24393   0.64051   0.81432   0.00000  Uiso   1.00
C9     C     0.31084   0.74105   0.86073   0.00000  Uiso   1.00
C10    C     0.09640   0.56007   0.78770   0.00000  Uiso   1.00
C11    C     0.07487   0.41379   0.80775   0.00000  Uiso   1.00
C12    C     0.04891   0.45418   0.84860   0.00000  Uiso   1.00
C13    C     0.00295   0.44690   0.91483   0.00000  Uiso   1.00
C14    C     0.11861   0.87891   0.78000   0.00000  Uiso   1.00
C15    C     0.10417   0.85931   0.71198   0.00000  Uiso   1.00
C16    C     0.08833   0.00001   0.67226   0.00000  Uiso   1.00
C17    C     0.07687   0.95404   0.61172   0.00000  Uiso   1.00
C18    C     0.16486   0.80974   0.79498   0.00000  Uiso   1.00
C19    C     0.20005   0.90875   0.82506   0.00000  Uiso   1.00
C20    C     0.23968   0.82106   0.83440   0.00000  Uiso   1.00
C21    C     0.09216   0.74030   0.80775   0.00000  Uiso   1.00
C22    C     0.06623   0.78091   0.84858   0.00000  Uiso   1.00
C23    C     0.04466   0.63473   0.86868   0.00000  Uiso   1.00
H24    H     0.12972   0.40678   0.72749   0.00000  Uiso   1.00
H25    H     0.10026   0.49341   0.61594   0.00000  Uiso   1.00
H26    H     0.21196   0.40217   0.76872   0.00000  Uiso   1.00
H27    H     0.07816   0.27435   0.79223   0.00000  Uiso   1.00
H28    H     0.06574   0.66895   0.50110   0.00000  Uiso   1.00
H29    H     0.30126   0.47653   0.82327   0.00000  Uiso   1.00
H30    H     0.01912   0.20699   0.87285   0.00000  Uiso   1.00
H31    H     0.11531   0.01923   0.79560   0.00000  Uiso   1.00
H32    H     0.08506   0.13947   0.68779   0.00000  Uiso   1.00
H33    H     0.19675   0.04822   0.84057   0.00000  Uiso   1.00
H34    H     0.06296   0.92040   0.86408   0.00000  Uiso   1.00
H35    H     0.05341   0.19332   0.55941   0.00000  Uiso   1.00
H36    H     0.28892   0.00089   0.88159   0.00000  Uiso   1.00
H37    H     0.00678   0.73135   0.93116   0.00000  Uiso   1.00
O38    O     0.03995   0.99920   0.45810   0.00000  Uiso   1.00
O39    O     0.34893   0.74672   0.88078   0.00000  Uiso   1.00
O40    O     0.97877   0.39310   0.94582   0.00000  Uiso   1.00
N41    N     0.06698   0.77585   0.52962   0.00000  Uiso   1.00
N42    N     0.28718   0.59596   0.83082   0.00000  Uiso   1.00
N43    N     0.02341   0.34395   0.87718   0.00000  Uiso   1.00
N44    N     0.06034   0.05801   0.56100   0.00000  Uiso   1.00
N45    N     0.28054   0.87811   0.86220   0.00000  Uiso   1.00
N46    N     0.01677   0.62611   0.90856   0.00000  Uiso   1.00
C47    C     0.62642   0.04709   0.74310   0.00000  Uiso   1.00
C48    C     0.60841   0.17909   0.69193   0.00000  Uiso   1.00
C49    C     0.59697   0.13290   0.63144   0.00000  Uiso   1.00
C50    C     0.58112   0.27349   0.59164   0.00000  Uiso   1.00
C51    C     0.55383   0.45104   0.50914   0.00000  Uiso   1.00
C52    C     0.66910   0.12952   0.77494   0.00000  Uiso   1.00
C53    C     0.70869   0.04164   0.78424   0.00000  Uiso   1.00
C54    C     0.74393   0.14051   0.81432   0.00000  Uiso   1.00
C55    C     0.81084   0.24105   0.86073   0.00000  Uiso   1.00
C56    C     0.59640   0.06007   0.78770   0.00000  Uiso   1.00
C57    C     0.57487   0.91379   0.80775   0.00000  Uiso   1.00
C58    C     0.54891   0.95418   0.84860   0.00000  Uiso   1.00
C59    C     0.50295   0.94690   0.91483   0.00000  Uiso   1.00
C60    C     0.61861   0.37891   0.78000   0.00000  Uiso   1.00
C61    C     0.60417   0.35931   0.71198   0.00000  Uiso   1.00
C62    C     0.58833   0.50001   0.67226   0.00000  Uiso   1.00
C63    C     0.57687   0.45404   0.61172   0.00000  Uiso   1.00
C64    C     0.66486   0.30974   0.79498   0.00000  Uiso   1.00
C65    C     0.70005   0.40875   0.82506   0.00000  Uiso   1.00
C66    C     0.73968   0.32106   0.83440   0.00000  Uiso   1.00
C67    C     0.59216   0.24030   0.80775   0.00000  Uiso   1.00
C68    C     0.56623   0.28091   0.84858   0.00000  Uiso   1.00
C69    C     0.54466   0.13473   0.86868   0.00000  Uiso   1.00
H70    H     0.62972   0.90678   0.72749   0.00000  Uiso   1.00
H71    H     0.60026   0.99341   0.61594   0.00000  Uiso   1.00
H72    H     0.71196   0.90217   0.76872   0.00000  Uiso   1.00
H73    H     0.57816   0.77435   0.79223   0.00000  Uiso   1.00
H74    H     0.56574   0.16895   0.50110   0.00000  Uiso   1.00
H75    H     0.80126   0.97653   0.82327   0.00000  Uiso   1.00
H76    H     0.51912   0.70699   0.87285   0.00000  Uiso   1.00
H77    H     0.61531   0.51923   0.79560   0.00000  Uiso   1.00
H78    H     0.58506   0.63947   0.68779   0.00000  Uiso   1.00
H79    H     0.69675   0.54822   0.84057   0.00000  Uiso   1.00
H80    H     0.56296   0.42040   0.86408   0.00000  Uiso   1.00
H81    H     0.55341   0.69332   0.55941   0.00000  Uiso   1.00
H82    H     0.78892   0.50089   0.88159   0.00000  Uiso   1.00
H83    H     0.50678   0.23135   0.93116   0.00000  Uiso   1.00
O84    O     0.53995   0.49920   0.45810   0.00000  Uiso   1.00
O85    O     0.84893   0.24672   0.88078   0.00000  Uiso   1.00
O86    O     0.47877   0.89310   0.94582   0.00000  Uiso   1.00
N87    N     0.56698   0.27585   0.52962   0.00000  Uiso   1.00
N88    N     0.78718   0.09596   0.83082   0.00000  Uiso   1.00
N89    N     0.52341   0.84395   0.87718   0.00000  Uiso   1.00
N90    N     0.56034   0.55801   0.56100   0.00000  Uiso   1.00
N91    N     0.78054   0.37811   0.86220   0.00000  Uiso   1.00
N92    N     0.51677   0.12611   0.90856   0.00000  Uiso   1.00
C93    C     0.87358   0.54709   0.75690   0.00000  Uiso   1.00
C94    C     0.89159   0.67909   0.80807   0.00000  Uiso   1.00
C95    C     0.90303   0.63290   0.86856   0.00000  Uiso   1.00
C96    C     0.91888   0.77349   0.90836   0.00000  Uiso   1.00
C97    C     0.94617   0.95104   0.99086   0.00000  Uiso   1.00
C98    C     0.83090   0.62952   0.72506   0.00000  Uiso   1.00
C99    C     0.79131   0.54164   0.71576   0.00000  Uiso   1.00
C100   C     0.75607   0.64051   0.68568   0.00000  Uiso   1.00
C101   C     0.68916   0.74105   0.63927   0.00000  Uiso   1.00
C102   C     0.90360   0.56007   0.71230   0.00000  Uiso   1.00
C103   C     0.92513   0.41379   0.69225   0.00000  Uiso   1.00
C104   C     0.95109   0.45418   0.65140   0.00000  Uiso   1.00
C105   C     0.99705   0.44690   0.58517   0.00000  Uiso   1.00
C106   C     0.88139   0.87891   0.72000   0.00000  Uiso   1.00
C107   C     0.89583   0.85931   0.78802   0.00000  Uiso   1.00
C108   C     0.91167   0.00001   0.82774   0.00000  Uiso   1.00
C109   C     0.92313   0.95404   0.88828   0.00000  Uiso   1.00
C110   C     0.83514   0.80974   0.70502   0.00000  Uiso   1.00
C111   C     0.79995   0.90875   0.67494   0.00000  Uiso   1.00
C112   C     0.76032   0.82106   0.66560   0.00000  Uiso   1.00
C113   C     0.90784   0.74030   0.69225   0.00000  Uiso   1.00
C114   C     0.93377   0.78091   0.65142   0.00000  Uiso   1.00
C115   C     0.95534   0.63473   0.63132   0.00000  Uiso   1.00
H116   H     0.87028   0.40678   0.77251   0.00000  Uiso   1.00
H117   H     0.89974   0.49341   0.88406   0.00000  Uiso   1.00
H118   H     0.78804   0.40217   0.73128   0.00000  Uiso   1.00
H119   H     0.92184   0.27435   0.70777   0.00000  Uiso   1.00
H120   H     0.93426   0.66895   0.99890   0.00000  Uiso   1.00
H121   H     0.69874   0.47653   0.67673   0.00000  Uiso   1.00
H122   H     0.98088   0.20699   0.62715   0.00000  Uiso   1.00
H123   H     0.88469   0.01923   0.70440   0.00000  Uiso   1.00
H124   H     0.91494   0.13947   0.81221   0.00000  Uiso   1.00
H125   H     0.80325   0.04822   0.65943   0.00000  Uiso   1.00
H126   H     0.93704   0.92040   0.63592   0.00000  Uiso   1.00
H127   H     0.94659   0.19332   0.94059   0.00000  Uiso   1.00
H128   H     0.71108   0.00089   0.61841   0.00000  Uiso   1.00
H129   H     0.99322   0.73135   0.56884   0.00000  Uiso   1.00
O130   O     0.96005   0.99920   0.04190   0.00000  Uiso   1.00
O131   O     0.65107   0.74672   0.61922   0.00000  Uiso   1.00
O132   O     0.02123   0.39310   0.55418   0.00000  Uiso   1.00
N133   N     0.93302   0.77585   0.97038   0.00000  Uiso   1.00
N134   N     0.71282   0.59596   0.66918   0.00000  Uiso   1.00
N135   N     0.97659   0.34395   0.62282   0.00000  Uiso   1.00
N136   N     0.93966   0.05801   0.93900   0.00000  Uiso   1.00
N137   N     0.71946   0.87811   0.63780   0.00000  Uiso   1.00
N138   N     0.98323   0.62611   0.59144   0.00000  Uiso   1.00
C139   C     0.37358   0.04709   0.75690   0.00000  Uiso   1.00
C140   C     0.39159   0.17909   0.80807   0.00000  Uiso   1.00
C141   C     0.40303   0.13290   0.86856   0.00000  Uiso   1.00
C142   C     0.41888   0.27349   0.90836   0.00000  Uiso   1.00
C143   C     0.44617   0.45104   0.99086   0.00000  Uiso   1.00
C144   C     0.33090   0.12952   0.72506   0.00000  Uiso   1.00
C145   C     0.29131   0.04164   0.71576   0.00000  Uiso   1.00
C146   C     0.25607   0.14051   0.68568   0.00000  Uiso   1.00
C147   C     0.18916   0.24105   0.63927   0.00000  Uiso   1.00
C148   C     0.40360   0.06007   0.71230   0.00000  Uiso   1.00
C149   C     0.42513   0.91379   0.69225   0.00000  Uiso   1.00
C150   C     0.45109   0.95418   0.65140   0.00000  Uiso   1.00
C151   C     0.49705   0.94690   0.58517   0.00000  Uiso   1.00
C152   C     0.38139   0.37891   0.72000   0.00000  Uiso   1.00
C153   C     0.39583   0.35931   0.78802   0.00000  Uiso   1.00
C154   C     0.41167   0.50001   0.82774   0.00000  Uiso   1.00
C155   C     0.42313   0.45404   0.88828   0.00000  Uiso   1.00
C156   C     0.33514   0.30974   0.70502   0.00000  Uiso   1.00
C157   C     0.29995   0.40875   0.67494   0.00000  Uiso   1.00
C158   C     0.26032   0.32106   0.66560   0.00000  Uiso   1.00
C159   C     0.40784   0.24030   0.69225   0.00000  Uiso   1.00
C160   C     0.43377   0.28091   0.65142   0.00000  Uiso   1.00
C161   C     0.45534   0.13473   0.63132   0.00000  Uiso   1.00
H162   H     0.37028   0.90678   0.77251   0.00000  Uiso   1.00
H163   H     0.39974   0.99341   0.88406   0.00000  Uiso   1.00
H164   H     0.28804   0.90217   0.73128   0.00000  Uiso   1.00
H165   H     0.42184   0.77435   0.70777   0.00000  Uiso   1.00
H166   H     0.43426   0.16895   0.99890   0.00000  Uiso   1.00
H167   H     0.19874   0.97653   0.67673   0.00000  Uiso   1.00
H168   H     0.48088   0.70699   0.62715   0.00000  Uiso   1.00
H169   H     0.38469   0.51923   0.70440   0.00000  Uiso   1.00
H170   H     0.41494   0.63947   0.81221   0.00000  Uiso   1.00
H171   H     0.30325   0.54822   0.65943   0.00000  Uiso   1.00
H172   H     0.43704   0.42040   0.63592   0.00000  Uiso   1.00
H173   H     0.44659   0.69332   0.94059   0.00000  Uiso   1.00
H174   H     0.21108   0.50089   0.61841   0.00000  Uiso   1.00
H175   H     0.49322   0.23135   0.56884   0.00000  Uiso   1.00
O176   O     0.46005   0.49920   0.04190   0.00000  Uiso   1.00
O177   O     0.15107   0.24672   0.61922   0.00000  Uiso   1.00
O178   O     0.52123   0.89310   0.55418   0.00000  Uiso   1.00
N179   N     0.43302   0.27585   0.97038   0.00000  Uiso   1.00
N180   N     0.21282   0.09596   0.66918   0.00000  Uiso   1.00
N181   N     0.47659   0.84395   0.62282   0.00000  Uiso   1.00
N182   N     0.43966   0.55801   0.93900   0.00000  Uiso   1.00
N183   N     0.21946   0.37811   0.63780   0.00000  Uiso   1.00
N184   N     0.48323   0.12611   0.59144   0.00000  Uiso   1.00
C185   C     0.87358   0.45291   0.25690   0.00000  Uiso   1.00
C186   C     0.89159   0.32091   0.30807   0.00000  Uiso   1.00
C187   C     0.90303   0.36710   0.36856   0.00000  Uiso   1.00
C188   C     0.91888   0.22651   0.40836   0.00000  Uiso   1.00
C189   C     0.94617   0.04896   0.49086   0.00000  Uiso   1.00
C190   C     0.83090   0.37048   0.22506   0.00000  Uiso   1.00
C191   C     0.79131   0.45836   0.21576   0.00000  Uiso   1.00
C192   C     0.75607   0.35949   0.18568   0.00000  Uiso   1.00
C193   C     0.68916   0.25895   0.13927   0.00000  Uiso   1.00
C194   C     0.90360   0.43993   0.21230   0.00000  Uiso   1.00
C195   C     0.92513   0.58621   0.19225   0.00000  Uiso   1.00
C196   C     0.95109   0.54582   0.15140   0.00000  Uiso   1.00
C197   C     0.99705   0.55310   0.08517   0.00000  Uiso   1.00
C198   C     0.88139   0.12109   0.22000   0.00000  Uiso   1.00
C199   C     0.89583   0.14069   0.28802   0.00000  Uiso   1.00
C200   C     0.91167   0.99999   0.32774   0.00000  Uiso   1.00
C201   C     0.92313   0.04596   0.38828   0.00000  Uiso   1.00
C202   C     0.83514   0.19026   0.20502   0.00000  Uiso   1.00
C203   C     0.79995   0.09125   0.17494   0.00000  Uiso   1.00
C204   C     0.76032   0.17894   0.16560   0.00000  Uiso   1.00
C205   C     0.90784   0.25970   0.19225   0.00000  Uiso   1.00
C206   C     0.93377   0.21909   0.15142   0.00000  Uiso   1.00
C207   C     0.95534   0.36527   0.13132   0.00000  Uiso   1.00
H208   H     0.87028   0.59322   0.27251   0.00000  Uiso   1.00
H209   H     0.89974   0.50659   0.38406   0.00000  Uiso   1.00
H210   H     0.78804   0.59783   0.23128   0.00000  Uiso   1.00
H211   H     0.92184   0.72565   0.20777   0.00000  Uiso   1.00
H212   H     0.93426   0.33105   0.49890   0.00000  Uiso   1.00
H213   H     0.69874   0.52347   0.17673   0.00000  Uiso   1.00
H214   H     0.98088   0.79301   0.12715   0.00000  Uiso   1.00
H215   H     0.88469   0.98077   0.20440   0.00000  Uiso   1.00
H216   H     0.91494   0.86053   0.31221   0.00000  Uiso   1.00
H217   H     0.80325   0.95178   0.15943   0.00000  Uiso   1.00
H218   H     0.93704   0.07960   0.13592   0.00000  Uiso   1.00
H219   H     0.94659   0.80668   0.44059   0.00000  Uiso   1.00
H220   H     0.71108   0.99911   0.11841   0.00000  Uiso   1.00
H221   H     0.99322   0.26865   0.06884   0.00000  Uiso   1.00
O222   O     0.96005   0.00080   0.54190   0.00000  Uiso   1.00
O223   O     0.65107   0.25328   0.11922   0.00000  Uiso   1.00
O224   O     0.02123   0.60690   0.05418   0.00000  Uiso   1.00
N225   N     0.93302   0.22415   0.47038   0.00000  Uiso   1.00
N226   N     0.71282   0.40404   0.16918   0.00000  Uiso   1.00
N227   N     0.97659   0.65605   0.12282   0.00000  Uiso   1.00
N228   N     0.93966   0.94199   0.43900   0.00000  Uiso   1.00
N229   N     0.71946   0.12189   0.13780   0.00000  Uiso   1.00
N230   N     0.98323   0.37389   0.09144   0.00000  Uiso   1.00
C231   C     0.37358   0.95291   0.25690   0.00000  Uiso   1.00
C232   C     0.39159   0.82091   0.30807   0.00000  Uiso   1.00
C233   C     0.40303   0.86710   0.36856   0.00000  Uiso   1.00
C234   C     0.41888   0.72651   0.40836   0.00000  Uiso   1.00
C235   C     0.44617   0.54896   0.49086   0.00000  Uiso   1.00
C236   C     0.33090   0.87048   0.22506   0.00000  Uiso   1.00
C237   C     0.29131   0.95836   0.21576   0.00000  Uiso   1.00
C238   C     0.25607   0.85949   0.18568   0.00000  Uiso   1.00
C239   C     0.18916   0.75895   0.13927   0.00000  Uiso   1.00
C240   C     0.40360   0.93993   0.21230   0.00000  Uiso   1.00
C241   C     0.42513   0.08621   0.19225   0.00000  Uiso   1.00
C242   C     0.45109   0.04582   0.15140   0.00000  Uiso   1.00
C243   C     0.49705   0.05310   0.08517   0.00000  Uiso   1.00
C244   C     0.38139   0.62109   0.22000   0.00000  Uiso   1.00
C245   C     0.39583   0.64069   0.28802   0.00000  Uiso   1.00
C246   C     0.41167   0.49999   0.32774   0.00000  Uiso   1.00
C247   C     0.42313   0.54596   0.38828   0.00000  Uiso   1.00
C248   C     0.33514   0.69026   0.20502   0.00000  Uiso   1.00
C249   C     0.29995   0.59125   0.17494   0.00000  Uiso   1.00
C250   C     0.26032   0.67894   0.16560   0.00000  Uiso   1.00
C251   C     0.40784   0.75970   0.19225   0.00000  Uiso   1.00
C252   C     0.43377   0.71909   0.15142   0.00000  Uiso   1.00
C253   C     0.45534   0.86527   0.13132   0.00000  Uiso   1.00
H254   H     0.37028   0.09322   0.27251   0.00000  Uiso   1.00
H255   H     0.39974   0.00659   0.38406   0.00000  Uiso   1.00
H256   H     0.28804   0.09783   0.23128   0.00000  Uiso   1.00
H257   H     0.42184   0.22565   0.20777   0.00000  Uiso   1.00
H258   H     0.43426   0.83105   0.49890   0.00000  Uiso   1.00
H259   H     0.19874   0.02347   0.17673   0.00000  Uiso   1.00
H260   H     0.48088   0.29301   0.12715   0.00000  Uiso   1.00
H261   H     0.38469   0.48077   0.20440   0.00000  Uiso   1.00
H262   H     0.41494   0.36053   0.31221   0.00000  Uiso   1.00
H263   H     0.30325   0.45178   0.15943   0.00000  Uiso   1.00
H264   H     0.43704   0.57960   0.13592   0.00000  Uiso   1.00
H265   H     0.44659   0.30668   0.44059   0.00000  Uiso   1.00
H266   H     0.21108   0.49911   0.11841   0.00000  Uiso   1.00
H267   H     0.49322   0.76865   0.06884   0.00000  Uiso   1.00
O268   O     0.46005   0.50080   0.54190   0.00000  Uiso   1.00
O269   O     0.15107   0.75328   0.11922   0.00000  Uiso   1.00
O270   O     0.52123   0.10690   0.05418   0.00000  Uiso   1.00
N271   N     0.43302   0.72415   0.47038   0.00000  Uiso   1.00
N272   N     0.21282   0.90404   0.16918   0.00000  Uiso   1.00
N273   N     0.47659   0.15605   0.12282   0.00000  Uiso   1.00
N274   N     0.43966   0.44199   0.43900   0.00000  Uiso   1.00
N275   N     0.21946   0.62189   0.13780   0.00000  Uiso   1.00
N276   N     0.48323   0.87389   0.09144   0.00000  Uiso   1.00
C277   C     0.12642   0.45291   0.24310   0.00000  Uiso   1.00
C278   C     0.10841   0.32091   0.19193   0.00000  Uiso   1.00
C279   C     0.09697   0.36710   0.13144   0.00000  Uiso   1.00
C280   C     0.08112   0.22651   0.09164   0.00000  Uiso   1.00
C281   C     0.05383   0.04896   0.00914   0.00000  Uiso   1.00
C282   C     0.16910   0.37048   0.27494   0.00000  Uiso   1.00
C283   C     0.20869   0.45836   0.28424   0.00000  Uiso   1.00
C284   C     0.24393   0.35949   0.31432   0.00000  Uiso   1.00
C285   C     0.31084   0.25895   0.36073   0.00000  Uiso   1.00
C286   C     0.09640   0.43993   0.28770   0.00000  Uiso   1.00
C287   C     0.07487   0.58621   0.30775   0.00000  Uiso   1.00
C288   C     0.04891   0.54582   0.34860   0.00000  Uiso   1.00
C289   C     0.00295   0.55310   0.41483   0.00000  Uiso   1.00
C290   C     0.11861   0.12109   0.28000   0.00000  Uiso   1.00
C291   C     0.10417   0.14069   0.21198   0.00000  Uiso   1.00
C292   C     0.08833   0.99999   0.17226   0.00000  Uiso   1.00
C293   C     0.07687   0.04596   0.11172   0.00000  Uiso   1.00
C294   C     0.16486   0.19026   0.29498   0.00000  Uiso   1.00
C295   C     0.20005   0.09125   0.32506   0.00000  Uiso   1.00
C296   C     0.23968   0.17894   0.33440   0.00000  Uiso   1.00
C297   C     0.09216   0.25970   0.30775   0.00000  Uiso   1.00
C298   C     0.06623   0.21909   0.34858   0.00000  Uiso   1.00
C299   C     0.04466   0.36527   0.36868   0.00000  Uiso   1.00
H300   H     0.12972   0.59322   0.22749   0.00000  Uiso   1.00
H301   H     0.10026   0.50659   0.11594   0.00000  Uiso   1.00
H302   H     0.21196   0.59783   0.26872   0.00000  Uiso   1.00
H303   H     0.07816   0.72565   0.29223   0.00000  Uiso   1.00
H304   H     0.06574   0.33105   0.00110   0.00000  Uiso   1.00
H305   H     0.30126   0.52347   0.32327   0.00000  Uiso   1.00
H306   H     0.01912   0.79301   0.37285   0.00000  Uiso   1.00
H307   H     0.11531   0.98077   0.29560   0.00000  Uiso   1.00
H308   H     0.08506   0.86053   0.18779   0.00000  Uiso   1.00
H309   H     0.19675   0.95178   0.34057   0.00000  Uiso   1.00
H310   H     0.06296   0.07960   0.36408   0.00000  Uiso   1.00
H311   H     0.05341   0.80668   0.05941   0.00000  Uiso   1.00
H312   H     0.28892   0.99911   0.38159   0.00000  Uiso   1.00
H313   H     0.00678   0.26865   0.43116   0.00000  Uiso   1.00
O314   O     0.03995   0.00080   0.95810   0.00000  Uiso   1.00
O315   O     0.34893   0.25328   0.38078   0.00000  Uiso   1.00
O316   O     0.97877   0.60690   0.44582   0.00000  Uiso   1.00
N317   N     0.06698   0.22415   0.02962   0.00000  Uiso   1.00
N318   N     0.28718   0.40404   0.33082   0.00000  Uiso   1.00
N319   N     0.02341   0.65605   0.37718   0.00000  Uiso   1.00
N320   N     0.06034   0.94199   0.06100   0.00000  Uiso   1.00
N321   N     0.28054   0.12189   0.36220   0.00000  Uiso   1.00
N322   N     0.01677   0.37389   0.40856   0.00000  Uiso   1.00
C323   C     0.62642   0.95291   0.24310   0.00000  Uiso   1.00
C324   C     0.60841   0.82091   0.19193   0.00000  Uiso   1.00
C325   C     0.59697   0.86710   0.13144   0.00000  Uiso   1.00
C326   C     0.58112   0.72651   0.09164   0.00000  Uiso   1.00
C327   C     0.55383   0.54896   0.00914   0.00000  Uiso   1.00
C328   C     0.66910   0.87048   0.27494   0.00000  Uiso   1.00
C329   C     0.70869   0.95836   0.28424   0.00000  Uiso   1.00
C330   C     0.74393   0.85949   0.31432   0.00000  Uiso   1.00
C331   C     0.81084   0.75895   0.36073   0.00000  Uiso   1.00
C332   C     0.59640   0.93993   0.28770   0.00000  Uiso   1.00
C333   C     0.57487   0.08621   0.30775   0.00000  Uiso   1.00
C334   C     0.54891   0.04582   0.34860   0.00000  Uiso   1.00
C335   C     0.50295   0.05310   0.41483   0.00000  Uiso   1.00
C336   C     0.61861   0.62109   0.28000   0.00000  Uiso   1.00
C337   C     0.60417   0.64069   0.21198   0.00000  Uiso   1.00
C338   C     0.58833   0.49999   0.17226   0.00000  Uiso   1.00
C339   C     0.57687   0.54596   0.11172   0.00000  Uiso   1.00
C340   C     0.66486   0.69026   0.29498   0.00000  Uiso   1.00
C341   C     0.70005   0.59125   0.32506   0.00000  Uiso   1.00
C342   C     0.73968   0.67894   0.33440   0.00000  Uiso   1.00
C343   C     0.59216   0.75970   0.30775   0.00000  Uiso   1.00
C344   C     0.56623   0.71909   0.34858   0.00000  Uiso   1.00
C345   C     0.54466   0.86527   0.36868   0.00000  Uiso   1.00
H346   H     0.62972   0.09322   0.22749   0.00000  Uiso   1.00
H347   H     0.60026   0.00659   0.11594   0.00000  Uiso   1.00
H348   H     0.71196   0.09783   0.26872   0.00000  Uiso   1.00
H349   H     0.57816   0.22565   0.29223   0.00000  Uiso   1.00
H350   H     0.56574   0.83105   0.00110   0.00000  Uiso   1.00
H351   H     0.80126   0.02347   0.32327   0.00000  Uiso   1.00
H352   H     0.51912   0.29301   0.37285   0.00000  Uiso   1.00
H353   H     0.61531   0.48077   0.29560   0.00000  Uiso   1.00
H354   H     0.58506   0.36053   0.18779   0.00000  Uiso   1.00
H355   H     0.69675   0.45178   0.34057   0.00000  Uiso   1.00
H356   H     0.56296   0.57960   0.36408   0.00000  Uiso   1.00
H357   H     0.55341   0.30668   0.05941   0.00000  Uiso   1.00
H358   H     0.78892   0.49911   0.38159   0.00000  Uiso   1.00
H359   H     0.50678   0.76865   0.43116   0.00000  Uiso   1.00
O360   O     0.53995   0.50080   0.95810   0.00000  Uiso   1.00
O361   O     0.84893   0.75328   0.38078   0.00000  Uiso   1.00
O362   O     0.47877   0.10690   0.44582   0.00000  Uiso   1.00
N363   N     0.56698   0.72415   0.02962   0.00000  Uiso   1.00
N364   N     0.78718   0.90404   0.33082   0.00000  Uiso   1.00
N365   N     0.52341   0.15605   0.37718   0.00000  Uiso   1.00
N366   N     0.56034   0.44199   0.06100   0.00000  Uiso   1.00
N367   N     0.78054   0.62189   0.36220   0.00000  Uiso   1.00
N368   N     0.51677   0.87389   0.40856   0.00000  Uiso   1.00
