data_job_06007
_audit_creation_date              2018-12-19
_audit_creation_method            'Materials Studio'
_symmetry_space_group_name_H-M    'P1'
_symmetry_Int_Tables_number       1
_symmetry_cell_setting            triclinic
loop_
_symmetry_equiv_pos_as_xyz
  x,y,z
_cell_length_a                    17.0125
_cell_length_b                    17.1066
_cell_length_c                    17.1848
_cell_angle_alpha                 105.2690
_cell_angle_beta                  105.3840
_cell_angle_gamma                 105.4500
loop_
_atom_site_label
_atom_site_type_symbol
_atom_site_fract_x
_atom_site_fract_y
_atom_site_fract_z
_atom_site_U_iso_or_equiv
_atom_site_adp_type
_atom_site_occupancy
C1     C     0.83557   0.18917   0.36159   0.00000  Uiso   1.00
C2     C     0.82745   0.22746   0.44859   0.00000  Uiso   1.00
C3     C     0.74974   0.22048   0.46289   0.00000  Uiso   1.00
C4     C     0.75620   0.26007   0.54716   0.00000  Uiso   1.00
C5     C     0.73123   0.31273   0.67198   0.00000  Uiso   1.00
C6     C     0.89287   0.26514   0.34711   0.00000  Uiso   1.00
C7     C     0.87017   0.28983   0.27607   0.00000  Uiso   1.00
C8     C     0.93170   0.36114   0.27492   0.00000  Uiso   1.00
C9     C     0.00832   0.47227   0.24215   0.00000  Uiso   1.00
C10    C     0.88893   0.13161   0.37421   0.00000  Uiso   1.00
C11    C     0.86293   0.04402   0.32595   0.00000  Uiso   1.00
C12    C     0.92116   0.00291   0.34760   0.00000  Uiso   1.00
C13    C     0.99167   0.90670   0.35692   0.00000  Uiso   1.00
C14    C     0.98521   0.27190   0.48584   0.00000  Uiso   1.00
C15    C     0.90873   0.27240   0.51608   0.00000  Uiso   1.00
C16    C     0.91530   0.31201   0.60035   0.00000  Uiso   1.00
C17    C     0.83762   0.30508   0.61477   0.00000  Uiso   1.00
C18    C     0.97415   0.31008   0.41459   0.00000  Uiso   1.00
C19    C     0.03573   0.38137   0.41354   0.00000  Uiso   1.00
C20    C     0.01313   0.40616   0.34252   0.00000  Uiso   1.00
C21    C     0.97021   0.17654   0.44170   0.00000  Uiso   1.00
C22    C     0.02850   0.13556   0.46342   0.00000  Uiso   1.00
C23    C     0.00259   0.04793   0.41521   0.00000  Uiso   1.00
H24    H     0.77229   0.15419   0.30905   0.00000  Uiso   1.00
H25    H     0.68685   0.18570   0.41064   0.00000  Uiso   1.00
H26    H     0.80727   0.25504   0.22385   0.00000  Uiso   1.00
H27    H     0.80003   0.00927   0.27374   0.00000  Uiso   1.00
H28    H     0.62798   0.24049   0.55304   0.00000  Uiso   1.00
H29    H     0.88188   0.38668   0.15917   0.00000  Uiso   1.00
H30    H     0.86663   0.86842   0.26434   0.00000  Uiso   1.00
H31    H     0.04849   0.30689   0.53838   0.00000  Uiso   1.00
H32    H     0.97821   0.34678   0.65256   0.00000  Uiso   1.00
H33    H     0.09862   0.41612   0.46577   0.00000  Uiso   1.00
H34    H     0.09139   0.17035   0.51565   0.00000  Uiso   1.00
H35    H     0.86446   0.37123   0.74939   0.00000  Uiso   1.00
H36    H     0.11836   0.51741   0.35551   0.00000  Uiso   1.00
H37    H     0.10311   0.99916   0.46069   0.00000  Uiso   1.00
O38    O     0.69500   0.32937   0.72219   0.00000  Uiso   1.00
O39    O     0.02812   0.52115   0.20543   0.00000  Uiso   1.00
O40    O     0.00811   0.84121   0.34343   0.00000  Uiso   1.00
N41    N     0.69328   0.26577   0.58358   0.00000  Uiso   1.00
N42    N     0.93066   0.40245   0.21534   0.00000  Uiso   1.00
N43    N     0.91641   0.91793   0.31366   0.00000  Uiso   1.00
N44    N     0.82053   0.33612   0.68924   0.00000  Uiso   1.00
N45    N     0.05791   0.47280   0.32100   0.00000  Uiso   1.00
N46    N     0.04366   0.98828   0.41931   0.00000  Uiso   1.00
C47    C     0.36116   0.83600   0.18900   0.00000  Uiso   1.00
C48    C     0.44916   0.82810   0.22738   0.00000  Uiso   1.00
C49    C     0.46373   0.75095   0.22064   0.00000  Uiso   1.00
C50    C     0.54895   0.75752   0.26027   0.00000  Uiso   1.00
C51    C     0.67523   0.73296   0.31309   0.00000  Uiso   1.00
C52    C     0.34638   0.89275   0.26442   0.00000  Uiso   1.00
C53    C     0.27453   0.86996   0.28881   0.00000  Uiso   1.00
C54    C     0.27324   0.93096   0.35962   0.00000  Uiso   1.00
C55    C     0.23992   0.00680   0.46989   0.00000  Uiso   1.00
C56    C     0.37390   0.88916   0.13167   0.00000  Uiso   1.00
C57    C     0.32516   0.86336   0.04444   0.00000  Uiso   1.00
C58    C     0.34702   0.92135   0.00349   0.00000  Uiso   1.00
C59    C     0.35641   0.99161   0.90765   0.00000  Uiso   1.00
C60    C     0.48661   0.98488   0.27136   0.00000  Uiso   1.00
C61    C     0.51730   0.90897   0.27211   0.00000  Uiso   1.00
C62    C     0.60253   0.91566   0.31176   0.00000  Uiso   1.00
C63    C     0.61722   0.83853   0.30509   0.00000  Uiso   1.00
C64    C     0.41453   0.97362   0.30915   0.00000  Uiso   1.00
C65    C     0.41334   0.03468   0.37993   0.00000  Uiso   1.00
C66    C     0.34150   0.01197   0.40443   0.00000  Uiso   1.00
C67    C     0.44204   0.97003   0.17640   0.00000  Uiso   1.00
C68    C     0.46397   0.02807   0.13557   0.00000  Uiso   1.00
C69    C     0.41528   0.00236   0.04830   0.00000  Uiso   1.00
H70    H     0.30810   0.77304   0.15418   0.00000  Uiso   1.00
H71    H     0.41097   0.68838   0.18602   0.00000  Uiso   1.00
H72    H     0.22180   0.80737   0.25417   0.00000  Uiso   1.00
H73    H     0.27243   0.80077   0.00985   0.00000  Uiso   1.00
H74    H     0.55507   0.63017   0.24108   0.00000  Uiso   1.00
H75    H     0.15618   0.88110   0.38477   0.00000  Uiso   1.00
H76    H     0.26293   0.86718   0.86956   0.00000  Uiso   1.00
H77    H     0.53967   0.04784   0.30620   0.00000  Uiso   1.00
H78    H     0.65525   0.97825   0.34638   0.00000  Uiso   1.00
H79    H     0.46608   0.09725   0.41453   0.00000  Uiso   1.00
H80    H     0.51671   0.09065   0.17021   0.00000  Uiso   1.00
H81    H     0.75333   0.86545   0.37124   0.00000  Uiso   1.00
H82    H     0.35445   0.11637   0.51492   0.00000  Uiso   1.00
H83    H     0.46120   0.10245   0.99971   0.00000  Uiso   1.00
O84    O     0.72605   0.69708   0.32987   0.00000  Uiso   1.00
O85    O     0.20272   0.02629   0.51837   0.00000  Uiso   1.00
O86    O     0.34278   0.00802   0.84243   0.00000  Uiso   1.00
N87    N     0.58587   0.69509   0.26618   0.00000  Uiso   1.00
N88    N     0.21294   0.92969   0.40053   0.00000  Uiso   1.00
N89    N     0.31273   0.91668   0.91886   0.00000  Uiso   1.00
N90    N     0.69256   0.82169   0.33622   0.00000  Uiso   1.00
N91    N     0.31963   0.05629   0.47057   0.00000  Uiso   1.00
N92    N     0.41942   0.04328   0.98889   0.00000  Uiso   1.00
C93    C     0.18951   0.36141   0.83625   0.00000  Uiso   1.00
C94    C     0.22823   0.44897   0.82833   0.00000  Uiso   1.00
C95    C     0.22144   0.46356   0.75153   0.00000  Uiso   1.00
C96    C     0.26143   0.54834   0.75801   0.00000  Uiso   1.00
C97    C     0.31472   0.67400   0.73347   0.00000  Uiso   1.00
C98    C     0.26579   0.34684   0.89298   0.00000  Uiso   1.00
C99    C     0.29057   0.27555   0.87053   0.00000  Uiso   1.00
C100   C     0.36217   0.27435   0.93144   0.00000  Uiso   1.00
C101   C     0.47373   0.24142   0.00729   0.00000  Uiso   1.00
C102   C     0.13145   0.37381   0.88894   0.00000  Uiso   1.00
C103   C     0.04329   0.32519   0.86311   0.00000  Uiso   1.00
C104   C     0.00179   0.34669   0.92062   0.00000  Uiso   1.00
C105   C     0.90478   0.35563   0.99020   0.00000  Uiso   1.00
C106   C     0.27258   0.48602   0.98435   0.00000  Uiso   1.00
C107   C     0.27335   0.51665   0.90877   0.00000  Uiso   1.00
C108   C     0.31336   0.60144   0.91537   0.00000  Uiso   1.00
C109   C     0.30663   0.61615   0.83859   0.00000  Uiso   1.00
C110   C     0.31091   0.41452   0.97342   0.00000  Uiso   1.00
C111   C     0.38248   0.41342   0.03437   0.00000  Uiso   1.00
C112   C     0.40737   0.34216   0.01202   0.00000  Uiso   1.00
C113   C     0.17658   0.44150   0.96938   0.00000  Uiso   1.00
C114   C     0.13521   0.46307   0.02695   0.00000  Uiso   1.00
C115   C     0.04700   0.41449   0.00121   0.00000  Uiso   1.00
H116   H     0.15438   0.30871   0.77363   0.00000  Uiso   1.00
H117   H     0.18652   0.41116   0.68929   0.00000  Uiso   1.00
H118   H     0.25563   0.22318   0.80828   0.00000  Uiso   1.00
H119   H     0.00839   0.27281   0.80085   0.00000  Uiso   1.00
H120   H     0.24208   0.55460   0.63125   0.00000  Uiso   1.00
H121   H     0.38779   0.15820   0.88215   0.00000  Uiso   1.00
H122   H     0.86643   0.26287   0.86650   0.00000  Uiso   1.00
H123   H     0.30772   0.53872   0.04698   0.00000  Uiso   1.00
H124   H     0.34827   0.65380   0.97763   0.00000  Uiso   1.00
H125   H     0.41738   0.46581   0.09662   0.00000  Uiso   1.00
H126   H     0.17014   0.51545   0.08919   0.00000  Uiso   1.00
H127   H     0.37337   0.75153   0.86528   0.00000  Uiso   1.00
H128   H     0.51907   0.35513   0.11618   0.00000  Uiso   1.00
H129   H     0.99772   0.45980   0.10053   0.00000  Uiso   1.00
O130   O     0.33166   0.72461   0.69772   0.00000  Uiso   1.00
O131   O     0.52281   0.20455   0.02690   0.00000  Uiso   1.00
O132   O     0.83880   0.34187   0.00636   0.00000  Uiso   1.00
N133   N     0.26740   0.58516   0.69585   0.00000  Uiso   1.00
N134   N     0.40363   0.21456   0.93042   0.00000  Uiso   1.00
N135   N     0.91622   0.31240   0.91580   0.00000  Uiso   1.00
N136   N     0.33804   0.69112   0.82177   0.00000  Uiso   1.00
N137   N     0.47428   0.32053   0.05635   0.00000  Uiso   1.00
N138   N     0.98686   0.41836   0.04173   0.00000  Uiso   1.00
C139   C     0.16443   0.81083   0.63841   0.00000  Uiso   1.00
C140   C     0.17255   0.77254   0.55141   0.00000  Uiso   1.00
C141   C     0.25026   0.77952   0.53711   0.00000  Uiso   1.00
C142   C     0.24380   0.73993   0.45284   0.00000  Uiso   1.00
C143   C     0.26877   0.68727   0.32802   0.00000  Uiso   1.00
C144   C     0.10713   0.73486   0.65289   0.00000  Uiso   1.00
C145   C     0.12983   0.71016   0.72393   0.00000  Uiso   1.00
C146   C     0.06830   0.63885   0.72508   0.00000  Uiso   1.00
C147   C     0.99168   0.52773   0.75785   0.00000  Uiso   1.00
C148   C     0.11107   0.86839   0.62579   0.00000  Uiso   1.00
C149   C     0.13707   0.95598   0.67405   0.00000  Uiso   1.00
C150   C     0.07884   0.99709   0.65240   0.00000  Uiso   1.00
C151   C     0.00833   0.09330   0.64308   0.00000  Uiso   1.00
C152   C     0.01479   0.72810   0.51416   0.00000  Uiso   1.00
C153   C     0.09127   0.72760   0.48392   0.00000  Uiso   1.00
C154   C     0.08470   0.68799   0.39965   0.00000  Uiso   1.00
C155   C     0.16238   0.69491   0.38523   0.00000  Uiso   1.00
C156   C     0.02585   0.68992   0.58541   0.00000  Uiso   1.00
C157   C     0.96427   0.61863   0.58646   0.00000  Uiso   1.00
C158   C     0.98687   0.59384   0.65748   0.00000  Uiso   1.00
C159   C     0.02979   0.82346   0.55830   0.00000  Uiso   1.00
C160   C     0.97150   0.86444   0.53658   0.00000  Uiso   1.00
C161   C     0.99741   0.95207   0.58479   0.00000  Uiso   1.00
H162   H     0.22771   0.84581   0.69095   0.00000  Uiso   1.00
H163   H     0.31315   0.81430   0.58936   0.00000  Uiso   1.00
H164   H     0.19273   0.74496   0.77615   0.00000  Uiso   1.00
H165   H     0.19997   0.99073   0.72626   0.00000  Uiso   1.00
H166   H     0.37202   0.75951   0.44696   0.00000  Uiso   1.00
H167   H     0.11812   0.61332   0.84083   0.00000  Uiso   1.00
H168   H     0.13337   0.13158   0.73566   0.00000  Uiso   1.00
H169   H     0.95151   0.69311   0.46162   0.00000  Uiso   1.00
H170   H     0.02179   0.65322   0.34744   0.00000  Uiso   1.00
H171   H     0.90138   0.58388   0.53423   0.00000  Uiso   1.00
H172   H     0.90861   0.82965   0.48435   0.00000  Uiso   1.00
H173   H     0.13554   0.62877   0.25061   0.00000  Uiso   1.00
H174   H     0.88164   0.48259   0.64449   0.00000  Uiso   1.00
H175   H     0.89689   0.00084   0.53931   0.00000  Uiso   1.00
O176   O     0.30500   0.67063   0.27781   0.00000  Uiso   1.00
O177   O     0.97188   0.47885   0.79457   0.00000  Uiso   1.00
O178   O     0.99189   0.15879   0.65657   0.00000  Uiso   1.00
N179   N     0.30672   0.73423   0.41642   0.00000  Uiso   1.00
N180   N     0.06934   0.59755   0.78466   0.00000  Uiso   1.00
N181   N     0.08359   0.08207   0.68634   0.00000  Uiso   1.00
N182   N     0.17947   0.66388   0.31076   0.00000  Uiso   1.00
N183   N     0.94209   0.52720   0.67900   0.00000  Uiso   1.00
N184   N     0.95634   0.01172   0.58069   0.00000  Uiso   1.00
C185   C     0.63884   0.16400   0.81100   0.00000  Uiso   1.00
C186   C     0.55084   0.17190   0.77262   0.00000  Uiso   1.00
C187   C     0.53627   0.24905   0.77936   0.00000  Uiso   1.00
C188   C     0.45105   0.24248   0.73973   0.00000  Uiso   1.00
C189   C     0.32477   0.26704   0.68691   0.00000  Uiso   1.00
C190   C     0.65361   0.10725   0.73558   0.00000  Uiso   1.00
C191   C     0.72547   0.13004   0.71119   0.00000  Uiso   1.00
C192   C     0.72676   0.06904   0.64038   0.00000  Uiso   1.00
C193   C     0.76008   0.99320   0.53011   0.00000  Uiso   1.00
C194   C     0.62610   0.11084   0.86833   0.00000  Uiso   1.00
C195   C     0.67484   0.13664   0.95556   0.00000  Uiso   1.00
C196   C     0.65298   0.07865   0.99651   0.00000  Uiso   1.00
C197   C     0.64359   0.00839   0.09235   0.00000  Uiso   1.00
C198   C     0.51338   0.01512   0.72864   0.00000  Uiso   1.00
C199   C     0.48270   0.09103   0.72789   0.00000  Uiso   1.00
C200   C     0.39747   0.08433   0.68824   0.00000  Uiso   1.00
C201   C     0.38278   0.16147   0.69491   0.00000  Uiso   1.00
C202   C     0.58547   0.02638   0.69085   0.00000  Uiso   1.00
C203   C     0.58666   0.96532   0.62007   0.00000  Uiso   1.00
C204   C     0.65850   0.98802   0.59557   0.00000  Uiso   1.00
C205   C     0.55796   0.02997   0.82360   0.00000  Uiso   1.00
C206   C     0.53603   0.97193   0.86443   0.00000  Uiso   1.00
C207   C     0.58472   0.99764   0.95170   0.00000  Uiso   1.00
H208   H     0.69190   0.22696   0.84582   0.00000  Uiso   1.00
H209   H     0.58903   0.31162   0.81398   0.00000  Uiso   1.00
H210   H     0.77820   0.19263   0.74583   0.00000  Uiso   1.00
H211   H     0.72757   0.19923   0.99015   0.00000  Uiso   1.00
H212   H     0.44493   0.36983   0.75892   0.00000  Uiso   1.00
H213   H     0.84382   0.11890   0.61523   0.00000  Uiso   1.00
H214   H     0.73707   0.13282   0.13044   0.00000  Uiso   1.00
H215   H     0.46033   0.95216   0.69380   0.00000  Uiso   1.00
H216   H     0.34475   0.02175   0.65362   0.00000  Uiso   1.00
H217   H     0.53392   0.90275   0.58547   0.00000  Uiso   1.00
H218   H     0.48329   0.90935   0.82979   0.00000  Uiso   1.00
H219   H     0.24667   0.13455   0.62876   0.00000  Uiso   1.00
H220   H     0.64555   0.88363   0.48508   0.00000  Uiso   1.00
H221   H     0.53880   0.89755   0.00029   0.00000  Uiso   1.00
O222   O     0.27395   0.30292   0.67013   0.00000  Uiso   1.00
O223   O     0.79728   0.97371   0.48163   0.00000  Uiso   1.00
O224   O     0.65722   0.99198   0.15757   0.00000  Uiso   1.00
N225   N     0.41413   0.30490   0.73382   0.00000  Uiso   1.00
N226   N     0.78706   0.07031   0.59947   0.00000  Uiso   1.00
N227   N     0.68727   0.08332   0.08114   0.00000  Uiso   1.00
N228   N     0.30744   0.17831   0.66378   0.00000  Uiso   1.00
N229   N     0.68037   0.94371   0.52943   0.00000  Uiso   1.00
N230   N     0.58058   0.95672   0.01111   0.00000  Uiso   1.00
C231   C     0.81049   0.63859   0.16375   0.00000  Uiso   1.00
C232   C     0.77177   0.55103   0.17167   0.00000  Uiso   1.00
C233   C     0.77856   0.53644   0.24847   0.00000  Uiso   1.00
C234   C     0.73857   0.45166   0.24199   0.00000  Uiso   1.00
C235   C     0.68528   0.32600   0.26653   0.00000  Uiso   1.00
C236   C     0.73421   0.65316   0.10702   0.00000  Uiso   1.00
C237   C     0.70943   0.72445   0.12947   0.00000  Uiso   1.00
C238   C     0.63783   0.72565   0.06856   0.00000  Uiso   1.00
C239   C     0.52627   0.75858   0.99271   0.00000  Uiso   1.00
C240   C     0.86855   0.62619   0.11106   0.00000  Uiso   1.00
C241   C     0.95671   0.67481   0.13689   0.00000  Uiso   1.00
C242   C     0.99821   0.65331   0.07938   0.00000  Uiso   1.00
C243   C     0.09522   0.64437   0.00980   0.00000  Uiso   1.00
C244   C     0.72742   0.51398   0.01565   0.00000  Uiso   1.00
C245   C     0.72665   0.48335   0.09123   0.00000  Uiso   1.00
C246   C     0.68664   0.39856   0.08463   0.00000  Uiso   1.00
C247   C     0.69337   0.38385   0.16141   0.00000  Uiso   1.00
C248   C     0.68909   0.58548   0.02658   0.00000  Uiso   1.00
C249   C     0.61752   0.58658   0.96563   0.00000  Uiso   1.00
C250   C     0.59263   0.65784   0.98798   0.00000  Uiso   1.00
C251   C     0.82342   0.55850   0.03062   0.00000  Uiso   1.00
C252   C     0.86479   0.53693   0.97305   0.00000  Uiso   1.00
C253   C     0.95300   0.58551   0.99879   0.00000  Uiso   1.00
H254   H     0.84562   0.69129   0.22637   0.00000  Uiso   1.00
H255   H     0.81348   0.58884   0.31071   0.00000  Uiso   1.00
H256   H     0.74437   0.77682   0.19172   0.00000  Uiso   1.00
H257   H     0.99161   0.72718   0.19915   0.00000  Uiso   1.00
H258   H     0.75792   0.44540   0.36875   0.00000  Uiso   1.00
H259   H     0.61221   0.84179   0.11785   0.00000  Uiso   1.00
H260   H     0.13357   0.73713   0.13350   0.00000  Uiso   1.00
H261   H     0.69228   0.46128   0.95302   0.00000  Uiso   1.00
H262   H     0.65173   0.34620   0.02237   0.00000  Uiso   1.00
H263   H     0.58262   0.53419   0.90338   0.00000  Uiso   1.00
H264   H     0.82986   0.48455   0.91081   0.00000  Uiso   1.00
H265   H     0.62663   0.24847   0.13472   0.00000  Uiso   1.00
H266   H     0.48093   0.64487   0.88382   0.00000  Uiso   1.00
H267   H     0.00228   0.54019   0.89947   0.00000  Uiso   1.00
O268   O     0.66834   0.27539   0.30228   0.00000  Uiso   1.00
O269   O     0.47719   0.79545   0.97310   0.00000  Uiso   1.00
O270   O     0.16120   0.65813   0.99364   0.00000  Uiso   1.00
N271   N     0.73260   0.41484   0.30415   0.00000  Uiso   1.00
N272   N     0.59637   0.78544   0.06958   0.00000  Uiso   1.00
N273   N     0.08378   0.68760   0.08420   0.00000  Uiso   1.00
N274   N     0.66196   0.30887   0.17822   0.00000  Uiso   1.00
N275   N     0.52572   0.67947   0.94365   0.00000  Uiso   1.00
N276   N     0.01314   0.58164   0.95827   0.00000  Uiso   1.00
