data_job_03685
_audit_creation_date              2018-12-19
_audit_creation_method            'Materials Studio'
_symmetry_space_group_name_H-M    'P1'
_symmetry_Int_Tables_number       1
_symmetry_cell_setting            triclinic
loop_
_symmetry_equiv_pos_as_xyz
  x,y,z
_cell_length_a                    22.4908
_cell_length_b                    16.3979
_cell_length_c                    13.5918
_cell_angle_alpha                 90.0000
_cell_angle_beta                  90.0000
_cell_angle_gamma                 90.0000
loop_
_atom_site_label
_atom_site_type_symbol
_atom_site_fract_x
_atom_site_fract_y
_atom_site_fract_z
_atom_site_U_iso_or_equiv
_atom_site_adp_type
_atom_site_occupancy
C1     C     0.80280   0.70843   0.94649   0.00000  Uiso   1.00
C2     C     0.83426   0.66178   0.86457   0.00000  Uiso   1.00
C3     C     0.86241   0.58692   0.87455   0.00000  Uiso   1.00
C4     C     0.88859   0.55434   0.79081   0.00000  Uiso   1.00
C5     C     0.93777   0.47571   0.67738   0.00000  Uiso   1.00
C6     C     0.83222   0.79215   0.95047   0.00000  Uiso   1.00
C7     C     0.85863   0.82691   0.03267   0.00000  Uiso   1.00
C8     C     0.88308   0.90408   0.02124   0.00000  Uiso   1.00
C9     C     0.92904   0.02787   0.04119   0.00000  Uiso   1.00
C10    C     0.73949   0.72293   0.91035   0.00000  Uiso   1.00
C11    C     0.68794   0.69950   0.95883   0.00000  Uiso   1.00
C12    C     0.63432   0.71840   0.91363   0.00000  Uiso   1.00
C13    C     0.53631   0.73472   0.87128   0.00000  Uiso   1.00
C14    C     0.79925   0.78368   0.78003   0.00000  Uiso   1.00
C15    C     0.83233   0.70266   0.77416   0.00000  Uiso   1.00
C16    C     0.85848   0.67018   0.69038   0.00000  Uiso   1.00
C17    C     0.88665   0.59528   0.70023   0.00000  Uiso   1.00
C18    C     0.83029   0.83302   0.86006   0.00000  Uiso   1.00
C19    C     0.85470   0.91016   0.84851   0.00000  Uiso   1.00
C20    C     0.88115   0.94503   0.93067   0.00000  Uiso   1.00
C21    C     0.73756   0.76380   0.81993   0.00000  Uiso   1.00
C22    C     0.68401   0.78275   0.77466   0.00000  Uiso   1.00
C23    C     0.63238   0.75935   0.82305   0.00000  Uiso   1.00
H24    H     0.80431   0.67661   0.01688   0.00000  Uiso   1.00
H25    H     0.86390   0.55531   0.94453   0.00000  Uiso   1.00
H26    H     0.86012   0.79527   0.10263   0.00000  Uiso   1.00
H27    H     0.68945   0.66787   0.02879   0.00000  Uiso   1.00
H28    H     0.92914   0.43887   0.82446   0.00000  Uiso   1.00
H29    H     0.92114   0.94484   0.15783   0.00000  Uiso   1.00
H30    H     0.56126   0.67620   0.00213   0.00000  Uiso   1.00
H31    H     0.79774   0.81550   0.70964   0.00000  Uiso   1.00
H32    H     0.85697   0.70182   0.62043   0.00000  Uiso   1.00
H33    H     0.85319   0.94177   0.77853   0.00000  Uiso   1.00
H34    H     0.68253   0.81438   0.70469   0.00000  Uiso   1.00
H35    H     0.92352   0.55778   0.56141   0.00000  Uiso   1.00
H36    H     0.91552   0.06375   0.89478   0.00000  Uiso   1.00
H37    H     0.55564   0.79511   0.73907   0.00000  Uiso   1.00
O38    O     0.96543   0.42105   0.63980   0.00000  Uiso   1.00
O39    O     0.95493   0.08486   0.07718   0.00000  Uiso   1.00
O40    O     0.48278   0.73241   0.87289   0.00000  Uiso   1.00
N41    N     0.91968   0.48245   0.77479   0.00000  Uiso   1.00
N42    N     0.91221   0.95549   0.08647   0.00000  Uiso   1.00
N43    N     0.57575   0.70436   0.94091   0.00000  Uiso   1.00
N44    N     0.91665   0.54643   0.63324   0.00000  Uiso   1.00
N45    N     0.90918   0.01948   0.94492   0.00000  Uiso   1.00
N46    N     0.57273   0.76834   0.79936   0.00000  Uiso   1.00
C47    C     0.69720   0.79157   0.44649   0.00000  Uiso   1.00
C48    C     0.66574   0.83822   0.36457   0.00000  Uiso   1.00
C49    C     0.63759   0.91308   0.37455   0.00000  Uiso   1.00
C50    C     0.61141   0.94566   0.29081   0.00000  Uiso   1.00
C51    C     0.56223   0.02429   0.17738   0.00000  Uiso   1.00
C52    C     0.66778   0.70785   0.45047   0.00000  Uiso   1.00
C53    C     0.64137   0.67309   0.53267   0.00000  Uiso   1.00
C54    C     0.61692   0.59592   0.52124   0.00000  Uiso   1.00
C55    C     0.57096   0.47213   0.54119   0.00000  Uiso   1.00
C56    C     0.76051   0.77707   0.41035   0.00000  Uiso   1.00
C57    C     0.81206   0.80050   0.45883   0.00000  Uiso   1.00
C58    C     0.86568   0.78160   0.41363   0.00000  Uiso   1.00
C59    C     0.96369   0.76528   0.37128   0.00000  Uiso   1.00
C60    C     0.70075   0.71632   0.28003   0.00000  Uiso   1.00
C61    C     0.66767   0.79734   0.27416   0.00000  Uiso   1.00
C62    C     0.64152   0.82982   0.19038   0.00000  Uiso   1.00
C63    C     0.61335   0.90472   0.20023   0.00000  Uiso   1.00
C64    C     0.66971   0.66698   0.36006   0.00000  Uiso   1.00
C65    C     0.64530   0.58984   0.34851   0.00000  Uiso   1.00
C66    C     0.61885   0.55497   0.43067   0.00000  Uiso   1.00
C67    C     0.76244   0.73620   0.31993   0.00000  Uiso   1.00
C68    C     0.81599   0.71725   0.27466   0.00000  Uiso   1.00
C69    C     0.86762   0.74065   0.32305   0.00000  Uiso   1.00
H70    H     0.69569   0.82339   0.51688   0.00000  Uiso   1.00
H71    H     0.63610   0.94469   0.44453   0.00000  Uiso   1.00
H72    H     0.63988   0.70473   0.60263   0.00000  Uiso   1.00
H73    H     0.81055   0.83213   0.52879   0.00000  Uiso   1.00
H74    H     0.57086   0.06113   0.32446   0.00000  Uiso   1.00
H75    H     0.57886   0.55516   0.65783   0.00000  Uiso   1.00
H76    H     0.93874   0.82380   0.50213   0.00000  Uiso   1.00
H77    H     0.70226   0.68450   0.20964   0.00000  Uiso   1.00
H78    H     0.64303   0.79818   0.12043   0.00000  Uiso   1.00
H79    H     0.64681   0.55823   0.27853   0.00000  Uiso   1.00
H80    H     0.81747   0.68562   0.20469   0.00000  Uiso   1.00
H81    H     0.57648   0.94222   0.06141   0.00000  Uiso   1.00
H82    H     0.58448   0.43625   0.39478   0.00000  Uiso   1.00
H83    H     0.94436   0.70489   0.23907   0.00000  Uiso   1.00
O84    O     0.53457   0.07895   0.13980   0.00000  Uiso   1.00
O85    O     0.54507   0.41514   0.57718   0.00000  Uiso   1.00
O86    O     0.01722   0.76759   0.37289   0.00000  Uiso   1.00
N87    N     0.58032   0.01755   0.27479   0.00000  Uiso   1.00
N88    N     0.58779   0.54451   0.58647   0.00000  Uiso   1.00
N89    N     0.92425   0.79564   0.44091   0.00000  Uiso   1.00
N90    N     0.58335   0.95357   0.13324   0.00000  Uiso   1.00
N91    N     0.59082   0.48052   0.44492   0.00000  Uiso   1.00
N92    N     0.92727   0.73166   0.29936   0.00000  Uiso   1.00
C93    C     0.19720   0.70843   0.55351   0.00000  Uiso   1.00
C94    C     0.16574   0.66178   0.63543   0.00000  Uiso   1.00
C95    C     0.13759   0.58692   0.62545   0.00000  Uiso   1.00
C96    C     0.11141   0.55434   0.70919   0.00000  Uiso   1.00
C97    C     0.06223   0.47571   0.82262   0.00000  Uiso   1.00
C98    C     0.16778   0.79215   0.54953   0.00000  Uiso   1.00
C99    C     0.14137   0.82691   0.46733   0.00000  Uiso   1.00
C100   C     0.11692   0.90408   0.47876   0.00000  Uiso   1.00
C101   C     0.07096   0.02787   0.45881   0.00000  Uiso   1.00
C102   C     0.26051   0.72293   0.58965   0.00000  Uiso   1.00
C103   C     0.31206   0.69950   0.54117   0.00000  Uiso   1.00
C104   C     0.36568   0.71840   0.58637   0.00000  Uiso   1.00
C105   C     0.46369   0.73472   0.62872   0.00000  Uiso   1.00
C106   C     0.20075   0.78368   0.71997   0.00000  Uiso   1.00
C107   C     0.16767   0.70266   0.72584   0.00000  Uiso   1.00
C108   C     0.14152   0.67018   0.80962   0.00000  Uiso   1.00
C109   C     0.11335   0.59528   0.79977   0.00000  Uiso   1.00
C110   C     0.16971   0.83302   0.63994   0.00000  Uiso   1.00
C111   C     0.14530   0.91016   0.65149   0.00000  Uiso   1.00
C112   C     0.11885   0.94503   0.56933   0.00000  Uiso   1.00
C113   C     0.26244   0.76380   0.68007   0.00000  Uiso   1.00
C114   C     0.31599   0.78275   0.72534   0.00000  Uiso   1.00
C115   C     0.36762   0.75935   0.67695   0.00000  Uiso   1.00
H116   H     0.19569   0.67661   0.48312   0.00000  Uiso   1.00
H117   H     0.13610   0.55531   0.55547   0.00000  Uiso   1.00
H118   H     0.13988   0.79527   0.39737   0.00000  Uiso   1.00
H119   H     0.31055   0.66787   0.47121   0.00000  Uiso   1.00
H120   H     0.07086   0.43887   0.67554   0.00000  Uiso   1.00
H121   H     0.07886   0.94484   0.34217   0.00000  Uiso   1.00
H122   H     0.43874   0.67620   0.49787   0.00000  Uiso   1.00
H123   H     0.20226   0.81550   0.79036   0.00000  Uiso   1.00
H124   H     0.14303   0.70182   0.87957   0.00000  Uiso   1.00
H125   H     0.14681   0.94177   0.72147   0.00000  Uiso   1.00
H126   H     0.31747   0.81438   0.79531   0.00000  Uiso   1.00
H127   H     0.07648   0.55778   0.93859   0.00000  Uiso   1.00
H128   H     0.08448   0.06375   0.60522   0.00000  Uiso   1.00
H129   H     0.44436   0.79511   0.76093   0.00000  Uiso   1.00
O130   O     0.03457   0.42105   0.86020   0.00000  Uiso   1.00
O131   O     0.04507   0.08486   0.42282   0.00000  Uiso   1.00
O132   O     0.51722   0.73241   0.62711   0.00000  Uiso   1.00
N133   N     0.08032   0.48245   0.72521   0.00000  Uiso   1.00
N134   N     0.08779   0.95549   0.41353   0.00000  Uiso   1.00
N135   N     0.42425   0.70436   0.55909   0.00000  Uiso   1.00
N136   N     0.08335   0.54643   0.86676   0.00000  Uiso   1.00
N137   N     0.09082   0.01948   0.55508   0.00000  Uiso   1.00
N138   N     0.42727   0.76834   0.70064   0.00000  Uiso   1.00
C139   C     0.30280   0.79157   0.05351   0.00000  Uiso   1.00
C140   C     0.33426   0.83822   0.13543   0.00000  Uiso   1.00
C141   C     0.36241   0.91308   0.12545   0.00000  Uiso   1.00
C142   C     0.38859   0.94566   0.20919   0.00000  Uiso   1.00
C143   C     0.43777   0.02429   0.32262   0.00000  Uiso   1.00
C144   C     0.33222   0.70785   0.04953   0.00000  Uiso   1.00
C145   C     0.35863   0.67309   0.96733   0.00000  Uiso   1.00
C146   C     0.38308   0.59592   0.97876   0.00000  Uiso   1.00
C147   C     0.42904   0.47213   0.95881   0.00000  Uiso   1.00
C148   C     0.23949   0.77707   0.08965   0.00000  Uiso   1.00
C149   C     0.18794   0.80050   0.04117   0.00000  Uiso   1.00
C150   C     0.13432   0.78160   0.08637   0.00000  Uiso   1.00
C151   C     0.03631   0.76528   0.12872   0.00000  Uiso   1.00
C152   C     0.29925   0.71632   0.21997   0.00000  Uiso   1.00
C153   C     0.33233   0.79734   0.22584   0.00000  Uiso   1.00
C154   C     0.35848   0.82982   0.30962   0.00000  Uiso   1.00
C155   C     0.38665   0.90472   0.29977   0.00000  Uiso   1.00
C156   C     0.33029   0.66698   0.13994   0.00000  Uiso   1.00
C157   C     0.35470   0.58984   0.15149   0.00000  Uiso   1.00
C158   C     0.38115   0.55497   0.06933   0.00000  Uiso   1.00
C159   C     0.23756   0.73620   0.18007   0.00000  Uiso   1.00
C160   C     0.18401   0.71725   0.22534   0.00000  Uiso   1.00
C161   C     0.13238   0.74065   0.17695   0.00000  Uiso   1.00
H162   H     0.30431   0.82339   0.98312   0.00000  Uiso   1.00
H163   H     0.36390   0.94469   0.05547   0.00000  Uiso   1.00
H164   H     0.36012   0.70473   0.89737   0.00000  Uiso   1.00
H165   H     0.18945   0.83213   0.97121   0.00000  Uiso   1.00
H166   H     0.42914   0.06113   0.17554   0.00000  Uiso   1.00
H167   H     0.42114   0.55516   0.84217   0.00000  Uiso   1.00
H168   H     0.06126   0.82380   0.99787   0.00000  Uiso   1.00
H169   H     0.29774   0.68450   0.29036   0.00000  Uiso   1.00
H170   H     0.35697   0.79818   0.37957   0.00000  Uiso   1.00
H171   H     0.35319   0.55823   0.22147   0.00000  Uiso   1.00
H172   H     0.18253   0.68562   0.29531   0.00000  Uiso   1.00
H173   H     0.42352   0.94222   0.43859   0.00000  Uiso   1.00
H174   H     0.41552   0.43625   0.10522   0.00000  Uiso   1.00
H175   H     0.05564   0.70489   0.26093   0.00000  Uiso   1.00
O176   O     0.46543   0.07895   0.36020   0.00000  Uiso   1.00
O177   O     0.45493   0.41514   0.92282   0.00000  Uiso   1.00
O178   O     0.98278   0.76759   0.12711   0.00000  Uiso   1.00
N179   N     0.41968   0.01755   0.22521   0.00000  Uiso   1.00
N180   N     0.41221   0.54451   0.91353   0.00000  Uiso   1.00
N181   N     0.07575   0.79564   0.05909   0.00000  Uiso   1.00
N182   N     0.41665   0.95357   0.36676   0.00000  Uiso   1.00
N183   N     0.40918   0.48052   0.05508   0.00000  Uiso   1.00
N184   N     0.07273   0.73166   0.20064   0.00000  Uiso   1.00
C185   C     0.19720   0.29157   0.05351   0.00000  Uiso   1.00
C186   C     0.16574   0.33822   0.13543   0.00000  Uiso   1.00
C187   C     0.13759   0.41308   0.12545   0.00000  Uiso   1.00
C188   C     0.11141   0.44566   0.20919   0.00000  Uiso   1.00
C189   C     0.06223   0.52429   0.32262   0.00000  Uiso   1.00
C190   C     0.16778   0.20785   0.04953   0.00000  Uiso   1.00
C191   C     0.14137   0.17309   0.96733   0.00000  Uiso   1.00
C192   C     0.11692   0.09592   0.97876   0.00000  Uiso   1.00
C193   C     0.07096   0.97213   0.95881   0.00000  Uiso   1.00
C194   C     0.26051   0.27707   0.08965   0.00000  Uiso   1.00
C195   C     0.31206   0.30050   0.04117   0.00000  Uiso   1.00
C196   C     0.36568   0.28160   0.08637   0.00000  Uiso   1.00
C197   C     0.46369   0.26528   0.12872   0.00000  Uiso   1.00
C198   C     0.20075   0.21632   0.21997   0.00000  Uiso   1.00
C199   C     0.16767   0.29734   0.22584   0.00000  Uiso   1.00
C200   C     0.14152   0.32982   0.30962   0.00000  Uiso   1.00
C201   C     0.11335   0.40472   0.29977   0.00000  Uiso   1.00
C202   C     0.16971   0.16698   0.13994   0.00000  Uiso   1.00
C203   C     0.14530   0.08984   0.15149   0.00000  Uiso   1.00
C204   C     0.11885   0.05497   0.06933   0.00000  Uiso   1.00
C205   C     0.26244   0.23620   0.18007   0.00000  Uiso   1.00
C206   C     0.31599   0.21725   0.22534   0.00000  Uiso   1.00
C207   C     0.36762   0.24065   0.17695   0.00000  Uiso   1.00
H208   H     0.19569   0.32339   0.98312   0.00000  Uiso   1.00
H209   H     0.13610   0.44469   0.05547   0.00000  Uiso   1.00
H210   H     0.13988   0.20473   0.89737   0.00000  Uiso   1.00
H211   H     0.31055   0.33213   0.97121   0.00000  Uiso   1.00
H212   H     0.07086   0.56113   0.17554   0.00000  Uiso   1.00
H213   H     0.07886   0.05516   0.84217   0.00000  Uiso   1.00
H214   H     0.43874   0.32380   0.99787   0.00000  Uiso   1.00
H215   H     0.20226   0.18450   0.29036   0.00000  Uiso   1.00
H216   H     0.14303   0.29818   0.37957   0.00000  Uiso   1.00
H217   H     0.14681   0.05823   0.22147   0.00000  Uiso   1.00
H218   H     0.31747   0.18562   0.29531   0.00000  Uiso   1.00
H219   H     0.07648   0.44222   0.43859   0.00000  Uiso   1.00
H220   H     0.08448   0.93625   0.10522   0.00000  Uiso   1.00
H221   H     0.44436   0.20489   0.26093   0.00000  Uiso   1.00
O222   O     0.03457   0.57895   0.36020   0.00000  Uiso   1.00
O223   O     0.04507   0.91514   0.92282   0.00000  Uiso   1.00
O224   O     0.51722   0.26759   0.12711   0.00000  Uiso   1.00
N225   N     0.08032   0.51755   0.22521   0.00000  Uiso   1.00
N226   N     0.08779   0.04451   0.91353   0.00000  Uiso   1.00
N227   N     0.42425   0.29564   0.05909   0.00000  Uiso   1.00
N228   N     0.08335   0.45357   0.36676   0.00000  Uiso   1.00
N229   N     0.09082   0.98052   0.05508   0.00000  Uiso   1.00
N230   N     0.42727   0.23166   0.20064   0.00000  Uiso   1.00
C231   C     0.30280   0.20843   0.55351   0.00000  Uiso   1.00
C232   C     0.33426   0.16178   0.63543   0.00000  Uiso   1.00
C233   C     0.36241   0.08692   0.62545   0.00000  Uiso   1.00
C234   C     0.38859   0.05434   0.70919   0.00000  Uiso   1.00
C235   C     0.43777   0.97571   0.82262   0.00000  Uiso   1.00
C236   C     0.33222   0.29215   0.54953   0.00000  Uiso   1.00
C237   C     0.35863   0.32691   0.46733   0.00000  Uiso   1.00
C238   C     0.38308   0.40408   0.47876   0.00000  Uiso   1.00
C239   C     0.42904   0.52787   0.45881   0.00000  Uiso   1.00
C240   C     0.23949   0.22293   0.58965   0.00000  Uiso   1.00
C241   C     0.18794   0.19950   0.54117   0.00000  Uiso   1.00
C242   C     0.13432   0.21840   0.58637   0.00000  Uiso   1.00
C243   C     0.03631   0.23472   0.62872   0.00000  Uiso   1.00
C244   C     0.29925   0.28368   0.71997   0.00000  Uiso   1.00
C245   C     0.33233   0.20266   0.72584   0.00000  Uiso   1.00
C246   C     0.35848   0.17018   0.80962   0.00000  Uiso   1.00
C247   C     0.38665   0.09528   0.79977   0.00000  Uiso   1.00
C248   C     0.33029   0.33302   0.63994   0.00000  Uiso   1.00
C249   C     0.35470   0.41016   0.65149   0.00000  Uiso   1.00
C250   C     0.38115   0.44503   0.56933   0.00000  Uiso   1.00
C251   C     0.23756   0.26380   0.68007   0.00000  Uiso   1.00
C252   C     0.18401   0.28275   0.72534   0.00000  Uiso   1.00
C253   C     0.13238   0.25935   0.67695   0.00000  Uiso   1.00
H254   H     0.30431   0.17661   0.48312   0.00000  Uiso   1.00
H255   H     0.36390   0.05531   0.55547   0.00000  Uiso   1.00
H256   H     0.36012   0.29527   0.39737   0.00000  Uiso   1.00
H257   H     0.18945   0.16787   0.47121   0.00000  Uiso   1.00
H258   H     0.42914   0.93887   0.67554   0.00000  Uiso   1.00
H259   H     0.42114   0.44484   0.34217   0.00000  Uiso   1.00
H260   H     0.06126   0.17620   0.49787   0.00000  Uiso   1.00
H261   H     0.29774   0.31550   0.79036   0.00000  Uiso   1.00
H262   H     0.35697   0.20182   0.87957   0.00000  Uiso   1.00
H263   H     0.35319   0.44177   0.72147   0.00000  Uiso   1.00
H264   H     0.18253   0.31438   0.79531   0.00000  Uiso   1.00
H265   H     0.42352   0.05778   0.93859   0.00000  Uiso   1.00
H266   H     0.41552   0.56375   0.60522   0.00000  Uiso   1.00
H267   H     0.05564   0.29511   0.76093   0.00000  Uiso   1.00
O268   O     0.46543   0.92105   0.86020   0.00000  Uiso   1.00
O269   O     0.45493   0.58486   0.42282   0.00000  Uiso   1.00
O270   O     0.98278   0.23241   0.62711   0.00000  Uiso   1.00
N271   N     0.41968   0.98245   0.72521   0.00000  Uiso   1.00
N272   N     0.41221   0.45549   0.41353   0.00000  Uiso   1.00
N273   N     0.07575   0.20436   0.55909   0.00000  Uiso   1.00
N274   N     0.41665   0.04643   0.86676   0.00000  Uiso   1.00
N275   N     0.40918   0.51948   0.55508   0.00000  Uiso   1.00
N276   N     0.07273   0.26834   0.70064   0.00000  Uiso   1.00
C277   C     0.80280   0.29157   0.44649   0.00000  Uiso   1.00
C278   C     0.83426   0.33822   0.36457   0.00000  Uiso   1.00
C279   C     0.86241   0.41308   0.37455   0.00000  Uiso   1.00
C280   C     0.88859   0.44566   0.29081   0.00000  Uiso   1.00
C281   C     0.93777   0.52429   0.17738   0.00000  Uiso   1.00
C282   C     0.83222   0.20785   0.45047   0.00000  Uiso   1.00
C283   C     0.85863   0.17309   0.53267   0.00000  Uiso   1.00
C284   C     0.88308   0.09592   0.52124   0.00000  Uiso   1.00
C285   C     0.92904   0.97213   0.54119   0.00000  Uiso   1.00
C286   C     0.73949   0.27707   0.41035   0.00000  Uiso   1.00
C287   C     0.68794   0.30050   0.45883   0.00000  Uiso   1.00
C288   C     0.63432   0.28160   0.41363   0.00000  Uiso   1.00
C289   C     0.53631   0.26528   0.37128   0.00000  Uiso   1.00
C290   C     0.79925   0.21632   0.28003   0.00000  Uiso   1.00
C291   C     0.83233   0.29734   0.27416   0.00000  Uiso   1.00
C292   C     0.85848   0.32982   0.19038   0.00000  Uiso   1.00
C293   C     0.88665   0.40472   0.20023   0.00000  Uiso   1.00
C294   C     0.83029   0.16698   0.36006   0.00000  Uiso   1.00
C295   C     0.85470   0.08984   0.34851   0.00000  Uiso   1.00
C296   C     0.88115   0.05497   0.43067   0.00000  Uiso   1.00
C297   C     0.73756   0.23620   0.31993   0.00000  Uiso   1.00
C298   C     0.68401   0.21725   0.27466   0.00000  Uiso   1.00
C299   C     0.63238   0.24065   0.32305   0.00000  Uiso   1.00
H300   H     0.80431   0.32339   0.51688   0.00000  Uiso   1.00
H301   H     0.86390   0.44469   0.44453   0.00000  Uiso   1.00
H302   H     0.86012   0.20473   0.60263   0.00000  Uiso   1.00
H303   H     0.68945   0.33213   0.52879   0.00000  Uiso   1.00
H304   H     0.92914   0.56113   0.32446   0.00000  Uiso   1.00
H305   H     0.92114   0.05516   0.65783   0.00000  Uiso   1.00
H306   H     0.56126   0.32380   0.50213   0.00000  Uiso   1.00
H307   H     0.79774   0.18450   0.20964   0.00000  Uiso   1.00
H308   H     0.85697   0.29818   0.12043   0.00000  Uiso   1.00
H309   H     0.85319   0.05823   0.27853   0.00000  Uiso   1.00
H310   H     0.68253   0.18562   0.20469   0.00000  Uiso   1.00
H311   H     0.92352   0.44222   0.06141   0.00000  Uiso   1.00
H312   H     0.91552   0.93625   0.39478   0.00000  Uiso   1.00
H313   H     0.55564   0.20489   0.23907   0.00000  Uiso   1.00
O314   O     0.96543   0.57895   0.13980   0.00000  Uiso   1.00
O315   O     0.95493   0.91514   0.57718   0.00000  Uiso   1.00
O316   O     0.48278   0.26759   0.37289   0.00000  Uiso   1.00
N317   N     0.91968   0.51755   0.27479   0.00000  Uiso   1.00
N318   N     0.91221   0.04451   0.58647   0.00000  Uiso   1.00
N319   N     0.57575   0.29564   0.44091   0.00000  Uiso   1.00
N320   N     0.91665   0.45357   0.13324   0.00000  Uiso   1.00
N321   N     0.90918   0.98052   0.44492   0.00000  Uiso   1.00
N322   N     0.57273   0.23166   0.29936   0.00000  Uiso   1.00
C323   C     0.69720   0.20843   0.94649   0.00000  Uiso   1.00
C324   C     0.66574   0.16178   0.86457   0.00000  Uiso   1.00
C325   C     0.63759   0.08692   0.87455   0.00000  Uiso   1.00
C326   C     0.61141   0.05434   0.79081   0.00000  Uiso   1.00
C327   C     0.56223   0.97571   0.67738   0.00000  Uiso   1.00
C328   C     0.66778   0.29215   0.95047   0.00000  Uiso   1.00
C329   C     0.64137   0.32691   0.03267   0.00000  Uiso   1.00
C330   C     0.61692   0.40408   0.02124   0.00000  Uiso   1.00
C331   C     0.57096   0.52787   0.04119   0.00000  Uiso   1.00
C332   C     0.76051   0.22293   0.91035   0.00000  Uiso   1.00
C333   C     0.81206   0.19950   0.95883   0.00000  Uiso   1.00
C334   C     0.86568   0.21840   0.91363   0.00000  Uiso   1.00
C335   C     0.96369   0.23472   0.87128   0.00000  Uiso   1.00
C336   C     0.70075   0.28368   0.78003   0.00000  Uiso   1.00
C337   C     0.66767   0.20266   0.77416   0.00000  Uiso   1.00
C338   C     0.64152   0.17018   0.69038   0.00000  Uiso   1.00
C339   C     0.61335   0.09528   0.70023   0.00000  Uiso   1.00
C340   C     0.66971   0.33302   0.86006   0.00000  Uiso   1.00
C341   C     0.64530   0.41016   0.84851   0.00000  Uiso   1.00
C342   C     0.61885   0.44503   0.93067   0.00000  Uiso   1.00
C343   C     0.76244   0.26380   0.81993   0.00000  Uiso   1.00
C344   C     0.81599   0.28275   0.77466   0.00000  Uiso   1.00
C345   C     0.86762   0.25935   0.82305   0.00000  Uiso   1.00
H346   H     0.69569   0.17661   0.01688   0.00000  Uiso   1.00
H347   H     0.63610   0.05531   0.94453   0.00000  Uiso   1.00
H348   H     0.63988   0.29527   0.10263   0.00000  Uiso   1.00
H349   H     0.81055   0.16787   0.02879   0.00000  Uiso   1.00
H350   H     0.57086   0.93887   0.82446   0.00000  Uiso   1.00
H351   H     0.57886   0.44484   0.15783   0.00000  Uiso   1.00
H352   H     0.93874   0.17620   0.00213   0.00000  Uiso   1.00
H353   H     0.70226   0.31550   0.70964   0.00000  Uiso   1.00
H354   H     0.64303   0.20182   0.62043   0.00000  Uiso   1.00
H355   H     0.64681   0.44177   0.77853   0.00000  Uiso   1.00
H356   H     0.81747   0.31438   0.70469   0.00000  Uiso   1.00
H357   H     0.57648   0.05778   0.56141   0.00000  Uiso   1.00
H358   H     0.58448   0.56375   0.89478   0.00000  Uiso   1.00
H359   H     0.94436   0.29511   0.73907   0.00000  Uiso   1.00
O360   O     0.53457   0.92105   0.63980   0.00000  Uiso   1.00
O361   O     0.54507   0.58486   0.07718   0.00000  Uiso   1.00
O362   O     0.01722   0.23241   0.87289   0.00000  Uiso   1.00
N363   N     0.58032   0.98245   0.77479   0.00000  Uiso   1.00
N364   N     0.58779   0.45549   0.08647   0.00000  Uiso   1.00
N365   N     0.92425   0.20436   0.94091   0.00000  Uiso   1.00
N366   N     0.58335   0.04643   0.63324   0.00000  Uiso   1.00
N367   N     0.59082   0.51948   0.94492   0.00000  Uiso   1.00
N368   N     0.92727   0.26834   0.79936   0.00000  Uiso   1.00
