data_job_00360
_audit_creation_date              2018-12-19
_audit_creation_method            'Materials Studio'
_symmetry_space_group_name_H-M    'P1'
_symmetry_Int_Tables_number       1
_symmetry_cell_setting            triclinic
loop_
_symmetry_equiv_pos_as_xyz
  x,y,z
_cell_length_a                    7.0952
_cell_length_b                    23.7262
_cell_length_c                    42.3485
_cell_angle_alpha                 90.0000
_cell_angle_beta                  90.0000
_cell_angle_gamma                 90.0000
loop_
_atom_site_label
_atom_site_type_symbol
_atom_site_fract_x
_atom_site_fract_y
_atom_site_fract_z
_atom_site_U_iso_or_equiv
_atom_site_adp_type
_atom_site_occupancy
C1     C     0.23880   0.80856   0.08487   0.00000  Uiso   1.00
C2     C     0.34682   0.86066   0.07403   0.00000  Uiso   1.00
C3     C     0.26852   0.90800   0.05995   0.00000  Uiso   1.00
C4     C     0.39117   0.95119   0.05176   0.00000  Uiso   1.00
C5     C     0.52942   0.03268   0.03406   0.00000  Uiso   1.00
C6     C     0.32929   0.75868   0.06796   0.00000  Uiso   1.00
C7     C     0.23623   0.72028   0.04877   0.00000  Uiso   1.00
C8     C     0.34413   0.67762   0.03547   0.00000  Uiso   1.00
C9     C     0.45512   0.60078   0.00836   0.00000  Uiso   1.00
C10    C     0.28498   0.80122   0.11979   0.00000  Uiso   1.00
C11    C     0.15467   0.79857   0.14419   0.00000  Uiso   1.00
C12    C     0.22527   0.79171   0.17452   0.00000  Uiso   1.00
C13    C     0.26747   0.78091   0.22788   0.00000  Uiso   1.00
C14    C     0.59587   0.80108   0.09536   0.00000  Uiso   1.00
C15    C     0.54077   0.85659   0.07973   0.00000  Uiso   1.00
C16    C     0.66358   0.89972   0.07156   0.00000  Uiso   1.00
C17    C     0.58547   0.94711   0.05747   0.00000  Uiso   1.00
C18    C     0.52323   0.75462   0.07366   0.00000  Uiso   1.00
C19    C     0.63129   0.71200   0.06039   0.00000  Uiso   1.00
C20    C     0.53843   0.67355   0.04118   0.00000  Uiso   1.00
C21    C     0.47893   0.79716   0.12549   0.00000  Uiso   1.00
C22    C     0.54974   0.79029   0.15580   0.00000  Uiso   1.00
C23    C     0.41957   0.78764   0.18023   0.00000  Uiso   1.00
H24    H     0.08780   0.81173   0.08043   0.00000  Uiso   1.00
H25    H     0.11842   0.91113   0.05554   0.00000  Uiso   1.00
H26    H     0.08614   0.72344   0.04437   0.00000  Uiso   1.00
H27    H     0.00460   0.80172   0.13976   0.00000  Uiso   1.00
H28    H     0.23790   0.01953   0.03046   0.00000  Uiso   1.00
H29    H     0.16982   0.62376   0.00691   0.00000  Uiso   1.00
H30    H     0.99788   0.78883   0.20807   0.00000  Uiso   1.00
H31    H     0.74687   0.79791   0.09980   0.00000  Uiso   1.00
H32    H     0.81366   0.89656   0.07598   0.00000  Uiso   1.00
H33    H     0.78137   0.70887   0.06480   0.00000  Uiso   1.00
H34    H     0.69983   0.78715   0.16020   0.00000  Uiso   1.00
H35    H     0.80219   0.00770   0.04704   0.00000  Uiso   1.00
H36    H     0.73410   0.61194   0.02349   0.00000  Uiso   1.00
H37    H     0.56216   0.77700   0.22465   0.00000  Uiso   1.00
O38    O     0.55209   0.07875   0.02272   0.00000  Uiso   1.00
O39    O     0.46276   0.55952   0.99183   0.00000  Uiso   1.00
O40    O     0.23718   0.77608   0.25574   0.00000  Uiso   1.00
N41    N     0.36154   0.00321   0.03764   0.00000  Uiso   1.00
N42    N     0.29789   0.63320   0.01561   0.00000  Uiso   1.00
N43    N     0.13713   0.78751   0.20368   0.00000  Uiso   1.00
N44    N     0.66517   0.99685   0.04656   0.00000  Uiso   1.00
N45    N     0.60153   0.62684   0.02454   0.00000  Uiso   1.00
N46    N     0.44077   0.78115   0.21260   0.00000  Uiso   1.00
C47    C     0.26120   0.69144   0.58487   0.00000  Uiso   1.00
C48    C     0.15318   0.63934   0.57403   0.00000  Uiso   1.00
C49    C     0.23148   0.59200   0.55995   0.00000  Uiso   1.00
C50    C     0.10883   0.54881   0.55176   0.00000  Uiso   1.00
C51    C     0.97058   0.46732   0.53406   0.00000  Uiso   1.00
C52    C     0.17071   0.74132   0.56796   0.00000  Uiso   1.00
C53    C     0.26377   0.77972   0.54877   0.00000  Uiso   1.00
C54    C     0.15587   0.82238   0.53547   0.00000  Uiso   1.00
C55    C     0.04488   0.89922   0.50836   0.00000  Uiso   1.00
C56    C     0.21502   0.69878   0.61979   0.00000  Uiso   1.00
C57    C     0.34533   0.70143   0.64419   0.00000  Uiso   1.00
C58    C     0.27473   0.70829   0.67452   0.00000  Uiso   1.00
C59    C     0.23253   0.71909   0.72788   0.00000  Uiso   1.00
C60    C     0.90413   0.69892   0.59536   0.00000  Uiso   1.00
C61    C     0.95923   0.64341   0.57973   0.00000  Uiso   1.00
C62    C     0.83642   0.60028   0.57156   0.00000  Uiso   1.00
C63    C     0.91453   0.55289   0.55747   0.00000  Uiso   1.00
C64    C     0.97677   0.74538   0.57366   0.00000  Uiso   1.00
C65    C     0.86871   0.78800   0.56039   0.00000  Uiso   1.00
C66    C     0.96157   0.82645   0.54118   0.00000  Uiso   1.00
C67    C     0.02107   0.70284   0.62549   0.00000  Uiso   1.00
C68    C     0.95026   0.70971   0.65580   0.00000  Uiso   1.00
C69    C     0.08043   0.71236   0.68023   0.00000  Uiso   1.00
H70    H     0.41220   0.68827   0.58043   0.00000  Uiso   1.00
H71    H     0.38158   0.58887   0.55554   0.00000  Uiso   1.00
H72    H     0.41386   0.77656   0.54437   0.00000  Uiso   1.00
H73    H     0.49540   0.69828   0.63976   0.00000  Uiso   1.00
H74    H     0.26210   0.48047   0.53046   0.00000  Uiso   1.00
H75    H     0.33018   0.87624   0.50691   0.00000  Uiso   1.00
H76    H     0.50212   0.71117   0.70807   0.00000  Uiso   1.00
H77    H     0.75313   0.70209   0.59980   0.00000  Uiso   1.00
H78    H     0.68634   0.60344   0.57598   0.00000  Uiso   1.00
H79    H     0.71863   0.79113   0.56480   0.00000  Uiso   1.00
H80    H     0.80017   0.71285   0.66020   0.00000  Uiso   1.00
H81    H     0.69781   0.49230   0.54704   0.00000  Uiso   1.00
H82    H     0.76590   0.88806   0.52349   0.00000  Uiso   1.00
H83    H     0.93784   0.72300   0.72465   0.00000  Uiso   1.00
O84    O     0.94791   0.42125   0.52272   0.00000  Uiso   1.00
O85    O     0.03724   0.94048   0.49183   0.00000  Uiso   1.00
O86    O     0.26282   0.72392   0.75574   0.00000  Uiso   1.00
N87    N     0.13846   0.49679   0.53764   0.00000  Uiso   1.00
N88    N     0.20211   0.86680   0.51561   0.00000  Uiso   1.00
N89    N     0.36287   0.71249   0.70368   0.00000  Uiso   1.00
N90    N     0.83483   0.50315   0.54656   0.00000  Uiso   1.00
N91    N     0.89847   0.87316   0.52454   0.00000  Uiso   1.00
N92    N     0.05923   0.71885   0.71260   0.00000  Uiso   1.00
C93    C     0.76120   0.80856   0.41513   0.00000  Uiso   1.00
C94    C     0.65318   0.86066   0.42597   0.00000  Uiso   1.00
C95    C     0.73148   0.90800   0.44005   0.00000  Uiso   1.00
C96    C     0.60883   0.95119   0.44824   0.00000  Uiso   1.00
C97    C     0.47058   0.03268   0.46594   0.00000  Uiso   1.00
C98    C     0.67071   0.75868   0.43204   0.00000  Uiso   1.00
C99    C     0.76377   0.72028   0.45123   0.00000  Uiso   1.00
C100   C     0.65587   0.67762   0.46453   0.00000  Uiso   1.00
C101   C     0.54488   0.60078   0.49164   0.00000  Uiso   1.00
C102   C     0.71502   0.80122   0.38021   0.00000  Uiso   1.00
C103   C     0.84533   0.79857   0.35581   0.00000  Uiso   1.00
C104   C     0.77473   0.79171   0.32548   0.00000  Uiso   1.00
C105   C     0.73253   0.78091   0.27212   0.00000  Uiso   1.00
C106   C     0.40413   0.80108   0.40464   0.00000  Uiso   1.00
C107   C     0.45923   0.85659   0.42027   0.00000  Uiso   1.00
C108   C     0.33642   0.89972   0.42844   0.00000  Uiso   1.00
C109   C     0.41453   0.94711   0.44253   0.00000  Uiso   1.00
C110   C     0.47677   0.75462   0.42634   0.00000  Uiso   1.00
C111   C     0.36871   0.71200   0.43961   0.00000  Uiso   1.00
C112   C     0.46157   0.67355   0.45882   0.00000  Uiso   1.00
C113   C     0.52107   0.79716   0.37451   0.00000  Uiso   1.00
C114   C     0.45026   0.79029   0.34420   0.00000  Uiso   1.00
C115   C     0.58043   0.78764   0.31977   0.00000  Uiso   1.00
H116   H     0.91220   0.81173   0.41957   0.00000  Uiso   1.00
H117   H     0.88158   0.91113   0.44446   0.00000  Uiso   1.00
H118   H     0.91386   0.72344   0.45563   0.00000  Uiso   1.00
H119   H     0.99540   0.80172   0.36024   0.00000  Uiso   1.00
H120   H     0.76210   0.01953   0.46954   0.00000  Uiso   1.00
H121   H     0.83018   0.62376   0.49309   0.00000  Uiso   1.00
H122   H     0.00212   0.78883   0.29193   0.00000  Uiso   1.00
H123   H     0.25313   0.79791   0.40020   0.00000  Uiso   1.00
H124   H     0.18634   0.89656   0.42402   0.00000  Uiso   1.00
H125   H     0.21863   0.70887   0.43520   0.00000  Uiso   1.00
H126   H     0.30017   0.78715   0.33980   0.00000  Uiso   1.00
H127   H     0.19781   0.00770   0.45296   0.00000  Uiso   1.00
H128   H     0.26590   0.61194   0.47651   0.00000  Uiso   1.00
H129   H     0.43784   0.77700   0.27535   0.00000  Uiso   1.00
O130   O     0.44791   0.07875   0.47728   0.00000  Uiso   1.00
O131   O     0.53724   0.55952   0.50817   0.00000  Uiso   1.00
O132   O     0.76282   0.77608   0.24426   0.00000  Uiso   1.00
N133   N     0.63846   0.00321   0.46236   0.00000  Uiso   1.00
N134   N     0.70211   0.63320   0.48439   0.00000  Uiso   1.00
N135   N     0.86287   0.78751   0.29632   0.00000  Uiso   1.00
N136   N     0.33483   0.99685   0.45344   0.00000  Uiso   1.00
N137   N     0.39847   0.62684   0.47546   0.00000  Uiso   1.00
N138   N     0.55923   0.78115   0.28740   0.00000  Uiso   1.00
C139   C     0.73880   0.69144   0.91513   0.00000  Uiso   1.00
C140   C     0.84682   0.63934   0.92597   0.00000  Uiso   1.00
C141   C     0.76852   0.59200   0.94005   0.00000  Uiso   1.00
C142   C     0.89117   0.54881   0.94824   0.00000  Uiso   1.00
C143   C     0.02942   0.46732   0.96594   0.00000  Uiso   1.00
C144   C     0.82929   0.74132   0.93204   0.00000  Uiso   1.00
C145   C     0.73623   0.77972   0.95123   0.00000  Uiso   1.00
C146   C     0.84413   0.82238   0.96453   0.00000  Uiso   1.00
C147   C     0.95512   0.89922   0.99164   0.00000  Uiso   1.00
C148   C     0.78498   0.69878   0.88021   0.00000  Uiso   1.00
C149   C     0.65467   0.70143   0.85581   0.00000  Uiso   1.00
C150   C     0.72527   0.70829   0.82548   0.00000  Uiso   1.00
C151   C     0.76747   0.71909   0.77212   0.00000  Uiso   1.00
C152   C     0.09587   0.69892   0.90464   0.00000  Uiso   1.00
C153   C     0.04077   0.64341   0.92027   0.00000  Uiso   1.00
C154   C     0.16358   0.60028   0.92844   0.00000  Uiso   1.00
C155   C     0.08547   0.55289   0.94253   0.00000  Uiso   1.00
C156   C     0.02323   0.74538   0.92634   0.00000  Uiso   1.00
C157   C     0.13129   0.78800   0.93961   0.00000  Uiso   1.00
C158   C     0.03843   0.82645   0.95882   0.00000  Uiso   1.00
C159   C     0.97893   0.70284   0.87451   0.00000  Uiso   1.00
C160   C     0.04974   0.70971   0.84420   0.00000  Uiso   1.00
C161   C     0.91957   0.71236   0.81977   0.00000  Uiso   1.00
H162   H     0.58780   0.68827   0.91957   0.00000  Uiso   1.00
H163   H     0.61842   0.58887   0.94446   0.00000  Uiso   1.00
H164   H     0.58614   0.77656   0.95563   0.00000  Uiso   1.00
H165   H     0.50460   0.69828   0.86024   0.00000  Uiso   1.00
H166   H     0.73790   0.48047   0.96954   0.00000  Uiso   1.00
H167   H     0.66982   0.87624   0.99309   0.00000  Uiso   1.00
H168   H     0.49788   0.71117   0.79193   0.00000  Uiso   1.00
H169   H     0.24687   0.70209   0.90020   0.00000  Uiso   1.00
H170   H     0.31366   0.60344   0.92402   0.00000  Uiso   1.00
H171   H     0.28137   0.79113   0.93520   0.00000  Uiso   1.00
H172   H     0.19983   0.71285   0.83980   0.00000  Uiso   1.00
H173   H     0.30219   0.49230   0.95296   0.00000  Uiso   1.00
H174   H     0.23410   0.88806   0.97651   0.00000  Uiso   1.00
H175   H     0.06216   0.72300   0.77535   0.00000  Uiso   1.00
O176   O     0.05209   0.42125   0.97728   0.00000  Uiso   1.00
O177   O     0.96276   0.94048   0.00817   0.00000  Uiso   1.00
O178   O     0.73718   0.72392   0.74426   0.00000  Uiso   1.00
N179   N     0.86154   0.49679   0.96236   0.00000  Uiso   1.00
N180   N     0.79789   0.86680   0.98439   0.00000  Uiso   1.00
N181   N     0.63713   0.71249   0.79632   0.00000  Uiso   1.00
N182   N     0.16517   0.50315   0.95344   0.00000  Uiso   1.00
N183   N     0.10153   0.87316   0.97546   0.00000  Uiso   1.00
N184   N     0.94077   0.71885   0.78740   0.00000  Uiso   1.00
C185   C     0.76120   0.19144   0.91513   0.00000  Uiso   1.00
C186   C     0.65318   0.13934   0.92597   0.00000  Uiso   1.00
C187   C     0.73148   0.09200   0.94005   0.00000  Uiso   1.00
C188   C     0.60883   0.04881   0.94824   0.00000  Uiso   1.00
C189   C     0.47058   0.96732   0.96594   0.00000  Uiso   1.00
C190   C     0.67071   0.24132   0.93204   0.00000  Uiso   1.00
C191   C     0.76377   0.27972   0.95123   0.00000  Uiso   1.00
C192   C     0.65587   0.32238   0.96453   0.00000  Uiso   1.00
C193   C     0.54488   0.39922   0.99164   0.00000  Uiso   1.00
C194   C     0.71502   0.19878   0.88021   0.00000  Uiso   1.00
C195   C     0.84533   0.20143   0.85581   0.00000  Uiso   1.00
C196   C     0.77473   0.20829   0.82548   0.00000  Uiso   1.00
C197   C     0.73253   0.21909   0.77212   0.00000  Uiso   1.00
C198   C     0.40413   0.19892   0.90464   0.00000  Uiso   1.00
C199   C     0.45923   0.14341   0.92027   0.00000  Uiso   1.00
C200   C     0.33642   0.10028   0.92844   0.00000  Uiso   1.00
C201   C     0.41453   0.05289   0.94253   0.00000  Uiso   1.00
C202   C     0.47677   0.24538   0.92634   0.00000  Uiso   1.00
C203   C     0.36871   0.28800   0.93961   0.00000  Uiso   1.00
C204   C     0.46157   0.32645   0.95882   0.00000  Uiso   1.00
C205   C     0.52107   0.20284   0.87451   0.00000  Uiso   1.00
C206   C     0.45026   0.20971   0.84420   0.00000  Uiso   1.00
C207   C     0.58043   0.21236   0.81977   0.00000  Uiso   1.00
H208   H     0.91220   0.18827   0.91957   0.00000  Uiso   1.00
H209   H     0.88158   0.08887   0.94446   0.00000  Uiso   1.00
H210   H     0.91386   0.27656   0.95563   0.00000  Uiso   1.00
H211   H     0.99540   0.19828   0.86024   0.00000  Uiso   1.00
H212   H     0.76210   0.98047   0.96954   0.00000  Uiso   1.00
H213   H     0.83018   0.37624   0.99309   0.00000  Uiso   1.00
H214   H     0.00212   0.21117   0.79193   0.00000  Uiso   1.00
H215   H     0.25313   0.20209   0.90020   0.00000  Uiso   1.00
H216   H     0.18634   0.10344   0.92402   0.00000  Uiso   1.00
H217   H     0.21863   0.29113   0.93520   0.00000  Uiso   1.00
H218   H     0.30017   0.21285   0.83980   0.00000  Uiso   1.00
H219   H     0.19781   0.99230   0.95296   0.00000  Uiso   1.00
H220   H     0.26590   0.38806   0.97651   0.00000  Uiso   1.00
H221   H     0.43784   0.22300   0.77535   0.00000  Uiso   1.00
O222   O     0.44791   0.92125   0.97728   0.00000  Uiso   1.00
O223   O     0.53724   0.44048   0.00817   0.00000  Uiso   1.00
O224   O     0.76282   0.22392   0.74426   0.00000  Uiso   1.00
N225   N     0.63846   0.99679   0.96236   0.00000  Uiso   1.00
N226   N     0.70211   0.36680   0.98439   0.00000  Uiso   1.00
N227   N     0.86287   0.21249   0.79632   0.00000  Uiso   1.00
N228   N     0.33483   0.00315   0.95344   0.00000  Uiso   1.00
N229   N     0.39847   0.37316   0.97546   0.00000  Uiso   1.00
N230   N     0.55923   0.21885   0.78740   0.00000  Uiso   1.00
C231   C     0.73880   0.30856   0.41513   0.00000  Uiso   1.00
C232   C     0.84682   0.36066   0.42597   0.00000  Uiso   1.00
C233   C     0.76852   0.40800   0.44005   0.00000  Uiso   1.00
C234   C     0.89117   0.45119   0.44824   0.00000  Uiso   1.00
C235   C     0.02942   0.53268   0.46594   0.00000  Uiso   1.00
C236   C     0.82929   0.25868   0.43204   0.00000  Uiso   1.00
C237   C     0.73623   0.22028   0.45123   0.00000  Uiso   1.00
C238   C     0.84413   0.17762   0.46453   0.00000  Uiso   1.00
C239   C     0.95512   0.10078   0.49164   0.00000  Uiso   1.00
C240   C     0.78498   0.30122   0.38021   0.00000  Uiso   1.00
C241   C     0.65467   0.29857   0.35581   0.00000  Uiso   1.00
C242   C     0.72527   0.29171   0.32548   0.00000  Uiso   1.00
C243   C     0.76747   0.28091   0.27212   0.00000  Uiso   1.00
C244   C     0.09587   0.30108   0.40464   0.00000  Uiso   1.00
C245   C     0.04077   0.35659   0.42027   0.00000  Uiso   1.00
C246   C     0.16358   0.39972   0.42844   0.00000  Uiso   1.00
C247   C     0.08547   0.44711   0.44253   0.00000  Uiso   1.00
C248   C     0.02323   0.25462   0.42634   0.00000  Uiso   1.00
C249   C     0.13129   0.21200   0.43961   0.00000  Uiso   1.00
C250   C     0.03843   0.17355   0.45882   0.00000  Uiso   1.00
C251   C     0.97893   0.29716   0.37451   0.00000  Uiso   1.00
C252   C     0.04974   0.29029   0.34420   0.00000  Uiso   1.00
C253   C     0.91957   0.28764   0.31977   0.00000  Uiso   1.00
H254   H     0.58780   0.31173   0.41957   0.00000  Uiso   1.00
H255   H     0.61842   0.41113   0.44446   0.00000  Uiso   1.00
H256   H     0.58614   0.22344   0.45563   0.00000  Uiso   1.00
H257   H     0.50460   0.30172   0.36024   0.00000  Uiso   1.00
H258   H     0.73790   0.51953   0.46954   0.00000  Uiso   1.00
H259   H     0.66982   0.12376   0.49309   0.00000  Uiso   1.00
H260   H     0.49788   0.28883   0.29193   0.00000  Uiso   1.00
H261   H     0.24687   0.29791   0.40020   0.00000  Uiso   1.00
H262   H     0.31366   0.39656   0.42402   0.00000  Uiso   1.00
H263   H     0.28137   0.20887   0.43520   0.00000  Uiso   1.00
H264   H     0.19983   0.28715   0.33980   0.00000  Uiso   1.00
H265   H     0.30219   0.50770   0.45296   0.00000  Uiso   1.00
H266   H     0.23410   0.11194   0.47651   0.00000  Uiso   1.00
H267   H     0.06216   0.27700   0.27535   0.00000  Uiso   1.00
O268   O     0.05209   0.57875   0.47728   0.00000  Uiso   1.00
O269   O     0.96276   0.05952   0.50817   0.00000  Uiso   1.00
O270   O     0.73718   0.27608   0.24426   0.00000  Uiso   1.00
N271   N     0.86154   0.50321   0.46236   0.00000  Uiso   1.00
N272   N     0.79789   0.13320   0.48439   0.00000  Uiso   1.00
N273   N     0.63713   0.28751   0.29632   0.00000  Uiso   1.00
N274   N     0.16517   0.49685   0.45344   0.00000  Uiso   1.00
N275   N     0.10153   0.12684   0.47546   0.00000  Uiso   1.00
N276   N     0.94077   0.28115   0.28740   0.00000  Uiso   1.00
C277   C     0.23880   0.19144   0.58487   0.00000  Uiso   1.00
C278   C     0.34682   0.13934   0.57403   0.00000  Uiso   1.00
C279   C     0.26852   0.09200   0.55995   0.00000  Uiso   1.00
C280   C     0.39117   0.04881   0.55176   0.00000  Uiso   1.00
C281   C     0.52942   0.96732   0.53406   0.00000  Uiso   1.00
C282   C     0.32929   0.24132   0.56796   0.00000  Uiso   1.00
C283   C     0.23623   0.27972   0.54877   0.00000  Uiso   1.00
C284   C     0.34413   0.32238   0.53547   0.00000  Uiso   1.00
C285   C     0.45512   0.39922   0.50836   0.00000  Uiso   1.00
C286   C     0.28498   0.19878   0.61979   0.00000  Uiso   1.00
C287   C     0.15467   0.20143   0.64419   0.00000  Uiso   1.00
C288   C     0.22527   0.20829   0.67452   0.00000  Uiso   1.00
C289   C     0.26747   0.21909   0.72788   0.00000  Uiso   1.00
C290   C     0.59587   0.19892   0.59536   0.00000  Uiso   1.00
C291   C     0.54077   0.14341   0.57973   0.00000  Uiso   1.00
C292   C     0.66358   0.10028   0.57156   0.00000  Uiso   1.00
C293   C     0.58547   0.05289   0.55747   0.00000  Uiso   1.00
C294   C     0.52323   0.24538   0.57366   0.00000  Uiso   1.00
C295   C     0.63129   0.28800   0.56039   0.00000  Uiso   1.00
C296   C     0.53843   0.32645   0.54118   0.00000  Uiso   1.00
C297   C     0.47893   0.20284   0.62549   0.00000  Uiso   1.00
C298   C     0.54974   0.20971   0.65580   0.00000  Uiso   1.00
C299   C     0.41957   0.21236   0.68023   0.00000  Uiso   1.00
H300   H     0.08780   0.18827   0.58043   0.00000  Uiso   1.00
H301   H     0.11842   0.08887   0.55554   0.00000  Uiso   1.00
H302   H     0.08614   0.27656   0.54437   0.00000  Uiso   1.00
H303   H     0.00460   0.19828   0.63976   0.00000  Uiso   1.00
H304   H     0.23790   0.98047   0.53046   0.00000  Uiso   1.00
H305   H     0.16982   0.37624   0.50691   0.00000  Uiso   1.00
H306   H     0.99788   0.21117   0.70807   0.00000  Uiso   1.00
H307   H     0.74687   0.20209   0.59980   0.00000  Uiso   1.00
H308   H     0.81366   0.10344   0.57598   0.00000  Uiso   1.00
H309   H     0.78137   0.29113   0.56480   0.00000  Uiso   1.00
H310   H     0.69983   0.21285   0.66020   0.00000  Uiso   1.00
H311   H     0.80219   0.99230   0.54704   0.00000  Uiso   1.00
H312   H     0.73410   0.38806   0.52349   0.00000  Uiso   1.00
H313   H     0.56216   0.22300   0.72465   0.00000  Uiso   1.00
O314   O     0.55209   0.92125   0.52272   0.00000  Uiso   1.00
O315   O     0.46276   0.44048   0.49183   0.00000  Uiso   1.00
O316   O     0.23718   0.22392   0.75574   0.00000  Uiso   1.00
N317   N     0.36154   0.99679   0.53764   0.00000  Uiso   1.00
N318   N     0.29789   0.36680   0.51561   0.00000  Uiso   1.00
N319   N     0.13713   0.21249   0.70368   0.00000  Uiso   1.00
N320   N     0.66517   0.00315   0.54656   0.00000  Uiso   1.00
N321   N     0.60153   0.37316   0.52454   0.00000  Uiso   1.00
N322   N     0.44077   0.21885   0.71260   0.00000  Uiso   1.00
C323   C     0.26120   0.30856   0.08487   0.00000  Uiso   1.00
C324   C     0.15318   0.36066   0.07403   0.00000  Uiso   1.00
C325   C     0.23148   0.40800   0.05995   0.00000  Uiso   1.00
C326   C     0.10883   0.45119   0.05176   0.00000  Uiso   1.00
C327   C     0.97058   0.53268   0.03406   0.00000  Uiso   1.00
C328   C     0.17071   0.25868   0.06796   0.00000  Uiso   1.00
C329   C     0.26377   0.22028   0.04877   0.00000  Uiso   1.00
C330   C     0.15587   0.17762   0.03547   0.00000  Uiso   1.00
C331   C     0.04488   0.10078   0.00836   0.00000  Uiso   1.00
C332   C     0.21502   0.30122   0.11979   0.00000  Uiso   1.00
C333   C     0.34533   0.29857   0.14419   0.00000  Uiso   1.00
C334   C     0.27473   0.29171   0.17452   0.00000  Uiso   1.00
C335   C     0.23253   0.28091   0.22788   0.00000  Uiso   1.00
C336   C     0.90413   0.30108   0.09536   0.00000  Uiso   1.00
C337   C     0.95923   0.35659   0.07973   0.00000  Uiso   1.00
C338   C     0.83642   0.39972   0.07156   0.00000  Uiso   1.00
C339   C     0.91453   0.44711   0.05747   0.00000  Uiso   1.00
C340   C     0.97677   0.25462   0.07366   0.00000  Uiso   1.00
C341   C     0.86871   0.21200   0.06039   0.00000  Uiso   1.00
C342   C     0.96157   0.17355   0.04118   0.00000  Uiso   1.00
C343   C     0.02107   0.29716   0.12549   0.00000  Uiso   1.00
C344   C     0.95026   0.29029   0.15580   0.00000  Uiso   1.00
C345   C     0.08043   0.28764   0.18023   0.00000  Uiso   1.00
H346   H     0.41220   0.31173   0.08043   0.00000  Uiso   1.00
H347   H     0.38158   0.41113   0.05554   0.00000  Uiso   1.00
H348   H     0.41386   0.22344   0.04437   0.00000  Uiso   1.00
H349   H     0.49540   0.30172   0.13976   0.00000  Uiso   1.00
H350   H     0.26210   0.51953   0.03046   0.00000  Uiso   1.00
H351   H     0.33018   0.12376   0.00691   0.00000  Uiso   1.00
H352   H     0.50212   0.28883   0.20807   0.00000  Uiso   1.00
H353   H     0.75313   0.29791   0.09980   0.00000  Uiso   1.00
H354   H     0.68634   0.39656   0.07598   0.00000  Uiso   1.00
H355   H     0.71863   0.20887   0.06480   0.00000  Uiso   1.00
H356   H     0.80017   0.28715   0.16020   0.00000  Uiso   1.00
H357   H     0.69781   0.50770   0.04704   0.00000  Uiso   1.00
H358   H     0.76590   0.11194   0.02349   0.00000  Uiso   1.00
H359   H     0.93784   0.27700   0.22465   0.00000  Uiso   1.00
O360   O     0.94791   0.57875   0.02272   0.00000  Uiso   1.00
O361   O     0.03724   0.05952   0.99183   0.00000  Uiso   1.00
O362   O     0.26282   0.27608   0.25574   0.00000  Uiso   1.00
N363   N     0.13846   0.50321   0.03764   0.00000  Uiso   1.00
N364   N     0.20211   0.13320   0.01561   0.00000  Uiso   1.00
N365   N     0.36287   0.28751   0.20368   0.00000  Uiso   1.00
N366   N     0.83483   0.49685   0.04656   0.00000  Uiso   1.00
N367   N     0.89847   0.12684   0.02454   0.00000  Uiso   1.00
N368   N     0.05923   0.28115   0.21260   0.00000  Uiso   1.00
