data_job_05349
_audit_creation_date              2018-12-19
_audit_creation_method            'Materials Studio'
_symmetry_space_group_name_H-M    'P1'
_symmetry_Int_Tables_number       1
_symmetry_cell_setting            triclinic
loop_
_symmetry_equiv_pos_as_xyz
  x,y,z
_cell_length_a                    22.6929
_cell_length_b                    42.6314
_cell_length_c                    7.2135
_cell_angle_alpha                 90.0000
_cell_angle_beta                  90.0000
_cell_angle_gamma                 90.0000
loop_
_atom_site_label
_atom_site_type_symbol
_atom_site_fract_x
_atom_site_fract_y
_atom_site_fract_z
_atom_site_U_iso_or_equiv
_atom_site_adp_type
_atom_site_occupancy
C1     C     0.25232   0.90672   0.21074   0.00000  Uiso   1.00
C2     C     0.25122   0.87519   0.31042   0.00000  Uiso   1.00
C3     C     0.27078   0.84688   0.23802   0.00000  Uiso   1.00
C4     C     0.26601   0.82066   0.35121   0.00000  Uiso   1.00
C5     C     0.26786   0.77138   0.47870   0.00000  Uiso   1.00
C6     C     0.18899   0.91869   0.21226   0.00000  Uiso   1.00
C7     C     0.15623   0.92697   0.05733   0.00000  Uiso   1.00
C8     C     0.09908   0.93737   0.08789   0.00000  Uiso   1.00
C9     C     0.00433   0.95565   0.06300   0.00000  Uiso   1.00
C10    C     0.28709   0.92888   0.33552   0.00000  Uiso   1.00
C11    C     0.33681   0.94574   0.28422   0.00000  Uiso   1.00
C12    C     0.36224   0.96474   0.41855   0.00000  Uiso   1.00
C13    C     0.41980   0.99884   0.58504   0.00000  Uiso   1.00
C14    C     0.20907   0.91050   0.54050   0.00000  Uiso   1.00
C15    C     0.22773   0.87724   0.48953   0.00000  Uiso   1.00
C16    C     0.22293   0.85105   0.60287   0.00000  Uiso   1.00
C17    C     0.24248   0.82271   0.53065   0.00000  Uiso   1.00
C18    C     0.16550   0.92074   0.39137   0.00000  Uiso   1.00
C19    C     0.10838   0.93114   0.42217   0.00000  Uiso   1.00
C20    C     0.07554   0.93943   0.26733   0.00000  Uiso   1.00
C21    C     0.26360   0.93093   0.51464   0.00000  Uiso   1.00
C22    C     0.28895   0.94991   0.64907   0.00000  Uiso   1.00
C23    C     0.33870   0.96679   0.59799   0.00000  Uiso   1.00
H24    H     0.27061   0.90513   0.07129   0.00000  Uiso   1.00
H25    H     0.28896   0.84530   0.09939   0.00000  Uiso   1.00
H26    H     0.17443   0.92538   0.91874   0.00000  Uiso   1.00
H27    H     0.35497   0.94415   0.14560   0.00000  Uiso   1.00
H28    H     0.29892   0.77988   0.20952   0.00000  Uiso   1.00
H29    H     0.05744   0.94873   0.82860   0.00000  Uiso   1.00
H30    H     0.43815   0.98831   0.30697   0.00000  Uiso   1.00
H31    H     0.19077   0.91209   0.67996   0.00000  Uiso   1.00
H32    H     0.20475   0.85265   0.74147   0.00000  Uiso   1.00
H33    H     0.09022   0.93272   0.56080   0.00000  Uiso   1.00
H34    H     0.27076   0.95149   0.78766   0.00000  Uiso   1.00
H35    H     0.23057   0.78584   0.73064   0.00000  Uiso   1.00
H36    H     0.98909   0.95469   0.34971   0.00000  Uiso   1.00
H37    H     0.36980   0.99427   0.82810   0.00000  Uiso   1.00
O38    O     0.27536   0.74362   0.49953   0.00000  Uiso   1.00
O39    O     0.95855   0.96516   0.99978   0.00000  Uiso   1.00
O40    O     0.45804   0.01708   0.62740   0.00000  Uiso   1.00
N41    N     0.28093   0.78944   0.32374   0.00000  Uiso   1.00
N42    N     0.05515   0.94730   0.96759   0.00000  Uiso   1.00
N43    N     0.41108   0.98431   0.41482   0.00000  Uiso   1.00
N44    N     0.24415   0.79265   0.60415   0.00000  Uiso   1.00
N45    N     0.01838   0.95051   0.24801   0.00000  Uiso   1.00
N46    N     0.37430   0.98752   0.69524   0.00000  Uiso   1.00
C47    C     0.24768   0.09328   0.21074   0.00000  Uiso   1.00
C48    C     0.24878   0.12481   0.31042   0.00000  Uiso   1.00
C49    C     0.22922   0.15312   0.23802   0.00000  Uiso   1.00
C50    C     0.23399   0.17934   0.35121   0.00000  Uiso   1.00
C51    C     0.23214   0.22862   0.47870   0.00000  Uiso   1.00
C52    C     0.31101   0.08131   0.21226   0.00000  Uiso   1.00
C53    C     0.34377   0.07303   0.05733   0.00000  Uiso   1.00
C54    C     0.40092   0.06263   0.08789   0.00000  Uiso   1.00
C55    C     0.49567   0.04435   0.06300   0.00000  Uiso   1.00
C56    C     0.21291   0.07112   0.33552   0.00000  Uiso   1.00
C57    C     0.16319   0.05426   0.28422   0.00000  Uiso   1.00
C58    C     0.13776   0.03526   0.41855   0.00000  Uiso   1.00
C59    C     0.08020   0.00116   0.58504   0.00000  Uiso   1.00
C60    C     0.29093   0.08950   0.54050   0.00000  Uiso   1.00
C61    C     0.27227   0.12276   0.48953   0.00000  Uiso   1.00
C62    C     0.27707   0.14895   0.60287   0.00000  Uiso   1.00
C63    C     0.25752   0.17729   0.53065   0.00000  Uiso   1.00
C64    C     0.33450   0.07926   0.39137   0.00000  Uiso   1.00
C65    C     0.39162   0.06886   0.42217   0.00000  Uiso   1.00
C66    C     0.42446   0.06057   0.26733   0.00000  Uiso   1.00
C67    C     0.23640   0.06907   0.51464   0.00000  Uiso   1.00
C68    C     0.21105   0.05009   0.64907   0.00000  Uiso   1.00
C69    C     0.16130   0.03321   0.59799   0.00000  Uiso   1.00
H70    H     0.22939   0.09487   0.07129   0.00000  Uiso   1.00
H71    H     0.21104   0.15470   0.09939   0.00000  Uiso   1.00
H72    H     0.32557   0.07462   0.91874   0.00000  Uiso   1.00
H73    H     0.14503   0.05585   0.14560   0.00000  Uiso   1.00
H74    H     0.20108   0.22012   0.20952   0.00000  Uiso   1.00
H75    H     0.44256   0.05127   0.82860   0.00000  Uiso   1.00
H76    H     0.06185   0.01169   0.30697   0.00000  Uiso   1.00
H77    H     0.30923   0.08791   0.67996   0.00000  Uiso   1.00
H78    H     0.29525   0.14735   0.74147   0.00000  Uiso   1.00
H79    H     0.40978   0.06728   0.56080   0.00000  Uiso   1.00
H80    H     0.22924   0.04851   0.78766   0.00000  Uiso   1.00
H81    H     0.26943   0.21416   0.73064   0.00000  Uiso   1.00
H82    H     0.51091   0.04531   0.34971   0.00000  Uiso   1.00
H83    H     0.13020   0.00573   0.82810   0.00000  Uiso   1.00
O84    O     0.22464   0.25638   0.49953   0.00000  Uiso   1.00
O85    O     0.54145   0.03484   0.99978   0.00000  Uiso   1.00
O86    O     0.04196   0.98292   0.62740   0.00000  Uiso   1.00
N87    N     0.21907   0.21056   0.32374   0.00000  Uiso   1.00
N88    N     0.44485   0.05270   0.96759   0.00000  Uiso   1.00
N89    N     0.08892   0.01569   0.41482   0.00000  Uiso   1.00
N90    N     0.25585   0.20735   0.60415   0.00000  Uiso   1.00
N91    N     0.48162   0.04949   0.24801   0.00000  Uiso   1.00
N92    N     0.12570   0.01248   0.69524   0.00000  Uiso   1.00
C93    C     0.24768   0.40672   0.28926   0.00000  Uiso   1.00
C94    C     0.24878   0.37519   0.18958   0.00000  Uiso   1.00
C95    C     0.22922   0.34688   0.26198   0.00000  Uiso   1.00
C96    C     0.23399   0.32066   0.14879   0.00000  Uiso   1.00
C97    C     0.23214   0.27138   0.02130   0.00000  Uiso   1.00
C98    C     0.31101   0.41869   0.28774   0.00000  Uiso   1.00
C99    C     0.34377   0.42697   0.44267   0.00000  Uiso   1.00
C100   C     0.40092   0.43737   0.41211   0.00000  Uiso   1.00
C101   C     0.49567   0.45565   0.43700   0.00000  Uiso   1.00
C102   C     0.21291   0.42888   0.16448   0.00000  Uiso   1.00
C103   C     0.16319   0.44574   0.21578   0.00000  Uiso   1.00
C104   C     0.13776   0.46474   0.08145   0.00000  Uiso   1.00
C105   C     0.08020   0.49884   0.91496   0.00000  Uiso   1.00
C106   C     0.29093   0.41050   0.95950   0.00000  Uiso   1.00
C107   C     0.27227   0.37724   0.01047   0.00000  Uiso   1.00
C108   C     0.27707   0.35105   0.89713   0.00000  Uiso   1.00
C109   C     0.25752   0.32271   0.96935   0.00000  Uiso   1.00
C110   C     0.33450   0.42074   0.10863   0.00000  Uiso   1.00
C111   C     0.39162   0.43114   0.07783   0.00000  Uiso   1.00
C112   C     0.42446   0.43943   0.23267   0.00000  Uiso   1.00
C113   C     0.23640   0.43093   0.98536   0.00000  Uiso   1.00
C114   C     0.21105   0.44991   0.85093   0.00000  Uiso   1.00
C115   C     0.16130   0.46679   0.90201   0.00000  Uiso   1.00
H116   H     0.22939   0.40513   0.42871   0.00000  Uiso   1.00
H117   H     0.21104   0.34530   0.40061   0.00000  Uiso   1.00
H118   H     0.32557   0.42538   0.58126   0.00000  Uiso   1.00
H119   H     0.14503   0.44415   0.35440   0.00000  Uiso   1.00
H120   H     0.20108   0.27988   0.29048   0.00000  Uiso   1.00
H121   H     0.44256   0.44873   0.67140   0.00000  Uiso   1.00
H122   H     0.06185   0.48831   0.19303   0.00000  Uiso   1.00
H123   H     0.30923   0.41209   0.82004   0.00000  Uiso   1.00
H124   H     0.29525   0.35265   0.75853   0.00000  Uiso   1.00
H125   H     0.40978   0.43272   0.93920   0.00000  Uiso   1.00
H126   H     0.22924   0.45149   0.71234   0.00000  Uiso   1.00
H127   H     0.26943   0.28584   0.76936   0.00000  Uiso   1.00
H128   H     0.51091   0.45469   0.15029   0.00000  Uiso   1.00
H129   H     0.13020   0.49427   0.67190   0.00000  Uiso   1.00
O130   O     0.22464   0.24362   0.00047   0.00000  Uiso   1.00
O131   O     0.54145   0.46516   0.50022   0.00000  Uiso   1.00
O132   O     0.04196   0.51708   0.87260   0.00000  Uiso   1.00
N133   N     0.21907   0.28944   0.17626   0.00000  Uiso   1.00
N134   N     0.44485   0.44730   0.53241   0.00000  Uiso   1.00
N135   N     0.08892   0.48431   0.08518   0.00000  Uiso   1.00
N136   N     0.25585   0.29265   0.89585   0.00000  Uiso   1.00
N137   N     0.48162   0.45051   0.25199   0.00000  Uiso   1.00
N138   N     0.12570   0.48752   0.80476   0.00000  Uiso   1.00
C139   C     0.25232   0.59328   0.28926   0.00000  Uiso   1.00
C140   C     0.25122   0.62481   0.18958   0.00000  Uiso   1.00
C141   C     0.27078   0.65312   0.26198   0.00000  Uiso   1.00
C142   C     0.26601   0.67934   0.14879   0.00000  Uiso   1.00
C143   C     0.26786   0.72862   0.02130   0.00000  Uiso   1.00
C144   C     0.18899   0.58131   0.28774   0.00000  Uiso   1.00
C145   C     0.15623   0.57303   0.44267   0.00000  Uiso   1.00
C146   C     0.09908   0.56263   0.41211   0.00000  Uiso   1.00
C147   C     0.00433   0.54435   0.43700   0.00000  Uiso   1.00
C148   C     0.28709   0.57112   0.16448   0.00000  Uiso   1.00
C149   C     0.33681   0.55426   0.21578   0.00000  Uiso   1.00
C150   C     0.36224   0.53526   0.08145   0.00000  Uiso   1.00
C151   C     0.41980   0.50116   0.91496   0.00000  Uiso   1.00
C152   C     0.20907   0.58950   0.95950   0.00000  Uiso   1.00
C153   C     0.22773   0.62276   0.01047   0.00000  Uiso   1.00
C154   C     0.22293   0.64895   0.89713   0.00000  Uiso   1.00
C155   C     0.24248   0.67729   0.96935   0.00000  Uiso   1.00
C156   C     0.16550   0.57926   0.10863   0.00000  Uiso   1.00
C157   C     0.10838   0.56886   0.07783   0.00000  Uiso   1.00
C158   C     0.07554   0.56057   0.23267   0.00000  Uiso   1.00
C159   C     0.26360   0.56907   0.98536   0.00000  Uiso   1.00
C160   C     0.28895   0.55009   0.85093   0.00000  Uiso   1.00
C161   C     0.33870   0.53321   0.90201   0.00000  Uiso   1.00
H162   H     0.27061   0.59487   0.42871   0.00000  Uiso   1.00
H163   H     0.28896   0.65470   0.40061   0.00000  Uiso   1.00
H164   H     0.17443   0.57462   0.58126   0.00000  Uiso   1.00
H165   H     0.35497   0.55585   0.35440   0.00000  Uiso   1.00
H166   H     0.29892   0.72012   0.29048   0.00000  Uiso   1.00
H167   H     0.05744   0.55127   0.67140   0.00000  Uiso   1.00
H168   H     0.43815   0.51169   0.19303   0.00000  Uiso   1.00
H169   H     0.19077   0.58791   0.82004   0.00000  Uiso   1.00
H170   H     0.20475   0.64735   0.75853   0.00000  Uiso   1.00
H171   H     0.09022   0.56728   0.93920   0.00000  Uiso   1.00
H172   H     0.27076   0.54851   0.71234   0.00000  Uiso   1.00
H173   H     0.23057   0.71416   0.76936   0.00000  Uiso   1.00
H174   H     0.98909   0.54531   0.15029   0.00000  Uiso   1.00
H175   H     0.36980   0.50573   0.67190   0.00000  Uiso   1.00
O176   O     0.27536   0.75638   0.00047   0.00000  Uiso   1.00
O177   O     0.95855   0.53484   0.50022   0.00000  Uiso   1.00
O178   O     0.45804   0.48292   0.87260   0.00000  Uiso   1.00
N179   N     0.28093   0.71056   0.17626   0.00000  Uiso   1.00
N180   N     0.05515   0.55270   0.53241   0.00000  Uiso   1.00
N181   N     0.41108   0.51569   0.08518   0.00000  Uiso   1.00
N182   N     0.24415   0.70735   0.89585   0.00000  Uiso   1.00
N183   N     0.01838   0.54949   0.25199   0.00000  Uiso   1.00
N184   N     0.37430   0.51248   0.80476   0.00000  Uiso   1.00
C185   C     0.74768   0.09328   0.78926   0.00000  Uiso   1.00
C186   C     0.74878   0.12481   0.68958   0.00000  Uiso   1.00
C187   C     0.72922   0.15312   0.76198   0.00000  Uiso   1.00
C188   C     0.73399   0.17934   0.64879   0.00000  Uiso   1.00
C189   C     0.73214   0.22862   0.52130   0.00000  Uiso   1.00
C190   C     0.81101   0.08131   0.78774   0.00000  Uiso   1.00
C191   C     0.84377   0.07303   0.94267   0.00000  Uiso   1.00
C192   C     0.90092   0.06263   0.91211   0.00000  Uiso   1.00
C193   C     0.99567   0.04435   0.93700   0.00000  Uiso   1.00
C194   C     0.71291   0.07112   0.66448   0.00000  Uiso   1.00
C195   C     0.66319   0.05426   0.71578   0.00000  Uiso   1.00
C196   C     0.63776   0.03526   0.58145   0.00000  Uiso   1.00
C197   C     0.58020   0.00116   0.41496   0.00000  Uiso   1.00
C198   C     0.79093   0.08950   0.45950   0.00000  Uiso   1.00
C199   C     0.77227   0.12276   0.51047   0.00000  Uiso   1.00
C200   C     0.77707   0.14895   0.39713   0.00000  Uiso   1.00
C201   C     0.75752   0.17729   0.46935   0.00000  Uiso   1.00
C202   C     0.83450   0.07926   0.60863   0.00000  Uiso   1.00
C203   C     0.89162   0.06886   0.57783   0.00000  Uiso   1.00
C204   C     0.92446   0.06057   0.73267   0.00000  Uiso   1.00
C205   C     0.73640   0.06907   0.48536   0.00000  Uiso   1.00
C206   C     0.71105   0.05009   0.35093   0.00000  Uiso   1.00
C207   C     0.66130   0.03321   0.40201   0.00000  Uiso   1.00
H208   H     0.72939   0.09487   0.92871   0.00000  Uiso   1.00
H209   H     0.71104   0.15470   0.90061   0.00000  Uiso   1.00
H210   H     0.82557   0.07462   0.08126   0.00000  Uiso   1.00
H211   H     0.64503   0.05585   0.85440   0.00000  Uiso   1.00
H212   H     0.70108   0.22012   0.79048   0.00000  Uiso   1.00
H213   H     0.94256   0.05127   0.17140   0.00000  Uiso   1.00
H214   H     0.56185   0.01169   0.69303   0.00000  Uiso   1.00
H215   H     0.80923   0.08791   0.32004   0.00000  Uiso   1.00
H216   H     0.79525   0.14735   0.25853   0.00000  Uiso   1.00
H217   H     0.90978   0.06728   0.43920   0.00000  Uiso   1.00
H218   H     0.72924   0.04851   0.21234   0.00000  Uiso   1.00
H219   H     0.76943   0.21416   0.26936   0.00000  Uiso   1.00
H220   H     0.01091   0.04531   0.65029   0.00000  Uiso   1.00
H221   H     0.63020   0.00573   0.17190   0.00000  Uiso   1.00
O222   O     0.72464   0.25638   0.50047   0.00000  Uiso   1.00
O223   O     0.04145   0.03484   0.00022   0.00000  Uiso   1.00
O224   O     0.54196   0.98292   0.37260   0.00000  Uiso   1.00
N225   N     0.71907   0.21056   0.67626   0.00000  Uiso   1.00
N226   N     0.94485   0.05270   0.03241   0.00000  Uiso   1.00
N227   N     0.58892   0.01569   0.58518   0.00000  Uiso   1.00
N228   N     0.75585   0.20735   0.39585   0.00000  Uiso   1.00
N229   N     0.98162   0.04949   0.75199   0.00000  Uiso   1.00
N230   N     0.62570   0.01248   0.30476   0.00000  Uiso   1.00
C231   C     0.75232   0.90672   0.78926   0.00000  Uiso   1.00
C232   C     0.75122   0.87519   0.68958   0.00000  Uiso   1.00
C233   C     0.77078   0.84688   0.76198   0.00000  Uiso   1.00
C234   C     0.76601   0.82066   0.64879   0.00000  Uiso   1.00
C235   C     0.76786   0.77138   0.52130   0.00000  Uiso   1.00
C236   C     0.68899   0.91869   0.78774   0.00000  Uiso   1.00
C237   C     0.65623   0.92697   0.94267   0.00000  Uiso   1.00
C238   C     0.59908   0.93737   0.91211   0.00000  Uiso   1.00
C239   C     0.50433   0.95565   0.93700   0.00000  Uiso   1.00
C240   C     0.78709   0.92888   0.66448   0.00000  Uiso   1.00
C241   C     0.83681   0.94574   0.71578   0.00000  Uiso   1.00
C242   C     0.86224   0.96474   0.58145   0.00000  Uiso   1.00
C243   C     0.91980   0.99884   0.41496   0.00000  Uiso   1.00
C244   C     0.70907   0.91050   0.45950   0.00000  Uiso   1.00
C245   C     0.72773   0.87724   0.51047   0.00000  Uiso   1.00
C246   C     0.72293   0.85105   0.39713   0.00000  Uiso   1.00
C247   C     0.74248   0.82271   0.46935   0.00000  Uiso   1.00
C248   C     0.66550   0.92074   0.60863   0.00000  Uiso   1.00
C249   C     0.60838   0.93114   0.57783   0.00000  Uiso   1.00
C250   C     0.57554   0.93943   0.73267   0.00000  Uiso   1.00
C251   C     0.76360   0.93093   0.48536   0.00000  Uiso   1.00
C252   C     0.78895   0.94991   0.35093   0.00000  Uiso   1.00
C253   C     0.83870   0.96679   0.40201   0.00000  Uiso   1.00
H254   H     0.77061   0.90513   0.92871   0.00000  Uiso   1.00
H255   H     0.78896   0.84530   0.90061   0.00000  Uiso   1.00
H256   H     0.67443   0.92538   0.08126   0.00000  Uiso   1.00
H257   H     0.85497   0.94415   0.85440   0.00000  Uiso   1.00
H258   H     0.79892   0.77988   0.79048   0.00000  Uiso   1.00
H259   H     0.55744   0.94873   0.17140   0.00000  Uiso   1.00
H260   H     0.93815   0.98831   0.69303   0.00000  Uiso   1.00
H261   H     0.69077   0.91209   0.32004   0.00000  Uiso   1.00
H262   H     0.70475   0.85265   0.25853   0.00000  Uiso   1.00
H263   H     0.59022   0.93272   0.43920   0.00000  Uiso   1.00
H264   H     0.77076   0.95149   0.21234   0.00000  Uiso   1.00
H265   H     0.73057   0.78584   0.26936   0.00000  Uiso   1.00
H266   H     0.48909   0.95469   0.65029   0.00000  Uiso   1.00
H267   H     0.86980   0.99427   0.17190   0.00000  Uiso   1.00
O268   O     0.77536   0.74362   0.50047   0.00000  Uiso   1.00
O269   O     0.45855   0.96516   0.00022   0.00000  Uiso   1.00
O270   O     0.95804   0.01708   0.37260   0.00000  Uiso   1.00
N271   N     0.78093   0.78944   0.67626   0.00000  Uiso   1.00
N272   N     0.55515   0.94730   0.03241   0.00000  Uiso   1.00
N273   N     0.91108   0.98431   0.58518   0.00000  Uiso   1.00
N274   N     0.74415   0.79265   0.39585   0.00000  Uiso   1.00
N275   N     0.51838   0.95051   0.75199   0.00000  Uiso   1.00
N276   N     0.87430   0.98752   0.30476   0.00000  Uiso   1.00
C277   C     0.75232   0.59328   0.71074   0.00000  Uiso   1.00
C278   C     0.75122   0.62481   0.81042   0.00000  Uiso   1.00
C279   C     0.77078   0.65312   0.73802   0.00000  Uiso   1.00
C280   C     0.76601   0.67934   0.85121   0.00000  Uiso   1.00
C281   C     0.76786   0.72862   0.97870   0.00000  Uiso   1.00
C282   C     0.68899   0.58131   0.71226   0.00000  Uiso   1.00
C283   C     0.65623   0.57303   0.55733   0.00000  Uiso   1.00
C284   C     0.59908   0.56263   0.58789   0.00000  Uiso   1.00
C285   C     0.50433   0.54435   0.56300   0.00000  Uiso   1.00
C286   C     0.78709   0.57112   0.83552   0.00000  Uiso   1.00
C287   C     0.83681   0.55426   0.78422   0.00000  Uiso   1.00
C288   C     0.86224   0.53526   0.91855   0.00000  Uiso   1.00
C289   C     0.91980   0.50116   0.08504   0.00000  Uiso   1.00
C290   C     0.70907   0.58950   0.04050   0.00000  Uiso   1.00
C291   C     0.72773   0.62276   0.98953   0.00000  Uiso   1.00
C292   C     0.72293   0.64895   0.10287   0.00000  Uiso   1.00
C293   C     0.74248   0.67729   0.03065   0.00000  Uiso   1.00
C294   C     0.66550   0.57926   0.89137   0.00000  Uiso   1.00
C295   C     0.60838   0.56886   0.92217   0.00000  Uiso   1.00
C296   C     0.57554   0.56057   0.76733   0.00000  Uiso   1.00
C297   C     0.76360   0.56907   0.01464   0.00000  Uiso   1.00
C298   C     0.78895   0.55009   0.14907   0.00000  Uiso   1.00
C299   C     0.83870   0.53321   0.09799   0.00000  Uiso   1.00
H300   H     0.77061   0.59487   0.57129   0.00000  Uiso   1.00
H301   H     0.78896   0.65470   0.59939   0.00000  Uiso   1.00
H302   H     0.67443   0.57462   0.41874   0.00000  Uiso   1.00
H303   H     0.85497   0.55585   0.64560   0.00000  Uiso   1.00
H304   H     0.79892   0.72012   0.70952   0.00000  Uiso   1.00
H305   H     0.55744   0.55127   0.32860   0.00000  Uiso   1.00
H306   H     0.93815   0.51169   0.80697   0.00000  Uiso   1.00
H307   H     0.69077   0.58791   0.17996   0.00000  Uiso   1.00
H308   H     0.70475   0.64735   0.24147   0.00000  Uiso   1.00
H309   H     0.59022   0.56728   0.06080   0.00000  Uiso   1.00
H310   H     0.77076   0.54851   0.28766   0.00000  Uiso   1.00
H311   H     0.73057   0.71416   0.23064   0.00000  Uiso   1.00
H312   H     0.48909   0.54531   0.84971   0.00000  Uiso   1.00
H313   H     0.86980   0.50573   0.32810   0.00000  Uiso   1.00
O314   O     0.77536   0.75638   0.99953   0.00000  Uiso   1.00
O315   O     0.45855   0.53484   0.49978   0.00000  Uiso   1.00
O316   O     0.95804   0.48292   0.12740   0.00000  Uiso   1.00
N317   N     0.78093   0.71056   0.82374   0.00000  Uiso   1.00
N318   N     0.55515   0.55270   0.46759   0.00000  Uiso   1.00
N319   N     0.91108   0.51569   0.91482   0.00000  Uiso   1.00
N320   N     0.74415   0.70735   0.10415   0.00000  Uiso   1.00
N321   N     0.51838   0.54949   0.74801   0.00000  Uiso   1.00
N322   N     0.87430   0.51248   0.19524   0.00000  Uiso   1.00
C323   C     0.74768   0.40672   0.71074   0.00000  Uiso   1.00
C324   C     0.74878   0.37519   0.81042   0.00000  Uiso   1.00
C325   C     0.72922   0.34688   0.73802   0.00000  Uiso   1.00
C326   C     0.73399   0.32066   0.85121   0.00000  Uiso   1.00
C327   C     0.73214   0.27138   0.97870   0.00000  Uiso   1.00
C328   C     0.81101   0.41869   0.71226   0.00000  Uiso   1.00
C329   C     0.84377   0.42697   0.55733   0.00000  Uiso   1.00
C330   C     0.90092   0.43737   0.58789   0.00000  Uiso   1.00
C331   C     0.99567   0.45565   0.56300   0.00000  Uiso   1.00
C332   C     0.71291   0.42888   0.83552   0.00000  Uiso   1.00
C333   C     0.66319   0.44574   0.78422   0.00000  Uiso   1.00
C334   C     0.63776   0.46474   0.91855   0.00000  Uiso   1.00
C335   C     0.58020   0.49884   0.08504   0.00000  Uiso   1.00
C336   C     0.79093   0.41050   0.04050   0.00000  Uiso   1.00
C337   C     0.77227   0.37724   0.98953   0.00000  Uiso   1.00
C338   C     0.77707   0.35105   0.10287   0.00000  Uiso   1.00
C339   C     0.75752   0.32271   0.03065   0.00000  Uiso   1.00
C340   C     0.83450   0.42074   0.89137   0.00000  Uiso   1.00
C341   C     0.89162   0.43114   0.92217   0.00000  Uiso   1.00
C342   C     0.92446   0.43943   0.76733   0.00000  Uiso   1.00
C343   C     0.73640   0.43093   0.01464   0.00000  Uiso   1.00
C344   C     0.71105   0.44991   0.14907   0.00000  Uiso   1.00
C345   C     0.66130   0.46679   0.09799   0.00000  Uiso   1.00
H346   H     0.72939   0.40513   0.57129   0.00000  Uiso   1.00
H347   H     0.71104   0.34530   0.59939   0.00000  Uiso   1.00
H348   H     0.82557   0.42538   0.41874   0.00000  Uiso   1.00
H349   H     0.64503   0.44415   0.64560   0.00000  Uiso   1.00
H350   H     0.70108   0.27988   0.70952   0.00000  Uiso   1.00
H351   H     0.94256   0.44873   0.32860   0.00000  Uiso   1.00
H352   H     0.56185   0.48831   0.80697   0.00000  Uiso   1.00
H353   H     0.80923   0.41209   0.17996   0.00000  Uiso   1.00
H354   H     0.79525   0.35265   0.24147   0.00000  Uiso   1.00
H355   H     0.90978   0.43272   0.06080   0.00000  Uiso   1.00
H356   H     0.72924   0.45149   0.28766   0.00000  Uiso   1.00
H357   H     0.76943   0.28584   0.23064   0.00000  Uiso   1.00
H358   H     0.01091   0.45469   0.84971   0.00000  Uiso   1.00
H359   H     0.63020   0.49427   0.32810   0.00000  Uiso   1.00
O360   O     0.72464   0.24362   0.99953   0.00000  Uiso   1.00
O361   O     0.04145   0.46516   0.49978   0.00000  Uiso   1.00
O362   O     0.54196   0.51708   0.12740   0.00000  Uiso   1.00
N363   N     0.71907   0.28944   0.82374   0.00000  Uiso   1.00
N364   N     0.94485   0.44730   0.46759   0.00000  Uiso   1.00
N365   N     0.58892   0.48431   0.91482   0.00000  Uiso   1.00
N366   N     0.75585   0.29265   0.10415   0.00000  Uiso   1.00
N367   N     0.98162   0.45051   0.74801   0.00000  Uiso   1.00
N368   N     0.62570   0.48752   0.19524   0.00000  Uiso   1.00
