data_job_01927
_audit_creation_date              2018-12-19
_audit_creation_method            'Materials Studio'
_symmetry_space_group_name_H-M    'P1'
_symmetry_Int_Tables_number       1
_symmetry_cell_setting            triclinic
loop_
_symmetry_equiv_pos_as_xyz
  x,y,z
_cell_length_a                    11.6655
_cell_length_b                    17.6402
_cell_length_c                    15.2888
_cell_angle_alpha                 90.0000
_cell_angle_beta                  90.0000
_cell_angle_gamma                 90.0000
loop_
_atom_site_label
_atom_site_type_symbol
_atom_site_fract_x
_atom_site_fract_y
_atom_site_fract_z
_atom_site_U_iso_or_equiv
_atom_site_adp_type
_atom_site_occupancy
C1     C     0.60611   0.48137   0.41561   0.00000  Uiso   1.00
C2     C     0.52623   0.53350   0.46674   0.00000  Uiso   1.00
C3     C     0.55018   0.56657   0.54705   0.00000  Uiso   1.00
C4     C     0.46583   0.61246   0.58312   0.00000  Uiso   1.00
C5     C     0.35766   0.69151   0.66904   0.00000  Uiso   1.00
C6     C     0.53922   0.40830   0.40020   0.00000  Uiso   1.00
C7     C     0.57411   0.33611   0.42455   0.00000  Uiso   1.00
C8     C     0.50071   0.27662   0.40458   0.00000  Uiso   1.00
C9     C     0.41276   0.16129   0.38713   0.00000  Uiso   1.00
C10    C     0.62105   0.51785   0.32591   0.00000  Uiso   1.00
C11    C     0.72474   0.53774   0.28779   0.00000  Uiso   1.00
C12    C     0.72023   0.57046   0.20526   0.00000  Uiso   1.00
C13    C     0.75932   0.62522   0.07248   0.00000  Uiso   1.00
C14    C     0.41373   0.50408   0.33684   0.00000  Uiso   1.00
C15    C     0.42173   0.54583   0.42396   0.00000  Uiso   1.00
C16    C     0.33733   0.59170   0.45990   0.00000  Uiso   1.00
C17    C     0.36115   0.62483   0.54025   0.00000  Uiso   1.00
C18    C     0.43473   0.42064   0.35741   0.00000  Uiso   1.00
C19    C     0.36126   0.36124   0.33740   0.00000  Uiso   1.00
C20    C     0.39603   0.28898   0.36171   0.00000  Uiso   1.00
C21    C     0.51655   0.53019   0.28313   0.00000  Uiso   1.00
C22    C     0.51188   0.56288   0.20064   0.00000  Uiso   1.00
C23    C     0.61554   0.58282   0.16240   0.00000  Uiso   1.00
H24    H     0.68746   0.47175   0.44892   0.00000  Uiso   1.00
H25    H     0.63105   0.55700   0.58015   0.00000  Uiso   1.00
H26    H     0.65499   0.32658   0.45765   0.00000  Uiso   1.00
H27    H     0.80558   0.52819   0.32092   0.00000  Uiso   1.00
H28    H     0.52241   0.65692   0.70679   0.00000  Uiso   1.00
H29    H     0.57289   0.17107   0.44846   0.00000  Uiso   1.00
H30    H     0.89046   0.59620   0.16013   0.00000  Uiso   1.00
H31    H     0.33237   0.51368   0.30353   0.00000  Uiso   1.00
H32    H     0.25647   0.60123   0.42678   0.00000  Uiso   1.00
H33    H     0.28041   0.37081   0.30428   0.00000  Uiso   1.00
H34    H     0.43101   0.57242   0.16755   0.00000  Uiso   1.00
H35    H     0.21838   0.69282   0.58231   0.00000  Uiso   1.00
H36    H     0.26887   0.20697   0.32398   0.00000  Uiso   1.00
H37    H     0.58644   0.63210   0.03566   0.00000  Uiso   1.00
O38    O     0.32686   0.73169   0.72826   0.00000  Uiso   1.00
O39    O     0.39311   0.09427   0.38934   0.00000  Uiso   1.00
O40    O     0.80974   0.65202   0.01106   0.00000  Uiso   1.00
N41    N     0.46128   0.65337   0.66057   0.00000  Uiso   1.00
N42    N     0.50848   0.19913   0.41906   0.00000  Uiso   1.00
N43    N     0.80538   0.59657   0.14949   0.00000  Uiso   1.00
N44    N     0.29769   0.67269   0.59359   0.00000  Uiso   1.00
N45    N     0.34488   0.21845   0.35208   0.00000  Uiso   1.00
N46    N     0.64178   0.61588   0.08251   0.00000  Uiso   1.00
C47    C     0.39389   0.51863   0.91561   0.00000  Uiso   1.00
C48    C     0.47377   0.46650   0.96674   0.00000  Uiso   1.00
C49    C     0.44982   0.43343   0.04705   0.00000  Uiso   1.00
C50    C     0.53417   0.38754   0.08312   0.00000  Uiso   1.00
C51    C     0.64234   0.30849   0.16904   0.00000  Uiso   1.00
C52    C     0.46078   0.59170   0.90020   0.00000  Uiso   1.00
C53    C     0.42589   0.66389   0.92455   0.00000  Uiso   1.00
C54    C     0.49929   0.72338   0.90458   0.00000  Uiso   1.00
C55    C     0.58724   0.83871   0.88713   0.00000  Uiso   1.00
C56    C     0.37895   0.48215   0.82591   0.00000  Uiso   1.00
C57    C     0.27526   0.46226   0.78779   0.00000  Uiso   1.00
C58    C     0.27977   0.42954   0.70526   0.00000  Uiso   1.00
C59    C     0.24068   0.37478   0.57248   0.00000  Uiso   1.00
C60    C     0.58627   0.49592   0.83684   0.00000  Uiso   1.00
C61    C     0.57827   0.45417   0.92396   0.00000  Uiso   1.00
C62    C     0.66267   0.40830   0.95990   0.00000  Uiso   1.00
C63    C     0.63885   0.37517   0.04025   0.00000  Uiso   1.00
C64    C     0.56527   0.57936   0.85741   0.00000  Uiso   1.00
C65    C     0.63874   0.63876   0.83740   0.00000  Uiso   1.00
C66    C     0.60397   0.71102   0.86171   0.00000  Uiso   1.00
C67    C     0.48345   0.46981   0.78313   0.00000  Uiso   1.00
C68    C     0.48812   0.43712   0.70064   0.00000  Uiso   1.00
C69    C     0.38446   0.41718   0.66240   0.00000  Uiso   1.00
H70    H     0.31254   0.52825   0.94892   0.00000  Uiso   1.00
H71    H     0.36895   0.44300   0.08015   0.00000  Uiso   1.00
H72    H     0.34501   0.67342   0.95765   0.00000  Uiso   1.00
H73    H     0.19442   0.47181   0.82092   0.00000  Uiso   1.00
H74    H     0.47759   0.34308   0.20679   0.00000  Uiso   1.00
H75    H     0.42711   0.82893   0.94846   0.00000  Uiso   1.00
H76    H     0.10954   0.40380   0.66013   0.00000  Uiso   1.00
H77    H     0.66763   0.48632   0.80353   0.00000  Uiso   1.00
H78    H     0.74353   0.39877   0.92678   0.00000  Uiso   1.00
H79    H     0.71959   0.62919   0.80428   0.00000  Uiso   1.00
H80    H     0.56899   0.42758   0.66755   0.00000  Uiso   1.00
H81    H     0.78162   0.30718   0.08231   0.00000  Uiso   1.00
H82    H     0.73113   0.79303   0.82398   0.00000  Uiso   1.00
H83    H     0.41356   0.36790   0.53566   0.00000  Uiso   1.00
O84    O     0.67314   0.26831   0.22826   0.00000  Uiso   1.00
O85    O     0.60689   0.90573   0.88934   0.00000  Uiso   1.00
O86    O     0.19026   0.34798   0.51106   0.00000  Uiso   1.00
N87    N     0.53872   0.34663   0.16057   0.00000  Uiso   1.00
N88    N     0.49152   0.80087   0.91906   0.00000  Uiso   1.00
N89    N     0.19462   0.40343   0.64949   0.00000  Uiso   1.00
N90    N     0.70231   0.32731   0.09359   0.00000  Uiso   1.00
N91    N     0.65512   0.78155   0.85208   0.00000  Uiso   1.00
N92    N     0.35822   0.38412   0.58251   0.00000  Uiso   1.00
C93    C     0.10611   0.01863   0.41561   0.00000  Uiso   1.00
C94    C     0.02623   0.96650   0.46674   0.00000  Uiso   1.00
C95    C     0.05018   0.93343   0.54705   0.00000  Uiso   1.00
C96    C     0.96583   0.88754   0.58312   0.00000  Uiso   1.00
C97    C     0.85766   0.80849   0.66904   0.00000  Uiso   1.00
C98    C     0.03922   0.09170   0.40020   0.00000  Uiso   1.00
C99    C     0.07411   0.16389   0.42455   0.00000  Uiso   1.00
C100   C     0.00071   0.22338   0.40458   0.00000  Uiso   1.00
C101   C     0.91276   0.33871   0.38713   0.00000  Uiso   1.00
C102   C     0.12105   0.98215   0.32591   0.00000  Uiso   1.00
C103   C     0.22474   0.96226   0.28779   0.00000  Uiso   1.00
C104   C     0.22023   0.92954   0.20526   0.00000  Uiso   1.00
C105   C     0.25932   0.87478   0.07248   0.00000  Uiso   1.00
C106   C     0.91373   0.99592   0.33684   0.00000  Uiso   1.00
C107   C     0.92173   0.95417   0.42396   0.00000  Uiso   1.00
C108   C     0.83733   0.90830   0.45990   0.00000  Uiso   1.00
C109   C     0.86115   0.87517   0.54025   0.00000  Uiso   1.00
C110   C     0.93473   0.07936   0.35741   0.00000  Uiso   1.00
C111   C     0.86126   0.13876   0.33740   0.00000  Uiso   1.00
C112   C     0.89603   0.21102   0.36171   0.00000  Uiso   1.00
C113   C     0.01655   0.96981   0.28313   0.00000  Uiso   1.00
C114   C     0.01188   0.93712   0.20064   0.00000  Uiso   1.00
C115   C     0.11554   0.91718   0.16240   0.00000  Uiso   1.00
H116   H     0.18746   0.02825   0.44892   0.00000  Uiso   1.00
H117   H     0.13105   0.94300   0.58015   0.00000  Uiso   1.00
H118   H     0.15499   0.17342   0.45765   0.00000  Uiso   1.00
H119   H     0.30558   0.97181   0.32092   0.00000  Uiso   1.00
H120   H     0.02241   0.84308   0.70679   0.00000  Uiso   1.00
H121   H     0.07289   0.32893   0.44846   0.00000  Uiso   1.00
H122   H     0.39046   0.90380   0.16013   0.00000  Uiso   1.00
H123   H     0.83237   0.98632   0.30353   0.00000  Uiso   1.00
H124   H     0.75647   0.89877   0.42678   0.00000  Uiso   1.00
H125   H     0.78041   0.12919   0.30428   0.00000  Uiso   1.00
H126   H     0.93101   0.92758   0.16755   0.00000  Uiso   1.00
H127   H     0.71838   0.80718   0.58231   0.00000  Uiso   1.00
H128   H     0.76887   0.29303   0.32398   0.00000  Uiso   1.00
H129   H     0.08644   0.86790   0.03566   0.00000  Uiso   1.00
O130   O     0.82686   0.76831   0.72826   0.00000  Uiso   1.00
O131   O     0.89311   0.40573   0.38934   0.00000  Uiso   1.00
O132   O     0.30974   0.84798   0.01106   0.00000  Uiso   1.00
N133   N     0.96128   0.84663   0.66057   0.00000  Uiso   1.00
N134   N     0.00848   0.30087   0.41906   0.00000  Uiso   1.00
N135   N     0.30538   0.90343   0.14949   0.00000  Uiso   1.00
N136   N     0.79769   0.82731   0.59359   0.00000  Uiso   1.00
N137   N     0.84488   0.28155   0.35208   0.00000  Uiso   1.00
N138   N     0.14178   0.88412   0.08251   0.00000  Uiso   1.00
C139   C     0.89389   0.98137   0.91561   0.00000  Uiso   1.00
C140   C     0.97377   0.03350   0.96674   0.00000  Uiso   1.00
C141   C     0.94982   0.06657   0.04705   0.00000  Uiso   1.00
C142   C     0.03417   0.11246   0.08312   0.00000  Uiso   1.00
C143   C     0.14234   0.19151   0.16904   0.00000  Uiso   1.00
C144   C     0.96078   0.90830   0.90020   0.00000  Uiso   1.00
C145   C     0.92589   0.83611   0.92455   0.00000  Uiso   1.00
C146   C     0.99929   0.77662   0.90458   0.00000  Uiso   1.00
C147   C     0.08724   0.66129   0.88713   0.00000  Uiso   1.00
C148   C     0.87895   0.01785   0.82591   0.00000  Uiso   1.00
C149   C     0.77526   0.03774   0.78779   0.00000  Uiso   1.00
C150   C     0.77977   0.07046   0.70526   0.00000  Uiso   1.00
C151   C     0.74068   0.12522   0.57248   0.00000  Uiso   1.00
C152   C     0.08627   0.00408   0.83684   0.00000  Uiso   1.00
C153   C     0.07827   0.04583   0.92396   0.00000  Uiso   1.00
C154   C     0.16267   0.09170   0.95990   0.00000  Uiso   1.00
C155   C     0.13885   0.12483   0.04025   0.00000  Uiso   1.00
C156   C     0.06527   0.92064   0.85741   0.00000  Uiso   1.00
C157   C     0.13874   0.86124   0.83740   0.00000  Uiso   1.00
C158   C     0.10397   0.78898   0.86171   0.00000  Uiso   1.00
C159   C     0.98345   0.03019   0.78313   0.00000  Uiso   1.00
C160   C     0.98812   0.06288   0.70064   0.00000  Uiso   1.00
C161   C     0.88446   0.08282   0.66240   0.00000  Uiso   1.00
H162   H     0.81254   0.97175   0.94892   0.00000  Uiso   1.00
H163   H     0.86895   0.05700   0.08015   0.00000  Uiso   1.00
H164   H     0.84501   0.82658   0.95765   0.00000  Uiso   1.00
H165   H     0.69442   0.02819   0.82092   0.00000  Uiso   1.00
H166   H     0.97759   0.15692   0.20679   0.00000  Uiso   1.00
H167   H     0.92711   0.67107   0.94846   0.00000  Uiso   1.00
H168   H     0.60954   0.09620   0.66013   0.00000  Uiso   1.00
H169   H     0.16763   0.01368   0.80353   0.00000  Uiso   1.00
H170   H     0.24353   0.10123   0.92678   0.00000  Uiso   1.00
H171   H     0.21959   0.87081   0.80428   0.00000  Uiso   1.00
H172   H     0.06899   0.07242   0.66755   0.00000  Uiso   1.00
H173   H     0.28162   0.19282   0.08231   0.00000  Uiso   1.00
H174   H     0.23113   0.70697   0.82398   0.00000  Uiso   1.00
H175   H     0.91356   0.13210   0.53566   0.00000  Uiso   1.00
O176   O     0.17314   0.23169   0.22826   0.00000  Uiso   1.00
O177   O     0.10689   0.59427   0.88934   0.00000  Uiso   1.00
O178   O     0.69026   0.15202   0.51106   0.00000  Uiso   1.00
N179   N     0.03872   0.15337   0.16057   0.00000  Uiso   1.00
N180   N     0.99152   0.69913   0.91906   0.00000  Uiso   1.00
N181   N     0.69462   0.09657   0.64949   0.00000  Uiso   1.00
N182   N     0.20231   0.17269   0.09359   0.00000  Uiso   1.00
N183   N     0.15512   0.71845   0.85208   0.00000  Uiso   1.00
N184   N     0.85822   0.11588   0.58251   0.00000  Uiso   1.00
