data_job_06511
_audit_creation_date              2018-12-19
_audit_creation_method            'Materials Studio'
_symmetry_space_group_name_H-M    'P1'
_symmetry_Int_Tables_number       1
_symmetry_cell_setting            triclinic
loop_
_symmetry_equiv_pos_as_xyz
  x,y,z
_cell_length_a                    20.7469
_cell_length_b                    21.8438
_cell_length_c                    22.4239
_cell_angle_alpha                 104.4305
_cell_angle_beta                  112.9482
_cell_angle_gamma                 109.1164
loop_
_atom_site_label
_atom_site_type_symbol
_atom_site_fract_x
_atom_site_fract_y
_atom_site_fract_z
_atom_site_U_iso_or_equiv
_atom_site_adp_type
_atom_site_occupancy
C1     C     0.59679   0.51787   0.40250   0.00000  Uiso   1.00
C2     C     0.54135   0.44036   0.38198   0.00000  Uiso   1.00
C3     C     0.47024   0.41647   0.38139   0.00000  Uiso   1.00
C4     C     0.42817   0.34347   0.36101   0.00000  Uiso   1.00
C5     C     0.33782   0.23031   0.33210   0.00000  Uiso   1.00
C6     C     0.67784   0.53691   0.46309   0.00000  Uiso   1.00
C7     C     0.72150   0.59422   0.53069   0.00000  Uiso   1.00
C8     C     0.79433   0.60250   0.57859   0.00000  Uiso   1.00
C9     C     0.91592   0.63928   0.67558   0.00000  Uiso   1.00
C10    C     0.60664   0.51662   0.33834   0.00000  Uiso   1.00
C11    C     0.59044   0.55687   0.30105   0.00000  Uiso   1.00
C12    C     0.60334   0.54808   0.24392   0.00000  Uiso   1.00
C13    C     0.61437   0.55335   0.14722   0.00000  Uiso   1.00
C14    C     0.64851   0.43070   0.36736   0.00000  Uiso   1.00
C15    C     0.56945   0.39301   0.36290   0.00000  Uiso   1.00
C16    C     0.52746   0.32003   0.34251   0.00000  Uiso   1.00
C17    C     0.45630   0.29604   0.34189   0.00000  Uiso   1.00
C18    C     0.70594   0.48957   0.44401   0.00000  Uiso   1.00
C19    C     0.77872   0.49777   0.49181   0.00000  Uiso   1.00
C20    C     0.82247   0.55507   0.55947   0.00000  Uiso   1.00
C21    C     0.63473   0.46927   0.31925   0.00000  Uiso   1.00
C22    C     0.64766   0.46042   0.26217   0.00000  Uiso   1.00
C23    C     0.63148   0.50065   0.22480   0.00000  Uiso   1.00
H24    H     0.57493   0.55474   0.41736   0.00000  Uiso   1.00
H25    H     0.44853   0.45313   0.39617   0.00000  Uiso   1.00
H26    H     0.69975   0.63085   0.54545   0.00000  Uiso   1.00
H27    H     0.56871   0.59351   0.31584   0.00000  Uiso   1.00
H28    H     0.32079   0.31960   0.36429   0.00000  Uiso   1.00
H29    H     0.85051   0.69436   0.67903   0.00000  Uiso   1.00
H30    H     0.57419   0.61561   0.19486   0.00000  Uiso   1.00
H31    H     0.67039   0.39384   0.35250   0.00000  Uiso   1.00
H32    H     0.54922   0.28340   0.32774   0.00000  Uiso   1.00
H33    H     0.80044   0.46113   0.47702   0.00000  Uiso   1.00
H34    H     0.66940   0.42378   0.24742   0.00000  Uiso   1.00
H35    H     0.40252   0.18184   0.30875   0.00000  Uiso   1.00
H36    H     0.93224   0.55660   0.62350   0.00000  Uiso   1.00
H37    H     0.65591   0.47785   0.13933   0.00000  Uiso   1.00
O38    O     0.28024   0.18098   0.32143   0.00000  Uiso   1.00
O39    O     0.97522   0.67265   0.73436   0.00000  Uiso   1.00
O40    O     0.61268   0.56933   0.09914   0.00000  Uiso   1.00
N41    N     0.35665   0.30234   0.35460   0.00000  Uiso   1.00
N42    N     0.85190   0.65270   0.64887   0.00000  Uiso   1.00
N43    N     0.59358   0.57909   0.19623   0.00000  Uiso   1.00
N44    N     0.40062   0.22821   0.32472   0.00000  Uiso   1.00
N45    N     0.89587   0.57857   0.61899   0.00000  Uiso   1.00
N46    N     0.63755   0.50497   0.16635   0.00000  Uiso   1.00
C47    C     0.90550   0.81720   0.41423   0.00000  Uiso   1.00
C48    C     0.97979   0.82192   0.41272   0.00000  Uiso   1.00
C49    C     0.00020   0.76718   0.40450   0.00000  Uiso   1.00
C50    C     0.07063   0.78217   0.40454   0.00000  Uiso   1.00
C51    C     0.17866   0.77927   0.40101   0.00000  Uiso   1.00
C52    C     0.93499   0.87831   0.48497   0.00000  Uiso   1.00
C53    C     0.91772   0.87098   0.53749   0.00000  Uiso   1.00
C54    C     0.95043   0.93344   0.59835   0.00000  Uiso   1.00
C55    C     0.98886   0.01809   0.70697   0.00000  Uiso   1.00
C56    C     0.86256   0.83631   0.35508   0.00000  Uiso   1.00
C57    C     0.78440   0.79368   0.29840   0.00000  Uiso   1.00
C58    C     0.75613   0.82079   0.24991   0.00000  Uiso   1.00
C59    C     0.68212   0.84023   0.15686   0.00000  Uiso   1.00
C60    C     0.99427   0.94115   0.42892   0.00000  Uiso   1.00
C61    C     0.02800   0.88925   0.42070   0.00000  Uiso   1.00
C62    C     0.09841   0.90432   0.42075   0.00000  Uiso   1.00
C63    C     0.11893   0.84961   0.41253   0.00000  Uiso   1.00
C64    C     0.98320   0.94563   0.49295   0.00000  Uiso   1.00
C65    C     0.01594   0.00812   0.55374   0.00000  Uiso   1.00
C66    C     0.99874   0.00089   0.60634   0.00000  Uiso   1.00
C67    C     0.91078   0.90364   0.36306   0.00000  Uiso   1.00
C68    C     0.88262   0.93082   0.31466   0.00000  Uiso   1.00
C69    C     0.80443   0.88823   0.25791   0.00000  Uiso   1.00
H70    H     0.86796   0.76478   0.40802   0.00000  Uiso   1.00
H71    H     0.96288   0.71509   0.39833   0.00000  Uiso   1.00
H72    H     0.88041   0.81887   0.53129   0.00000  Uiso   1.00
H73    H     0.74711   0.74158   0.29224   0.00000  Uiso   1.00
H74    H     0.08939   0.68969   0.39113   0.00000  Uiso   1.00
H75    H     0.91547   0.90852   0.67148   0.00000  Uiso   1.00
H76    H     0.63438   0.74554   0.16740   0.00000  Uiso   1.00
H77    H     0.03181   0.99357   0.43514   0.00000  Uiso   1.00
H78    H     0.13571   0.95643   0.42693   0.00000  Uiso   1.00
H79    H     0.05324   0.06021   0.55990   0.00000  Uiso   1.00
H80    H     0.91995   0.98292   0.32085   0.00000  Uiso   1.00
H81    H     0.22967   0.88557   0.41435   0.00000  Uiso   1.00
H82    H     0.05575   0.10441   0.69470   0.00000  Uiso   1.00
H83    H     0.77467   0.94143   0.19061   0.00000  Uiso   1.00
O84    O     0.22494   0.75908   0.39687   0.00000  Uiso   1.00
O85    O     0.99675   0.04618   0.76468   0.00000  Uiso   1.00
O86    O     0.62798   0.83235   0.10333   0.00000  Uiso   1.00
N87    N     0.10813   0.74088   0.39770   0.00000  Uiso   1.00
N88    N     0.94554   0.94548   0.65983   0.00000  Uiso   1.00
N89    N     0.68274   0.79311   0.18856   0.00000  Uiso   1.00
N90    N     0.18362   0.84629   0.41020   0.00000  Uiso   1.00
N91    N     0.02102   0.05088   0.67232   0.00000  Uiso   1.00
N92    N     0.75823   0.89852   0.20105   0.00000  Uiso   1.00
C93    C     0.58189   0.93462   0.47672   0.00000  Uiso   1.00
C94    C     0.52381   0.96496   0.46013   0.00000  Uiso   1.00
C95    C     0.54405   0.03640   0.47491   0.00000  Uiso   1.00
C96    C     0.48221   0.05333   0.45557   0.00000  Uiso   1.00
C97    C     0.40409   0.10844   0.43485   0.00000  Uiso   1.00
C98    C     0.56812   0.89732   0.52304   0.00000  Uiso   1.00
C99    C     0.62561   0.91188   0.59072   0.00000  Uiso   1.00
C100   C     0.60107   0.87186   0.62433   0.00000  Uiso   1.00
C101   C     0.59174   0.82193   0.70126   0.00000  Uiso   1.00
C102   C     0.55381   0.87514   0.40545   0.00000  Uiso   1.00
C103   C     0.59928   0.87105   0.37425   0.00000  Uiso   1.00
C104   C     0.56269   0.81234   0.30886   0.00000  Uiso   1.00
C105   C     0.53115   0.72798   0.20321   0.00000  Uiso   1.00
C106   C     0.43607   0.83765   0.41609   0.00000  Uiso   1.00
C107   C     0.44461   0.91228   0.42720   0.00000  Uiso   1.00
C108   C     0.38272   0.92910   0.40782   0.00000  Uiso   1.00
C109   C     0.40287   0.00056   0.42257   0.00000  Uiso   1.00
C110   C     0.48892   0.84464   0.49011   0.00000  Uiso   1.00
C111   C     0.46429   0.80459   0.52363   0.00000  Uiso   1.00
C112   C     0.52173   0.81909   0.59134   0.00000  Uiso   1.00
C113   C     0.47461   0.82247   0.37251   0.00000  Uiso   1.00
C114   C     0.43795   0.76376   0.30716   0.00000  Uiso   1.00
C115   C     0.48335   0.75957   0.27587   0.00000  Uiso   1.00
H116   H     0.64355   0.97563   0.50237   0.00000  Uiso   1.00
H117   H     0.60536   0.07715   0.50041   0.00000  Uiso   1.00
H118   H     0.68690   0.95264   0.61619   0.00000  Uiso   1.00
H119   H     0.66057   0.91182   0.39975   0.00000  Uiso   1.00
H120   H     0.52808   0.16647   0.48373   0.00000  Uiso   1.00
H121   H     0.70003   0.90393   0.72785   0.00000  Uiso   1.00
H122   H     0.64451   0.81784   0.27146   0.00000  Uiso   1.00
H123   H     0.37441   0.79664   0.39045   0.00000  Uiso   1.00
H124   H     0.32144   0.88833   0.38234   0.00000  Uiso   1.00
H125   H     0.40299   0.76383   0.49812   0.00000  Uiso   1.00
H126   H     0.37666   0.72300   0.28169   0.00000  Uiso   1.00
H127   H     0.29765   0.01322   0.38791   0.00000  Uiso   1.00
H128   H     0.46960   0.75068   0.63203   0.00000  Uiso   1.00
H129   H     0.41407   0.66459   0.17563   0.00000  Uiso   1.00
O130   O     0.38288   0.15340   0.43253   0.00000  Uiso   1.00
O131   O     0.60848   0.80895   0.75280   0.00000  Uiso   1.00
O132   O     0.53563   0.69601   0.15402   0.00000  Uiso   1.00
N133   N     0.48112   0.11782   0.46228   0.00000  Uiso   1.00
N134   N     0.64188   0.87237   0.69052   0.00000  Uiso   1.00
N135   N     0.58997   0.79187   0.26384   0.00000  Uiso   1.00
N136   N     0.35712   0.03535   0.41071   0.00000  Uiso   1.00
N137   N     0.51789   0.78991   0.63896   0.00000  Uiso   1.00
N138   N     0.46598   0.70941   0.21228   0.00000  Uiso   1.00
C139   C     0.49096   0.95610   0.99346   0.00000  Uiso   1.00
C140   C     0.45736   0.87501   0.96787   0.00000  Uiso   1.00
C141   C     0.50179   0.83904   0.97987   0.00000  Uiso   1.00
C142   C     0.45987   0.76473   0.95206   0.00000  Uiso   1.00
C143   C     0.42037   0.64445   0.91820   0.00000  Uiso   1.00
C144   C     0.45579   0.97909   0.03770   0.00000  Uiso   1.00
C145   C     0.49890   0.03062   0.10841   0.00000  Uiso   1.00
C146   C     0.45565   0.04393   0.13938   0.00000  Uiso   1.00
C147   C     0.41371   0.08526   0.21392   0.00000  Uiso   1.00
C148   C     0.45459   0.96762   0.92634   0.00000  Uiso   1.00
C149   C     0.49669   0.00953   0.90342   0.00000  Uiso   1.00
C150   C     0.45244   0.01320   0.84064   0.00000  Uiso   1.00
C151   C     0.40864   0.03672   0.74227   0.00000  Uiso   1.00
C152   C     0.33752   0.88812   0.92274   0.00000  Uiso   1.00
C153   C     0.37402   0.83809   0.92946   0.00000  Uiso   1.00
C154   C     0.33202   0.76382   0.90162   0.00000  Uiso   1.00
C155   C     0.37638   0.72774   0.91357   0.00000  Uiso   1.00
C156   C     0.37245   0.94216   0.99930   0.00000  Uiso   1.00
C157   C     0.32913   0.95540   0.03017   0.00000  Uiso   1.00
C158   C     0.37216   0.00694   0.10090   0.00000  Uiso   1.00
C159   C     0.37125   0.93069   0.88793   0.00000  Uiso   1.00
C160   C     0.32692   0.93430   0.82517   0.00000  Uiso   1.00
C161   C     0.36894   0.97621   0.80216   0.00000  Uiso   1.00
H162   H     0.55585   0.98485   0.02337   0.00000  Uiso   1.00
H163   H     0.56629   0.86763   0.00960   0.00000  Uiso   1.00
H164   H     0.56339   0.05919   0.13812   0.00000  Uiso   1.00
H165   H     0.56118   0.03809   0.93316   0.00000  Uiso   1.00
H166   H     0.54110   0.72139   0.97742   0.00000  Uiso   1.00
H167   H     0.53500   0.12532   0.24840   0.00000  Uiso   1.00
H168   H     0.53035   0.08084   0.81620   0.00000  Uiso   1.00
H169   H     0.27263   0.85937   0.89283   0.00000  Uiso   1.00
H170   H     0.26753   0.73526   0.87190   0.00000  Uiso   1.00
H171   H     0.26464   0.92682   0.00042   0.00000  Uiso   1.00
H172   H     0.26243   0.90572   0.79546   0.00000  Uiso   1.00
H173   H     0.29862   0.61395   0.86566   0.00000  Uiso   1.00
H174   H     0.29252   0.01789   0.13664   0.00000  Uiso   1.00
H175   H     0.28786   0.97340   0.70444   0.00000  Uiso   1.00
O176   O     0.42161   0.58830   0.91015   0.00000  Uiso   1.00
O177   O     0.41361   0.11825   0.26566   0.00000  Uiso   1.00
O178   O     0.40750   0.05988   0.69862   0.00000  Uiso   1.00
N179   N     0.48473   0.71314   0.95398   0.00000  Uiso   1.00
N180   N     0.47903   0.09078   0.20733   0.00000  Uiso   1.00
N181   N     0.47468   0.04921   0.80327   0.00000  Uiso   1.00
N182   N     0.35425   0.65533   0.89384   0.00000  Uiso   1.00
N183   N     0.34855   0.03297   0.14720   0.00000  Uiso   1.00
N184   N     0.34420   0.99139   0.74314   0.00000  Uiso   1.00
C185   C     0.58117   0.26888   0.89588   0.00000  Uiso   1.00
C186   C     0.54111   0.31531   0.90355   0.00000  Uiso   1.00
C187   C     0.46616   0.29200   0.89547   0.00000  Uiso   1.00
C188   C     0.44018   0.34278   0.90466   0.00000  Uiso   1.00
C189   C     0.37079   0.40400   0.91407   0.00000  Uiso   1.00
C190   C     0.66049   0.30561   0.96638   0.00000  Uiso   1.00
C191   C     0.68591   0.27414   0.01114   0.00000  Uiso   1.00
C192   C     0.76042   0.31676   0.07322   0.00000  Uiso   1.00
C193   C     0.87639   0.36290   0.18015   0.00000  Uiso   1.00
C194   C     0.60163   0.27593   0.83874   0.00000  Uiso   1.00
C195   C     0.57759   0.21950   0.77617   0.00000  Uiso   1.00
C196   C     0.60257   0.23712   0.73079   0.00000  Uiso   1.00
C197   C     0.62715   0.23717   0.63954   0.00000  Uiso   1.00
C198   C     0.66831   0.40050   0.92656   0.00000  Uiso   1.00
C199   C     0.58844   0.38680   0.92021   0.00000  Uiso   1.00
C200   C     0.56256   0.43763   0.92941   0.00000  Uiso   1.00
C201   C     0.48759   0.41440   0.92135   0.00000  Uiso   1.00
C202   C     0.70781   0.37710   0.98305   0.00000  Uiso   1.00
C203   C     0.78231   0.41977   0.04508   0.00000  Uiso   1.00
C204   C     0.80784   0.38837   0.08991   0.00000  Uiso   1.00
C205   C     0.64896   0.34742   0.85540   0.00000  Uiso   1.00
C206   C     0.67399   0.36512   0.81011   0.00000  Uiso   1.00
C207   C     0.64998   0.30874   0.74749   0.00000  Uiso   1.00
H208   H     0.54433   0.21322   0.88291   0.00000  Uiso   1.00
H209   H     0.42956   0.23667   0.88258   0.00000  Uiso   1.00
H210   H     0.64927   0.21882   0.99822   0.00000  Uiso   1.00
H211   H     0.54096   0.16418   0.76330   0.00000  Uiso   1.00
H212   H     0.32319   0.29421   0.88959   0.00000  Uiso   1.00
H213   H     0.78649   0.25655   0.13342   0.00000  Uiso   1.00
H214   H     0.55810   0.14134   0.63803   0.00000  Uiso   1.00
H215   H     0.70516   0.45616   0.93953   0.00000  Uiso   1.00
H216   H     0.59920   0.49295   0.94231   0.00000  Uiso   1.00
H217   H     0.81892   0.47509   0.05795   0.00000  Uiso   1.00
H218   H     0.71061   0.42045   0.82302   0.00000  Uiso   1.00
H219   H     0.46089   0.50221   0.93807   0.00000  Uiso   1.00
H220   H     0.92418   0.46454   0.18189   0.00000  Uiso   1.00
H221   H     0.69579   0.34934   0.68650   0.00000  Uiso   1.00
O222   O     0.31945   0.41803   0.91466   0.00000  Uiso   1.00
O223   O     0.92728   0.36861   0.23454   0.00000  Uiso   1.00
O224   O     0.62763   0.21746   0.58460   0.00000  Uiso   1.00
N225   N     0.37013   0.33811   0.90061   0.00000  Uiso   1.00
N226   N     0.80328   0.30290   0.12857   0.00000  Uiso   1.00
N227   N     0.58977   0.19519   0.66544   0.00000  Uiso   1.00
N228   N     0.44422   0.45003   0.92669   0.00000  Uiso   1.00
N229   N     0.87737   0.41482   0.15466   0.00000  Uiso   1.00
N230   N     0.66386   0.30711   0.69152   0.00000  Uiso   1.00
C231   C     0.00087   0.36970   0.01400   0.00000  Uiso   1.00
C232   C     0.04827   0.40251   0.98226   0.00000  Uiso   1.00
C233   C     0.06628   0.46930   0.98163   0.00000  Uiso   1.00
C234   C     0.11029   0.48958   0.95004   0.00000  Uiso   1.00
C235   C     0.18010   0.54738   0.90533   0.00000  Uiso   1.00
C236   C     0.05433   0.35238   0.06876   0.00000  Uiso   1.00
C237   C     0.07743   0.37702   0.14085   0.00000  Uiso   1.00
C238   C     0.12653   0.35509   0.18207   0.00000  Uiso   1.00
C239   C     0.20572   0.33502   0.27164   0.00000  Uiso   1.00
C240   C     0.93163   0.29749   0.95330   0.00000  Uiso   1.00
C241   C     0.85156   0.27597   0.92833   0.00000  Uiso   1.00
C242   C     0.79736   0.20782   0.87235   0.00000  Uiso   1.00
C243   C     0.68604   0.10253   0.78266   0.00000  Uiso   1.00
C244   C     0.04700   0.28693   0.95901   0.00000  Uiso   1.00
C245   C     0.07332   0.35755   0.95239   0.00000  Uiso   1.00
C246   C     0.11731   0.37773   0.92079   0.00000  Uiso   1.00
C247   C     0.13538   0.44454   0.92011   0.00000  Uiso   1.00
C248   C     0.07938   0.30743   0.03889   0.00000  Uiso   1.00
C249   C     0.12846   0.28545   0.08001   0.00000  Uiso   1.00
C250   C     0.15163   0.31005   0.15215   0.00000  Uiso   1.00
C251   C     0.95668   0.25254   0.92343   0.00000  Uiso   1.00
C252   C     0.90260   0.18440   0.86748   0.00000  Uiso   1.00
C253   C     0.82246   0.16278   0.84243   0.00000  Uiso   1.00
H254   H     0.98137   0.40470   0.03726   0.00000  Uiso   1.00
H255   H     0.04688   0.50408   0.00476   0.00000  Uiso   1.00
H256   H     0.05802   0.41181   0.16395   0.00000  Uiso   1.00
H257   H     0.83220   0.31078   0.95146   0.00000  Uiso   1.00
H258   H     0.13059   0.59445   0.95558   0.00000  Uiso   1.00
H259   H     0.15406   0.39986   0.29124   0.00000  Uiso   1.00
H260   H     0.67786   0.18682   0.84315   0.00000  Uiso   1.00
H261   H     0.06650   0.25193   0.93575   0.00000  Uiso   1.00
H262   H     0.13669   0.34293   0.89768   0.00000  Uiso   1.00
H263   H     0.14783   0.25065   0.05688   0.00000  Uiso   1.00
H264   H     0.92201   0.14963   0.84438   0.00000  Uiso   1.00
H265   H     0.20349   0.46365   0.86867   0.00000  Uiso   1.00
H266   H     0.22696   0.26906   0.20434   0.00000  Uiso   1.00
H267   H     0.75075   0.05602   0.75625   0.00000  Uiso   1.00
O268   O     0.21170   0.59168   0.88894   0.00000  Uiso   1.00
O269   O     0.24248   0.33638   0.32930   0.00000  Uiso   1.00
O270   O     0.61771   0.05688   0.74143   0.00000  Uiso   1.00
N271   N     0.13810   0.55117   0.94034   0.00000  Uiso   1.00
N272   N     0.16006   0.36926   0.25416   0.00000  Uiso   1.00
N273   N     0.71485   0.17007   0.83525   0.00000  Uiso   1.00
N274   N     0.17733   0.48079   0.89357   0.00000  Uiso   1.00
N275   N     0.19928   0.29887   0.20740   0.00000  Uiso   1.00
N276   N     0.75407   0.09969   0.78849   0.00000  Uiso   1.00
C277   C     0.46927   0.36813   0.55518   0.00000  Uiso   1.00
C278   C     0.55734   0.39116   0.58391   0.00000  Uiso   1.00
C279   C     0.59000   0.37257   0.54338   0.00000  Uiso   1.00
C280   C     0.67191   0.39908   0.57970   0.00000  Uiso   1.00
C281   C     0.80145   0.42825   0.61302   0.00000  Uiso   1.00
C282   C     0.46374   0.43734   0.57676   0.00000  Uiso   1.00
C283   C     0.41770   0.45758   0.53023   0.00000  Uiso   1.00
C284   C     0.42081   0.52297   0.56053   0.00000  Uiso   1.00
C285   C     0.40499   0.62382   0.58277   0.00000  Uiso   1.00
C286   C     0.44661   0.33080   0.59843   0.00000  Uiso   1.00
C287   C     0.38613   0.26147   0.57012   0.00000  Uiso   1.00
C288   C     0.37481   0.23716   0.61867   0.00000  Uiso   1.00
C289   C     0.33238   0.17259   0.67455   0.00000  Uiso   1.00
C290   C     0.55666   0.44826   0.69172   0.00000  Uiso   1.00
C291   C     0.60481   0.43468   0.65807   0.00000  Uiso   1.00
C292   C     0.68669   0.46123   0.69446   0.00000  Uiso   1.00
C293   C     0.71946   0.44269   0.65400   0.00000  Uiso   1.00
C294   C     0.51121   0.48087   0.65092   0.00000  Uiso   1.00
C295   C     0.51439   0.54624   0.68130   0.00000  Uiso   1.00
C296   C     0.46836   0.56658   0.63483   0.00000  Uiso   1.00
C297   C     0.49408   0.37433   0.67260   0.00000  Uiso   1.00
C298   C     0.48283   0.35013   0.72120   0.00000  Uiso   1.00
C299   C     0.42236   0.28077   0.69297   0.00000  Uiso   1.00
H300   H     0.43231   0.33424   0.49743   0.00000  Uiso   1.00
H301   H     0.55324   0.33889   0.48599   0.00000  Uiso   1.00
H302   H     0.38096   0.42389   0.47284   0.00000  Uiso   1.00
H303   H     0.34941   0.22780   0.51272   0.00000  Uiso   1.00
H304   H     0.70826   0.36326   0.50600   0.00000  Uiso   1.00
H305   H     0.34498   0.54247   0.47828   0.00000  Uiso   1.00
H306   H     0.27844   0.12898   0.56238   0.00000  Uiso   1.00
H307   H     0.59362   0.48215   0.74947   0.00000  Uiso   1.00
H308   H     0.72341   0.49491   0.75185   0.00000  Uiso   1.00
H309   H     0.55113   0.57991   0.73870   0.00000  Uiso   1.00
H310   H     0.51958   0.38383   0.77859   0.00000  Uiso   1.00
H311   H     0.84637   0.48990   0.72179   0.00000  Uiso   1.00
H312   H     0.48309   0.66910   0.69406   0.00000  Uiso   1.00
H313   H     0.41656   0.25562   0.77817   0.00000  Uiso   1.00
O314   O     0.85979   0.43232   0.61091   0.00000  Uiso   1.00
O315   O     0.38316   0.66743   0.57454   0.00000  Uiso   1.00
O316   O     0.29588   0.12495   0.68488   0.00000  Uiso   1.00
N317   N     0.72295   0.39130   0.55646   0.00000  Uiso   1.00
N318   N     0.38331   0.55885   0.53054   0.00000  Uiso   1.00
N319   N     0.32109   0.17229   0.60917   0.00000  Uiso   1.00
N320   N     0.79727   0.45944   0.67257   0.00000  Uiso   1.00
N321   N     0.45763   0.62700   0.64665   0.00000  Uiso   1.00
N322   N     0.39541   0.24043   0.72528   0.00000  Uiso   1.00
C323   C     0.25648   0.77425   0.59420   0.00000  Uiso   1.00
C324   C     0.19998   0.77684   0.62124   0.00000  Uiso   1.00
C325   C     0.14999   0.80692   0.60277   0.00000  Uiso   1.00
C326   C     0.10288   0.80386   0.63325   0.00000  Uiso   1.00
C327   C     0.01469   0.81273   0.66803   0.00000  Uiso   1.00
C328   C     0.23403   0.69514   0.55991   0.00000  Uiso   1.00
C329   C     0.21268   0.65653   0.48989   0.00000  Uiso   1.00
C330   C     0.19424   0.58470   0.46874   0.00000  Uiso   1.00
C331   C     0.15898   0.46673   0.40832   0.00000  Uiso   1.00
C332   C     0.33901   0.81038   0.66104   0.00000  Uiso   1.00
C333   C     0.40593   0.86865   0.67603   0.00000  Uiso   1.00
C334   C     0.47589   0.89383   0.74003   0.00000  Uiso   1.00
C335   C     0.60362   0.95480   0.83662   0.00000  Uiso   1.00
C336   C     0.26173   0.71534   0.68117   0.00000  Uiso   1.00
C337   C     0.20283   0.74485   0.66848   0.00000  Uiso   1.00
C338   C     0.15579   0.74175   0.69900   0.00000  Uiso   1.00
C339   C     0.10574   0.77181   0.68058   0.00000  Uiso   1.00
C340   C     0.23688   0.66314   0.60715   0.00000  Uiso   1.00
C341   C     0.21848   0.59136   0.58611   0.00000  Uiso   1.00
C342   C     0.19710   0.55264   0.51607   0.00000  Uiso   1.00
C343   C     0.34186   0.77839   0.70828   0.00000  Uiso   1.00
C344   C     0.41173   0.80348   0.77226   0.00000  Uiso   1.00
C345   C     0.47875   0.86178   0.78735   0.00000  Uiso   1.00
H346   H     0.25426   0.79915   0.55742   0.00000  Uiso   1.00
H347   H     0.14779   0.83167   0.56621   0.00000  Uiso   1.00
H348   H     0.21049   0.68130   0.45334   0.00000  Uiso   1.00
H349   H     0.40371   0.89339   0.63946   0.00000  Uiso   1.00
H350   H     0.03099   0.85359   0.59677   0.00000  Uiso   1.00
H351   H     0.16320   0.53654   0.35879   0.00000  Uiso   1.00
H352   H     0.57065   0.98378   0.75126   0.00000  Uiso   1.00
H353   H     0.26394   0.69043   0.71795   0.00000  Uiso   1.00
H354   H     0.15801   0.71698   0.73555   0.00000  Uiso   1.00
H355   H     0.22070   0.56662   0.62268   0.00000  Uiso   1.00
H356   H     0.41392   0.77871   0.80880   0.00000  Uiso   1.00
H357   H     0.03928   0.76050   0.73421   0.00000  Uiso   1.00
H358   H     0.17149   0.44345   0.49623   0.00000  Uiso   1.00
H359   H     0.57894   0.89069   0.88870   0.00000  Uiso   1.00
O360   O     0.96526   0.82645   0.67415   0.00000  Uiso   1.00
O361   O     0.13873   0.41051   0.36194   0.00000  Uiso   1.00
O362   O     0.67328   0.99727   0.87685   0.00000  Uiso   1.00
N363   N     0.04749   0.82805   0.62671   0.00000  Uiso   1.00
N364   N     0.17109   0.53163   0.40421   0.00000  Uiso   1.00
N365   N     0.55202   0.94974   0.77113   0.00000  Uiso   1.00
N366   N     0.05195   0.77796   0.70066   0.00000  Uiso   1.00
N367   N     0.17555   0.48154   0.47817   0.00000  Uiso   1.00
N368   N     0.55648   0.89965   0.84508   0.00000  Uiso   1.00
C369   C     0.87528   0.25209   0.70370   0.00000  Uiso   1.00
C370   C     0.95666   0.25628   0.72614   0.00000  Uiso   1.00
C371   C     0.98227   0.21230   0.75245   0.00000  Uiso   1.00
C372   C     0.05880   0.22472   0.76994   0.00000  Uiso   1.00
C373   C     0.17768   0.22292   0.80606   0.00000  Uiso   1.00
C374   C     0.83972   0.24217   0.62609   0.00000  Uiso   1.00
C375   C     0.76700   0.18632   0.56828   0.00000  Uiso   1.00
C376   C     0.74509   0.18687   0.50155   0.00000  Uiso   1.00
C377   C     0.68239   0.16318   0.38236   0.00000  Uiso   1.00
C378   C     0.89139   0.32655   0.74808   0.00000  Uiso   1.00
C379   C     0.86210   0.34164   0.79282   0.00000  Uiso   1.00
C380   C     0.88368   0.41324   0.82878   0.00000  Uiso   1.00
C381   C     0.90121   0.52056   0.89899   0.00000  Uiso   1.00
C382   C     0.96565   0.35238   0.68800   0.00000  Uiso   1.00
C383   C     0.00574   0.31076   0.71761   0.00000  Uiso   1.00
C384   C     0.08226   0.32326   0.73508   0.00000  Uiso   1.00
C385   C     0.10798   0.27930   0.76140   0.00000  Uiso   1.00
C386   C     0.88880   0.29664   0.61757   0.00000  Uiso   1.00
C387   C     0.86699   0.29728   0.55091   0.00000  Uiso   1.00
C388   C     0.79426   0.24144   0.49301   0.00000  Uiso   1.00
C389   C     0.94048   0.38102   0.73956   0.00000  Uiso   1.00
C390   C     0.96209   0.45261   0.77545   0.00000  Uiso   1.00
C391   C     0.93285   0.46781   0.82024   0.00000  Uiso   1.00
H392   H     0.83706   0.20968   0.71033   0.00000  Uiso   1.00
H393   H     0.94426   0.17014   0.75903   0.00000  Uiso   1.00
H394   H     0.72902   0.14417   0.57490   0.00000  Uiso   1.00
H395   H     0.82412   0.29947   0.79940   0.00000  Uiso   1.00
H396   H     0.08475   0.15031   0.80924   0.00000  Uiso   1.00
H397   H     0.63090   0.09557   0.42099   0.00000  Uiso   1.00
H398   H     0.83142   0.42305   0.89440   0.00000  Uiso   1.00
H399   H     0.00387   0.39480   0.68135   0.00000  Uiso   1.00
H400   H     0.12023   0.36542   0.72847   0.00000  Uiso   1.00
H401   H     0.90499   0.33944   0.54433   0.00000  Uiso   1.00
H402   H     0.00008   0.49475   0.76884   0.00000  Uiso   1.00
H403   H     0.22757   0.30880   0.78443   0.00000  Uiso   1.00
H404   H     0.77371   0.25406   0.39618   0.00000  Uiso   1.00
H405   H     0.97424   0.58154   0.86960   0.00000  Uiso   1.00
O406   O     0.22969   0.20687   0.82833   0.00000  Uiso   1.00
O407   O     0.63424   0.13506   0.31896   0.00000  Uiso   1.00
O408   O     0.89733   0.56471   0.94007   0.00000  Uiso   1.00
N409   N     0.10240   0.19165   0.79695   0.00000  Uiso   1.00
N410   N     0.67808   0.14046   0.43395   0.00000  Uiso   1.00
N411   N     0.86553   0.44663   0.87654   0.00000  Uiso   1.00
N412   N     0.17925   0.27694   0.78360   0.00000  Uiso   1.00
N413   N     0.75493   0.22575   0.42061   0.00000  Uiso   1.00
N414   N     0.94238   0.53192   0.86320   0.00000  Uiso   1.00
C415   C     0.86594   0.00583   0.13065   0.00000  Uiso   1.00
C416   C     0.86226   0.07133   0.16996   0.00000  Uiso   1.00
C417   C     0.80479   0.06975   0.18757   0.00000  Uiso   1.00
C418   C     0.81187   0.13552   0.22354   0.00000  Uiso   1.00
C419   C     0.79665   0.22734   0.28185   0.00000  Uiso   1.00
C420   C     0.86653   0.01276   0.06484   0.00000  Uiso   1.00
C421   C     0.81266   0.96193   0.99407   0.00000  Uiso   1.00
C422   C     0.82336   0.97838   0.94155   0.00000  Uiso   1.00
C423   C     0.81481   0.97925   0.83666   0.00000  Uiso   1.00
C424   C     0.94768   0.01536   0.17947   0.00000  Uiso   1.00
C425   C     0.96205   0.96670   0.20507   0.00000  Uiso   1.00
C426   C     0.04106   0.98534   0.24906   0.00000  Uiso   1.00
C427   C     0.15850   0.99024   0.32215   0.00000  Uiso   1.00
C428   C     0.98072   0.12543   0.16321   0.00000  Uiso   1.00
C429   C     0.92460   0.13629   0.18764   0.00000  Uiso   1.00
C430   C     0.93178   0.20208   0.22360   0.00000  Uiso   1.00
C431   C     0.87433   0.20060   0.24126   0.00000  Uiso   1.00
C432   C     0.92887   0.07772   0.08252   0.00000  Uiso   1.00
C433   C     0.93965   0.09425   0.03010   0.00000  Uiso   1.00
C434   C     0.88581   0.04346   0.95927   0.00000  Uiso   1.00
C435   C     0.01003   0.08032   0.19716   0.00000  Uiso   1.00
C436   C     0.08903   0.09903   0.24110   0.00000  Uiso   1.00
C437   C     0.10352   0.05042   0.26677   0.00000  Uiso   1.00
H438   H     0.81740   0.95525   0.11688   0.00000  Uiso   1.00
H439   H     0.75655   0.01947   0.17387   0.00000  Uiso   1.00
H440   H     0.76443   0.91166   0.98040   0.00000  Uiso   1.00
H441   H     0.91379   0.91644   0.19138   0.00000  Uiso   1.00
H442   H     0.71655   0.11931   0.24483   0.00000  Uiso   1.00
H443   H     0.73319   0.89198   0.83689   0.00000  Uiso   1.00
H444   H     0.04814   0.90206   0.28177   0.00000  Uiso   1.00
H445   H     0.02926   0.17600   0.17698   0.00000  Uiso   1.00
H446   H     0.98003   0.25234   0.23728   0.00000  Uiso   1.00
H447   H     0.98791   0.14452   0.04380   0.00000  Uiso   1.00
H448   H     0.13726   0.14931   0.25478   0.00000  Uiso   1.00
H449   H     0.89794   0.30832   0.29629   0.00000  Uiso   1.00
H450   H     0.91457   0.08098   0.88835   0.00000  Uiso   1.00
H451   H     0.22952   0.09106   0.33323   0.00000  Uiso   1.00
O452   O     0.77102   0.26005   0.30911   0.00000  Uiso   1.00
O453   O     0.79286   0.96178   0.77392   0.00000  Uiso   1.00
O454   O     0.20606   0.97501   0.35759   0.00000  Uiso   1.00
N455   N     0.76601   0.15332   0.24868   0.00000  Uiso   1.00
N456   N     0.78155   0.94078   0.86728   0.00000  Uiso   1.00
N457   N     0.07600   0.95019   0.28319   0.00000  Uiso   1.00
N458   N     0.86361   0.25502   0.27637   0.00000  Uiso   1.00
N459   N     0.87915   0.04248   0.89497   0.00000  Uiso   1.00
N460   N     0.17361   0.05190   0.31088   0.00000  Uiso   1.00
C461   C     0.29568   0.20573   0.00945   0.00000  Uiso   1.00
C462   C     0.37448   0.20445   0.04380   0.00000  Uiso   1.00
C463   C     0.41067   0.18386   0.00791   0.00000  Uiso   1.00
C464   C     0.48264   0.18643   0.04897   0.00000  Uiso   1.00
C465   C     0.59973   0.18101   0.09100   0.00000  Uiso   1.00
C466   C     0.24257   0.15864   0.02904   0.00000  Uiso   1.00
C467   C     0.16784   0.09953   0.98073   0.00000  Uiso   1.00
C468   C     0.12877   0.06355   0.00936   0.00000  Uiso   1.00
C469   C     0.04104   0.98703   0.02848   0.00000  Uiso   1.00
C470   C     0.31348   0.28231   0.04923   0.00000  Uiso   1.00
C471   C     0.29835   0.32719   0.01790   0.00000  Uiso   1.00
C472   C     0.31896   0.39532   0.06353   0.00000  Uiso   1.00
C473   C     0.34133   0.51082   0.11400   0.00000  Uiso   1.00
C474   C     0.35914   0.24691   0.14621   0.00000  Uiso   1.00
C475   C     0.40895   0.22682   0.11808   0.00000  Uiso   1.00
C476   C     0.48088   0.22942   0.15921   0.00000  Uiso   1.00
C477   C     0.51717   0.20884   0.12338   0.00000  Uiso   1.00
C478   C     0.27704   0.18100   0.10332   0.00000  Uiso   1.00
C479   C     0.23806   0.14510   0.13203   0.00000  Uiso   1.00
C480   C     0.16330   0.08595   0.08378   0.00000  Uiso   1.00
C481   C     0.34795   0.30468   0.12351   0.00000  Uiso   1.00
C482   C     0.36857   0.37275   0.16920   0.00000  Uiso   1.00
C483   C     0.35349   0.41773   0.13795   0.00000  Uiso   1.00
H484   H     0.26884   0.18831   0.95162   0.00000  Uiso   1.00
H485   H     0.38397   0.16655   0.95042   0.00000  Uiso   1.00
H486   H     0.14118   0.08224   0.92325   0.00000  Uiso   1.00
H487   H     0.27168   0.30986   0.96041   0.00000  Uiso   1.00
H488   H     0.52680   0.15226   0.98184   0.00000  Uiso   1.00
H489   H     0.01486   0.97451   0.92455   0.00000  Uiso   1.00
H490   H     0.29003   0.45449   0.00292   0.00000  Uiso   1.00
H491   H     0.38598   0.26432   0.20404   0.00000  Uiso   1.00
H492   H     0.50754   0.24673   0.21669   0.00000  Uiso   1.00
H493   H     0.26475   0.16242   0.18952   0.00000  Uiso   1.00
H494   H     0.39525   0.39004   0.22668   0.00000  Uiso   1.00
H495   H     0.62709   0.21734   0.19796   0.00000  Uiso   1.00
H496   H     0.11515   0.03959   0.14066   0.00000  Uiso   1.00
H497   H     0.39032   0.51956   0.21903   0.00000  Uiso   1.00
O498   O     0.65479   0.17184   0.09366   0.00000  Uiso   1.00
O499   O     0.98313   0.93864   0.01850   0.00000  Uiso   1.00
O500   O     0.34415   0.56836   0.12131   0.00000  Uiso   1.00
N501   N     0.53373   0.17001   0.03097   0.00000  Uiso   1.00
N502   N     0.05510   0.00381   0.97740   0.00000  Uiso   1.00
N503   N     0.31234   0.45254   0.05067   0.00000  Uiso   1.00
N504   N     0.58770   0.20502   0.14726   0.00000  Uiso   1.00
N505   N     0.10906   0.03883   0.09369   0.00000  Uiso   1.00
N506   N     0.36631   0.48756   0.16696   0.00000  Uiso   1.00
C507   C     0.26124   0.73038   0.07174   0.00000  Uiso   1.00
C508   C     0.24526   0.70792   0.12583   0.00000  Uiso   1.00
C509   C     0.22862   0.64118   0.12632   0.00000  Uiso   1.00
C510   C     0.21576   0.63124   0.18029   0.00000  Uiso   1.00
C511   C     0.19036   0.58801   0.25641   0.00000  Uiso   1.00
C512   C     0.20070   0.75490   0.03872   0.00000  Uiso   1.00
C513   C     0.14660   0.72767   0.96597   0.00000  Uiso   1.00
C514   C     0.09624   0.75728   0.94662   0.00000  Uiso   1.00
C515   C     0.00170   0.78703   0.88750   0.00000  Uiso   1.00
C516   C     0.34236   0.79755   0.11574   0.00000  Uiso   1.00
C517   C     0.40737   0.80619   0.10773   0.00000  Uiso   1.00
C518   C     0.47627   0.87172   0.15320   0.00000  Uiso   1.00
C519   C     0.60168   0.96767   0.21366   0.00000  Uiso   1.00
C520   C     0.26799   0.83141   0.16671   0.00000  Uiso   1.00
C521   C     0.24893   0.76280   0.17742   0.00000  Uiso   1.00
C522   C     0.23610   0.75296   0.23140   0.00000  Uiso   1.00
C523   C     0.21944   0.68621   0.23197   0.00000  Uiso   1.00
C524   C     0.20437   0.80977   0.09031   0.00000  Uiso   1.00
C525   C     0.15408   0.83944   0.07105   0.00000  Uiso   1.00
C526   C     0.09991   0.81226   0.99830   0.00000  Uiso   1.00
C527   C     0.34604   0.85243   0.16733   0.00000  Uiso   1.00
C528   C     0.41485   0.91796   0.21281   0.00000  Uiso   1.00
C529   C     0.47995   0.92669   0.20488   0.00000  Uiso   1.00
H530   H     0.25837   0.68766   0.03157   0.00000  Uiso   1.00
H531   H     0.22578   0.59873   0.08638   0.00000  Uiso   1.00
H532   H     0.14378   0.68521   0.92606   0.00000  Uiso   1.00
H533   H     0.40451   0.76371   0.06780   0.00000  Uiso   1.00
H534   H     0.19123   0.52432   0.16988   0.00000  Uiso   1.00
H535   H     0.01835   0.70668   0.83184   0.00000  Uiso   1.00
H536   H     0.56815   0.87222   0.13072   0.00000  Uiso   1.00
H537   H     0.27085   0.87413   0.20688   0.00000  Uiso   1.00
H538   H     0.23894   0.79543   0.27131   0.00000  Uiso   1.00
H539   H     0.15694   0.88191   0.11099   0.00000  Uiso   1.00
H540   H     0.41767   0.96041   0.25273   0.00000  Uiso   1.00
H541   H     0.20191   0.68397   0.31998   0.00000  Uiso   1.00
H542   H     0.02903   0.86634   0.98193   0.00000  Uiso   1.00
H543   H     0.57883   0.03187   0.28082   0.00000  Uiso   1.00
O544   O     0.17533   0.54900   0.28414   0.00000  Uiso   1.00
O545   O     0.94853   0.78826   0.84064   0.00000  Uiso   1.00
O546   O     0.66985   0.00544   0.23277   0.00000  Uiso   1.00
N547   N     0.19814   0.57270   0.19638   0.00000  Uiso   1.00
N548   N     0.03650   0.74319   0.88033   0.00000  Uiso   1.00
N549   N     0.55051   0.89796   0.15974   0.00000  Uiso   1.00
N550   N     0.20389   0.65861   0.27714   0.00000  Uiso   1.00
N551   N     0.04224   0.82910   0.96109   0.00000  Uiso   1.00
N552   N     0.55625   0.98387   0.24051   0.00000  Uiso   1.00
