data_job_02579
_audit_creation_date              2018-12-19
_audit_creation_method            'Materials Studio'
_symmetry_space_group_name_H-M    'P1'
_symmetry_Int_Tables_number       1
_symmetry_cell_setting            triclinic
loop_
_symmetry_equiv_pos_as_xyz
  x,y,z
_cell_length_a                    9.8251
_cell_length_b                    12.4915
_cell_length_c                    18.6046
_cell_angle_alpha                 75.5188
_cell_angle_beta                  104.8283
_cell_angle_gamma                 85.2103
loop_
_atom_site_label
_atom_site_type_symbol
_atom_site_fract_x
_atom_site_fract_y
_atom_site_fract_z
_atom_site_U_iso_or_equiv
_atom_site_adp_type
_atom_site_occupancy
C1     C     0.65418   0.99056   0.80996   0.00000  Uiso   1.00
C2     C     0.57728   0.88903   0.81475   0.00000  Uiso   1.00
C3     C     0.59449   0.80169   0.88094   0.00000  Uiso   1.00
C4     C     0.51442   0.71657   0.87331   0.00000  Uiso   1.00
C5     C     0.40934   0.55855   0.89158   0.00000  Uiso   1.00
C6     C     0.72908   0.99252   0.74737   0.00000  Uiso   1.00
C7     C     0.87392   0.99221   0.75691   0.00000  Uiso   1.00
C8     C     0.92163   0.99422   0.69256   0.00000  Uiso   1.00
C9     C     0.05221   0.99694   0.60621   0.00000  Uiso   1.00
C10    C     0.53778   0.09297   0.77782   0.00000  Uiso   1.00
C11    C     0.52178   0.17715   0.81295   0.00000  Uiso   1.00
C12    C     0.40844   0.26376   0.77422   0.00000  Uiso   1.00
C13    C     0.24199   0.42245   0.73515   0.00000  Uiso   1.00
C14    C     0.48137   0.99470   0.67872   0.00000  Uiso   1.00
C15    C     0.48342   0.89128   0.74346   0.00000  Uiso   1.00
C16    C     0.40329   0.80627   0.73573   0.00000  Uiso   1.00
C17    C     0.42038   0.71883   0.80190   0.00000  Uiso   1.00
C18    C     0.63522   0.99477   0.67609   0.00000  Uiso   1.00
C19    C     0.68273   0.99679   0.61170   0.00000  Uiso   1.00
C20    C     0.82760   0.99647   0.62115   0.00000  Uiso   1.00
C21    C     0.44391   0.09522   0.70653   0.00000  Uiso   1.00
C22    C     0.33058   0.18172   0.66774   0.00000  Uiso   1.00
C23    C     0.31441   0.26601   0.70281   0.00000  Uiso   1.00
H24    H     0.72727   0.98881   0.86546   0.00000  Uiso   1.00
H25    H     0.66715   0.79998   0.93609   0.00000  Uiso   1.00
H26    H     0.94653   0.99048   0.81208   0.00000  Uiso   1.00
H27    H     0.59444   0.17538   0.86811   0.00000  Uiso   1.00
H28    H     0.55915   0.59159   0.98296   0.00000  Uiso   1.00
H29    H     0.14823   0.99330   0.72147   0.00000  Uiso   1.00
H30    H     0.40578   0.38322   0.83962   0.00000  Uiso   1.00
H31    H     0.40829   0.99646   0.62321   0.00000  Uiso   1.00
H32    H     0.33067   0.80804   0.68056   0.00000  Uiso   1.00
H33    H     0.61006   0.99853   0.55655   0.00000  Uiso   1.00
H34    H     0.25796   0.18344   0.61258   0.00000  Uiso   1.00
H35    H     0.28605   0.59813   0.77556   0.00000  Uiso   1.00
H36    H     0.87514   0.99984   0.51407   0.00000  Uiso   1.00
H37    H     0.13268   0.38976   0.63222   0.00000  Uiso   1.00
O38    O     0.37732   0.47076   0.92135   0.00000  Uiso   1.00
O39    O     0.15017   0.99781   0.57828   0.00000  Uiso   1.00
O40    O     0.17609   0.50936   0.73329   0.00000  Uiso   1.00
N41    N     0.50550   0.61900   0.92629   0.00000  Uiso   1.00
N42    N     0.05627   0.99456   0.68181   0.00000  Uiso   1.00
N43    N     0.36216   0.35911   0.79226   0.00000  Uiso   1.00
N44    N     0.35855   0.62252   0.81468   0.00000  Uiso   1.00
N45    N     0.90931   0.99807   0.57021   0.00000  Uiso   1.00
N46    N     0.21521   0.36263   0.68066   0.00000  Uiso   1.00
C47    C     0.34582   0.00944   0.19004   0.00000  Uiso   1.00
C48    C     0.42272   0.11097   0.18525   0.00000  Uiso   1.00
C49    C     0.40551   0.19831   0.11906   0.00000  Uiso   1.00
C50    C     0.48558   0.28343   0.12669   0.00000  Uiso   1.00
C51    C     0.59066   0.44145   0.10842   0.00000  Uiso   1.00
C52    C     0.27092   0.00748   0.25263   0.00000  Uiso   1.00
C53    C     0.12608   0.00779   0.24309   0.00000  Uiso   1.00
C54    C     0.07837   0.00578   0.30744   0.00000  Uiso   1.00
C55    C     0.94779   0.00306   0.39379   0.00000  Uiso   1.00
C56    C     0.46222   0.90703   0.22218   0.00000  Uiso   1.00
C57    C     0.47822   0.82285   0.18705   0.00000  Uiso   1.00
C58    C     0.59156   0.73624   0.22578   0.00000  Uiso   1.00
C59    C     0.75801   0.57755   0.26485   0.00000  Uiso   1.00
C60    C     0.51863   0.00530   0.32128   0.00000  Uiso   1.00
C61    C     0.51658   0.10872   0.25654   0.00000  Uiso   1.00
C62    C     0.59671   0.19373   0.26427   0.00000  Uiso   1.00
C63    C     0.57962   0.28117   0.19810   0.00000  Uiso   1.00
C64    C     0.36478   0.00523   0.32391   0.00000  Uiso   1.00
C65    C     0.31727   0.00321   0.38830   0.00000  Uiso   1.00
C66    C     0.17240   0.00353   0.37885   0.00000  Uiso   1.00
C67    C     0.55609   0.90478   0.29347   0.00000  Uiso   1.00
C68    C     0.66942   0.81828   0.33226   0.00000  Uiso   1.00
C69    C     0.68559   0.73399   0.29719   0.00000  Uiso   1.00
H70    H     0.27273   0.01119   0.13454   0.00000  Uiso   1.00
H71    H     0.33285   0.20002   0.06391   0.00000  Uiso   1.00
H72    H     0.05347   0.00952   0.18792   0.00000  Uiso   1.00
H73    H     0.40556   0.82462   0.13189   0.00000  Uiso   1.00
H74    H     0.44085   0.40841   0.01704   0.00000  Uiso   1.00
H75    H     0.85177   0.00670   0.27853   0.00000  Uiso   1.00
H76    H     0.59422   0.61678   0.16038   0.00000  Uiso   1.00
H77    H     0.59171   0.00354   0.37679   0.00000  Uiso   1.00
H78    H     0.66933   0.19196   0.31944   0.00000  Uiso   1.00
H79    H     0.38994   0.00147   0.44345   0.00000  Uiso   1.00
H80    H     0.74204   0.81656   0.38742   0.00000  Uiso   1.00
H81    H     0.71395   0.40187   0.22444   0.00000  Uiso   1.00
H82    H     0.12486   0.00016   0.48593   0.00000  Uiso   1.00
H83    H     0.86732   0.61024   0.36778   0.00000  Uiso   1.00
O84    O     0.62268   0.52924   0.07865   0.00000  Uiso   1.00
O85    O     0.84983   0.00219   0.42172   0.00000  Uiso   1.00
O86    O     0.82391   0.49064   0.26671   0.00000  Uiso   1.00
N87    N     0.49450   0.38100   0.07372   0.00000  Uiso   1.00
N88    N     0.94373   0.00544   0.31819   0.00000  Uiso   1.00
N89    N     0.63784   0.64089   0.20774   0.00000  Uiso   1.00
N90    N     0.64145   0.37748   0.18532   0.00000  Uiso   1.00
N91    N     0.09069   0.00193   0.42979   0.00000  Uiso   1.00
N92    N     0.78479   0.63737   0.31934   0.00000  Uiso   1.00
