data_job_00333
_audit_creation_date              2018-12-19
_audit_creation_method            'Materials Studio'
_symmetry_space_group_name_H-M    'P1'
_symmetry_Int_Tables_number       1
_symmetry_cell_setting            triclinic
loop_
_symmetry_equiv_pos_as_xyz
  x,y,z
_cell_length_a                    17.0218
_cell_length_b                    17.0218
_cell_length_c                    17.0359
_cell_angle_alpha                 90.0000
_cell_angle_beta                  90.0000
_cell_angle_gamma                 90.0000
loop_
_atom_site_label
_atom_site_type_symbol
_atom_site_fract_x
_atom_site_fract_y
_atom_site_fract_z
_atom_site_U_iso_or_equiv
_atom_site_adp_type
_atom_site_occupancy
C1     C     0.79267   0.70662   0.95733   0.00000  Uiso   1.00
C2     C     0.73902   0.65926   0.01117   0.00000  Uiso   1.00
C3     C     0.73525   0.57791   0.01507   0.00000  Uiso   1.00
C4     C     0.68232   0.54581   0.06815   0.00000  Uiso   1.00
C5     C     0.60621   0.46502   0.14451   0.00000  Uiso   1.00
C6     C     0.73890   0.76025   0.90984   0.00000  Uiso   1.00
C7     C     0.73504   0.76382   0.82854   0.00000  Uiso   1.00
C8     C     0.68202   0.81676   0.79632   0.00000  Uiso   1.00
C9     C     0.60576   0.89280   0.71536   0.00000  Uiso   1.00
C10    C     0.84025   0.76044   0.01080   0.00000  Uiso   1.00
C11    C     0.92162   0.76418   0.01439   0.00000  Uiso   1.00
C12    C     0.95393   0.81729   0.06716   0.00000  Uiso   1.00
C13    C     0.03504   0.89362   0.14297   0.00000  Uiso   1.00
C14    C     0.70537   0.79429   0.04465   0.00000  Uiso   1.00
C15    C     0.69160   0.70687   0.05860   0.00000  Uiso   1.00
C16    C     0.63867   0.67489   0.11169   0.00000  Uiso   1.00
C17    C     0.63483   0.59351   0.11567   0.00000  Uiso   1.00
C18    C     0.69148   0.80786   0.95727   0.00000  Uiso   1.00
C19    C     0.63846   0.86081   0.92516   0.00000  Uiso   1.00
C20    C     0.63452   0.86446   0.84383   0.00000  Uiso   1.00
C21    C     0.79284   0.80805   0.05824   0.00000  Uiso   1.00
C22    C     0.82503   0.86117   0.11101   0.00000  Uiso   1.00
C23    C     0.90643   0.86499   0.11467   0.00000  Uiso   1.00
H24    H     0.82958   0.66956   0.92040   0.00000  Uiso   1.00
H25    H     0.77195   0.54108   0.97835   0.00000  Uiso   1.00
H26    H     0.77175   0.72697   0.79185   0.00000  Uiso   1.00
H27    H     0.95829   0.72733   0.97767   0.00000  Uiso   1.00
H28    H     0.68713   0.41964   0.06350   0.00000  Uiso   1.00
H29    H     0.68672   0.81162   0.67026   0.00000  Uiso   1.00
H30    H     0.08009   0.81237   0.06210   0.00000  Uiso   1.00
H31    H     0.66845   0.83136   0.08158   0.00000  Uiso   1.00
H32    H     0.60198   0.71176   0.14838   0.00000  Uiso   1.00
H33    H     0.60178   0.89765   0.96188   0.00000  Uiso   1.00
H34    H     0.78832   0.89800   0.14770   0.00000  Uiso   1.00
H35    H     0.54917   0.55817   0.20150   0.00000  Uiso   1.00
H36    H     0.54876   0.95015   0.80826   0.00000  Uiso   1.00
H37    H     0.94214   0.95090   0.20010   0.00000  Uiso   1.00
O38    O     0.57731   0.40731   0.17352   0.00000  Uiso   1.00
O39    O     0.57679   0.92159   0.65760   0.00000  Uiso   1.00
O40    O     0.09288   0.92256   0.17169   0.00000  Uiso   1.00
N41    N     0.66379   0.46865   0.08682   0.00000  Uiso   1.00
N42    N     0.66340   0.83513   0.71916   0.00000  Uiso   1.00
N43    N     0.03117   0.83584   0.08549   0.00000  Uiso   1.00
N44    N     0.58956   0.54319   0.16108   0.00000  Uiso   1.00
N45    N     0.58917   0.90967   0.79342   0.00000  Uiso   1.00
N46    N     0.95694   0.91038   0.15974   0.00000  Uiso   1.00
C47    C     0.29267   0.20662   0.45733   0.00000  Uiso   1.00
C48    C     0.23902   0.15926   0.51117   0.00000  Uiso   1.00
C49    C     0.23525   0.07791   0.51507   0.00000  Uiso   1.00
C50    C     0.18232   0.04581   0.56815   0.00000  Uiso   1.00
C51    C     0.10621   0.96502   0.64451   0.00000  Uiso   1.00
C52    C     0.23890   0.26025   0.40984   0.00000  Uiso   1.00
C53    C     0.23504   0.26382   0.32854   0.00000  Uiso   1.00
C54    C     0.18202   0.31676   0.29632   0.00000  Uiso   1.00
C55    C     0.10576   0.39280   0.21536   0.00000  Uiso   1.00
C56    C     0.34025   0.26044   0.51080   0.00000  Uiso   1.00
C57    C     0.42162   0.26418   0.51439   0.00000  Uiso   1.00
C58    C     0.45393   0.31729   0.56716   0.00000  Uiso   1.00
C59    C     0.53504   0.39362   0.64297   0.00000  Uiso   1.00
C60    C     0.20537   0.29429   0.54465   0.00000  Uiso   1.00
C61    C     0.19160   0.20687   0.55860   0.00000  Uiso   1.00
C62    C     0.13867   0.17489   0.61169   0.00000  Uiso   1.00
C63    C     0.13483   0.09351   0.61567   0.00000  Uiso   1.00
C64    C     0.19148   0.30786   0.45727   0.00000  Uiso   1.00
C65    C     0.13846   0.36081   0.42516   0.00000  Uiso   1.00
C66    C     0.13452   0.36446   0.34383   0.00000  Uiso   1.00
C67    C     0.29284   0.30805   0.55824   0.00000  Uiso   1.00
C68    C     0.32503   0.36117   0.61101   0.00000  Uiso   1.00
C69    C     0.40643   0.36499   0.61467   0.00000  Uiso   1.00
H70    H     0.32958   0.16956   0.42040   0.00000  Uiso   1.00
H71    H     0.27195   0.04108   0.47835   0.00000  Uiso   1.00
H72    H     0.27175   0.22697   0.29185   0.00000  Uiso   1.00
H73    H     0.45829   0.22733   0.47767   0.00000  Uiso   1.00
H74    H     0.18713   0.91964   0.56350   0.00000  Uiso   1.00
H75    H     0.18672   0.31162   0.17026   0.00000  Uiso   1.00
H76    H     0.58009   0.31237   0.56210   0.00000  Uiso   1.00
H77    H     0.16845   0.33136   0.58158   0.00000  Uiso   1.00
H78    H     0.10198   0.21176   0.64838   0.00000  Uiso   1.00
H79    H     0.10178   0.39765   0.46188   0.00000  Uiso   1.00
H80    H     0.28832   0.39800   0.64770   0.00000  Uiso   1.00
H81    H     0.04917   0.05817   0.70150   0.00000  Uiso   1.00
H82    H     0.04876   0.45015   0.30826   0.00000  Uiso   1.00
H83    H     0.44214   0.45090   0.70010   0.00000  Uiso   1.00
O84    O     0.07731   0.90731   0.67352   0.00000  Uiso   1.00
O85    O     0.07679   0.42159   0.15760   0.00000  Uiso   1.00
O86    O     0.59288   0.42256   0.67169   0.00000  Uiso   1.00
N87    N     0.16379   0.96865   0.58682   0.00000  Uiso   1.00
N88    N     0.16340   0.33513   0.21916   0.00000  Uiso   1.00
N89    N     0.53117   0.33584   0.58549   0.00000  Uiso   1.00
N90    N     0.08956   0.04319   0.66108   0.00000  Uiso   1.00
N91    N     0.08917   0.40967   0.29342   0.00000  Uiso   1.00
N92    N     0.45694   0.41038   0.65974   0.00000  Uiso   1.00
C93    C     0.20733   0.29338   0.95733   0.00000  Uiso   1.00
C94    C     0.26098   0.34074   0.01117   0.00000  Uiso   1.00
C95    C     0.26475   0.42209   0.01507   0.00000  Uiso   1.00
C96    C     0.31768   0.45419   0.06815   0.00000  Uiso   1.00
C97    C     0.39379   0.53498   0.14451   0.00000  Uiso   1.00
C98    C     0.26110   0.23975   0.90984   0.00000  Uiso   1.00
C99    C     0.26496   0.23618   0.82854   0.00000  Uiso   1.00
C100   C     0.31798   0.18324   0.79632   0.00000  Uiso   1.00
C101   C     0.39424   0.10720   0.71536   0.00000  Uiso   1.00
C102   C     0.15975   0.23956   0.01080   0.00000  Uiso   1.00
C103   C     0.07838   0.23582   0.01439   0.00000  Uiso   1.00
C104   C     0.04607   0.18271   0.06716   0.00000  Uiso   1.00
C105   C     0.96496   0.10638   0.14297   0.00000  Uiso   1.00
C106   C     0.29463   0.20571   0.04465   0.00000  Uiso   1.00
C107   C     0.30840   0.29313   0.05860   0.00000  Uiso   1.00
C108   C     0.36133   0.32511   0.11169   0.00000  Uiso   1.00
C109   C     0.36517   0.40649   0.11567   0.00000  Uiso   1.00
C110   C     0.30852   0.19214   0.95727   0.00000  Uiso   1.00
C111   C     0.36154   0.13919   0.92516   0.00000  Uiso   1.00
C112   C     0.36548   0.13554   0.84383   0.00000  Uiso   1.00
C113   C     0.20716   0.19195   0.05824   0.00000  Uiso   1.00
C114   C     0.17497   0.13883   0.11101   0.00000  Uiso   1.00
C115   C     0.09357   0.13501   0.11467   0.00000  Uiso   1.00
H116   H     0.17042   0.33044   0.92040   0.00000  Uiso   1.00
H117   H     0.22805   0.45892   0.97835   0.00000  Uiso   1.00
H118   H     0.22825   0.27303   0.79185   0.00000  Uiso   1.00
H119   H     0.04171   0.27267   0.97767   0.00000  Uiso   1.00
H120   H     0.31287   0.58036   0.06350   0.00000  Uiso   1.00
H121   H     0.31328   0.18838   0.67026   0.00000  Uiso   1.00
H122   H     0.91991   0.18763   0.06210   0.00000  Uiso   1.00
H123   H     0.33155   0.16864   0.08158   0.00000  Uiso   1.00
H124   H     0.39802   0.28824   0.14838   0.00000  Uiso   1.00
H125   H     0.39822   0.10235   0.96188   0.00000  Uiso   1.00
H126   H     0.21168   0.10200   0.14770   0.00000  Uiso   1.00
H127   H     0.45083   0.44183   0.20150   0.00000  Uiso   1.00
H128   H     0.45124   0.04985   0.80826   0.00000  Uiso   1.00
H129   H     0.05786   0.04910   0.20010   0.00000  Uiso   1.00
O130   O     0.42269   0.59269   0.17352   0.00000  Uiso   1.00
O131   O     0.42321   0.07841   0.65760   0.00000  Uiso   1.00
O132   O     0.90712   0.07744   0.17169   0.00000  Uiso   1.00
N133   N     0.33621   0.53135   0.08682   0.00000  Uiso   1.00
N134   N     0.33660   0.16487   0.71916   0.00000  Uiso   1.00
N135   N     0.96883   0.16416   0.08549   0.00000  Uiso   1.00
N136   N     0.41044   0.45681   0.16108   0.00000  Uiso   1.00
N137   N     0.41083   0.09033   0.79342   0.00000  Uiso   1.00
N138   N     0.04306   0.08962   0.15974   0.00000  Uiso   1.00
C139   C     0.70733   0.79338   0.45733   0.00000  Uiso   1.00
C140   C     0.76098   0.84074   0.51117   0.00000  Uiso   1.00
C141   C     0.76475   0.92209   0.51507   0.00000  Uiso   1.00
C142   C     0.81768   0.95419   0.56815   0.00000  Uiso   1.00
C143   C     0.89379   0.03498   0.64451   0.00000  Uiso   1.00
C144   C     0.76110   0.73975   0.40984   0.00000  Uiso   1.00
C145   C     0.76496   0.73618   0.32854   0.00000  Uiso   1.00
C146   C     0.81798   0.68324   0.29632   0.00000  Uiso   1.00
C147   C     0.89424   0.60720   0.21536   0.00000  Uiso   1.00
C148   C     0.65975   0.73956   0.51080   0.00000  Uiso   1.00
C149   C     0.57838   0.73582   0.51439   0.00000  Uiso   1.00
C150   C     0.54607   0.68271   0.56716   0.00000  Uiso   1.00
C151   C     0.46496   0.60638   0.64297   0.00000  Uiso   1.00
C152   C     0.79463   0.70571   0.54465   0.00000  Uiso   1.00
C153   C     0.80840   0.79313   0.55860   0.00000  Uiso   1.00
C154   C     0.86133   0.82511   0.61169   0.00000  Uiso   1.00
C155   C     0.86517   0.90649   0.61567   0.00000  Uiso   1.00
C156   C     0.80852   0.69214   0.45727   0.00000  Uiso   1.00
C157   C     0.86154   0.63919   0.42516   0.00000  Uiso   1.00
C158   C     0.86548   0.63554   0.34383   0.00000  Uiso   1.00
C159   C     0.70716   0.69195   0.55824   0.00000  Uiso   1.00
C160   C     0.67497   0.63883   0.61101   0.00000  Uiso   1.00
C161   C     0.59357   0.63501   0.61467   0.00000  Uiso   1.00
H162   H     0.67042   0.83044   0.42040   0.00000  Uiso   1.00
H163   H     0.72805   0.95892   0.47835   0.00000  Uiso   1.00
H164   H     0.72825   0.77303   0.29185   0.00000  Uiso   1.00
H165   H     0.54171   0.77267   0.47767   0.00000  Uiso   1.00
H166   H     0.81287   0.08036   0.56350   0.00000  Uiso   1.00
H167   H     0.81328   0.68838   0.17026   0.00000  Uiso   1.00
H168   H     0.41991   0.68763   0.56210   0.00000  Uiso   1.00
H169   H     0.83155   0.66864   0.58158   0.00000  Uiso   1.00
H170   H     0.89802   0.78824   0.64838   0.00000  Uiso   1.00
H171   H     0.89822   0.60235   0.46188   0.00000  Uiso   1.00
H172   H     0.71168   0.60200   0.64770   0.00000  Uiso   1.00
H173   H     0.95083   0.94183   0.70150   0.00000  Uiso   1.00
H174   H     0.95124   0.54985   0.30826   0.00000  Uiso   1.00
H175   H     0.55786   0.54910   0.70010   0.00000  Uiso   1.00
O176   O     0.92269   0.09269   0.67352   0.00000  Uiso   1.00
O177   O     0.92321   0.57841   0.15760   0.00000  Uiso   1.00
O178   O     0.40712   0.57744   0.67169   0.00000  Uiso   1.00
N179   N     0.83621   0.03135   0.58682   0.00000  Uiso   1.00
N180   N     0.83660   0.66487   0.21916   0.00000  Uiso   1.00
N181   N     0.46883   0.66416   0.58549   0.00000  Uiso   1.00
N182   N     0.91044   0.95681   0.66108   0.00000  Uiso   1.00
N183   N     0.91083   0.59033   0.29342   0.00000  Uiso   1.00
N184   N     0.54306   0.58962   0.65974   0.00000  Uiso   1.00
C185   C     0.70662   0.20733   0.04267   0.00000  Uiso   1.00
C186   C     0.65926   0.26098   0.98883   0.00000  Uiso   1.00
C187   C     0.57791   0.26475   0.98493   0.00000  Uiso   1.00
C188   C     0.54581   0.31768   0.93185   0.00000  Uiso   1.00
C189   C     0.46502   0.39379   0.85549   0.00000  Uiso   1.00
C190   C     0.76025   0.26110   0.09016   0.00000  Uiso   1.00
C191   C     0.76382   0.26496   0.17146   0.00000  Uiso   1.00
C192   C     0.81676   0.31798   0.20368   0.00000  Uiso   1.00
C193   C     0.89280   0.39424   0.28464   0.00000  Uiso   1.00
C194   C     0.76044   0.15975   0.98920   0.00000  Uiso   1.00
C195   C     0.76418   0.07838   0.98561   0.00000  Uiso   1.00
C196   C     0.81729   0.04607   0.93284   0.00000  Uiso   1.00
C197   C     0.89362   0.96496   0.85703   0.00000  Uiso   1.00
C198   C     0.79429   0.29463   0.95535   0.00000  Uiso   1.00
C199   C     0.70687   0.30840   0.94140   0.00000  Uiso   1.00
C200   C     0.67489   0.36133   0.88831   0.00000  Uiso   1.00
C201   C     0.59351   0.36517   0.88433   0.00000  Uiso   1.00
C202   C     0.80786   0.30852   0.04273   0.00000  Uiso   1.00
C203   C     0.86081   0.36154   0.07484   0.00000  Uiso   1.00
C204   C     0.86446   0.36548   0.15617   0.00000  Uiso   1.00
C205   C     0.80805   0.20716   0.94176   0.00000  Uiso   1.00
C206   C     0.86117   0.17497   0.88899   0.00000  Uiso   1.00
C207   C     0.86499   0.09357   0.88533   0.00000  Uiso   1.00
H208   H     0.66956   0.17042   0.07960   0.00000  Uiso   1.00
H209   H     0.54108   0.22805   0.02165   0.00000  Uiso   1.00
H210   H     0.72697   0.22825   0.20815   0.00000  Uiso   1.00
H211   H     0.72733   0.04171   0.02233   0.00000  Uiso   1.00
H212   H     0.41964   0.31287   0.93650   0.00000  Uiso   1.00
H213   H     0.81162   0.31328   0.32974   0.00000  Uiso   1.00
H214   H     0.81237   0.91991   0.93790   0.00000  Uiso   1.00
H215   H     0.83136   0.33155   0.91842   0.00000  Uiso   1.00
H216   H     0.71176   0.39802   0.85162   0.00000  Uiso   1.00
H217   H     0.89765   0.39822   0.03812   0.00000  Uiso   1.00
H218   H     0.89800   0.21168   0.85230   0.00000  Uiso   1.00
H219   H     0.55817   0.45083   0.79850   0.00000  Uiso   1.00
H220   H     0.95015   0.45124   0.19174   0.00000  Uiso   1.00
H221   H     0.95090   0.05786   0.79990   0.00000  Uiso   1.00
O222   O     0.40731   0.42269   0.82648   0.00000  Uiso   1.00
O223   O     0.92159   0.42321   0.34240   0.00000  Uiso   1.00
O224   O     0.92256   0.90712   0.82831   0.00000  Uiso   1.00
N225   N     0.46865   0.33621   0.91318   0.00000  Uiso   1.00
N226   N     0.83513   0.33660   0.28084   0.00000  Uiso   1.00
N227   N     0.83584   0.96883   0.91451   0.00000  Uiso   1.00
N228   N     0.54319   0.41044   0.83892   0.00000  Uiso   1.00
N229   N     0.90967   0.41083   0.20658   0.00000  Uiso   1.00
N230   N     0.91038   0.04306   0.84026   0.00000  Uiso   1.00
C231   C     0.20662   0.70733   0.54267   0.00000  Uiso   1.00
C232   C     0.15926   0.76098   0.48883   0.00000  Uiso   1.00
C233   C     0.07791   0.76475   0.48493   0.00000  Uiso   1.00
C234   C     0.04581   0.81768   0.43185   0.00000  Uiso   1.00
C235   C     0.96502   0.89379   0.35549   0.00000  Uiso   1.00
C236   C     0.26025   0.76110   0.59016   0.00000  Uiso   1.00
C237   C     0.26382   0.76496   0.67146   0.00000  Uiso   1.00
C238   C     0.31676   0.81798   0.70368   0.00000  Uiso   1.00
C239   C     0.39280   0.89424   0.78464   0.00000  Uiso   1.00
C240   C     0.26044   0.65975   0.48920   0.00000  Uiso   1.00
C241   C     0.26418   0.57838   0.48561   0.00000  Uiso   1.00
C242   C     0.31729   0.54607   0.43284   0.00000  Uiso   1.00
C243   C     0.39362   0.46496   0.35703   0.00000  Uiso   1.00
C244   C     0.29429   0.79463   0.45535   0.00000  Uiso   1.00
C245   C     0.20687   0.80840   0.44140   0.00000  Uiso   1.00
C246   C     0.17489   0.86133   0.38831   0.00000  Uiso   1.00
C247   C     0.09351   0.86517   0.38433   0.00000  Uiso   1.00
C248   C     0.30786   0.80852   0.54273   0.00000  Uiso   1.00
C249   C     0.36081   0.86154   0.57484   0.00000  Uiso   1.00
C250   C     0.36446   0.86548   0.65617   0.00000  Uiso   1.00
C251   C     0.30805   0.70716   0.44176   0.00000  Uiso   1.00
C252   C     0.36117   0.67497   0.38899   0.00000  Uiso   1.00
C253   C     0.36499   0.59357   0.38533   0.00000  Uiso   1.00
H254   H     0.16956   0.67042   0.57960   0.00000  Uiso   1.00
H255   H     0.04108   0.72805   0.52165   0.00000  Uiso   1.00
H256   H     0.22697   0.72825   0.70815   0.00000  Uiso   1.00
H257   H     0.22733   0.54171   0.52233   0.00000  Uiso   1.00
H258   H     0.91964   0.81287   0.43650   0.00000  Uiso   1.00
H259   H     0.31162   0.81328   0.82974   0.00000  Uiso   1.00
H260   H     0.31237   0.41991   0.43790   0.00000  Uiso   1.00
H261   H     0.33136   0.83155   0.41842   0.00000  Uiso   1.00
H262   H     0.21176   0.89802   0.35162   0.00000  Uiso   1.00
H263   H     0.39765   0.89822   0.53812   0.00000  Uiso   1.00
H264   H     0.39800   0.71168   0.35230   0.00000  Uiso   1.00
H265   H     0.05817   0.95083   0.29850   0.00000  Uiso   1.00
H266   H     0.45015   0.95124   0.69174   0.00000  Uiso   1.00
H267   H     0.45090   0.55786   0.29990   0.00000  Uiso   1.00
O268   O     0.90731   0.92269   0.32648   0.00000  Uiso   1.00
O269   O     0.42159   0.92321   0.84240   0.00000  Uiso   1.00
O270   O     0.42256   0.40712   0.32831   0.00000  Uiso   1.00
N271   N     0.96865   0.83621   0.41318   0.00000  Uiso   1.00
N272   N     0.33513   0.83660   0.78084   0.00000  Uiso   1.00
N273   N     0.33584   0.46883   0.41451   0.00000  Uiso   1.00
N274   N     0.04319   0.91044   0.33892   0.00000  Uiso   1.00
N275   N     0.40967   0.91083   0.70658   0.00000  Uiso   1.00
N276   N     0.41038   0.54306   0.34026   0.00000  Uiso   1.00
C277   C     0.29338   0.79267   0.04267   0.00000  Uiso   1.00
C278   C     0.34074   0.73902   0.98883   0.00000  Uiso   1.00
C279   C     0.42209   0.73525   0.98493   0.00000  Uiso   1.00
C280   C     0.45419   0.68232   0.93185   0.00000  Uiso   1.00
C281   C     0.53498   0.60621   0.85549   0.00000  Uiso   1.00
C282   C     0.23975   0.73890   0.09016   0.00000  Uiso   1.00
C283   C     0.23618   0.73504   0.17146   0.00000  Uiso   1.00
C284   C     0.18324   0.68202   0.20368   0.00000  Uiso   1.00
C285   C     0.10720   0.60576   0.28464   0.00000  Uiso   1.00
C286   C     0.23956   0.84025   0.98920   0.00000  Uiso   1.00
C287   C     0.23582   0.92162   0.98561   0.00000  Uiso   1.00
C288   C     0.18271   0.95393   0.93284   0.00000  Uiso   1.00
C289   C     0.10638   0.03504   0.85703   0.00000  Uiso   1.00
C290   C     0.20571   0.70537   0.95535   0.00000  Uiso   1.00
C291   C     0.29313   0.69160   0.94140   0.00000  Uiso   1.00
C292   C     0.32511   0.63867   0.88831   0.00000  Uiso   1.00
C293   C     0.40649   0.63483   0.88433   0.00000  Uiso   1.00
C294   C     0.19214   0.69148   0.04273   0.00000  Uiso   1.00
C295   C     0.13919   0.63846   0.07484   0.00000  Uiso   1.00
C296   C     0.13554   0.63452   0.15617   0.00000  Uiso   1.00
C297   C     0.19195   0.79284   0.94176   0.00000  Uiso   1.00
C298   C     0.13883   0.82503   0.88899   0.00000  Uiso   1.00
C299   C     0.13501   0.90643   0.88533   0.00000  Uiso   1.00
H300   H     0.33044   0.82958   0.07960   0.00000  Uiso   1.00
H301   H     0.45892   0.77195   0.02165   0.00000  Uiso   1.00
H302   H     0.27303   0.77175   0.20815   0.00000  Uiso   1.00
H303   H     0.27267   0.95829   0.02233   0.00000  Uiso   1.00
H304   H     0.58036   0.68713   0.93650   0.00000  Uiso   1.00
H305   H     0.18838   0.68672   0.32974   0.00000  Uiso   1.00
H306   H     0.18763   0.08009   0.93790   0.00000  Uiso   1.00
H307   H     0.16864   0.66845   0.91842   0.00000  Uiso   1.00
H308   H     0.28824   0.60198   0.85162   0.00000  Uiso   1.00
H309   H     0.10235   0.60178   0.03812   0.00000  Uiso   1.00
H310   H     0.10200   0.78832   0.85230   0.00000  Uiso   1.00
H311   H     0.44183   0.54917   0.79850   0.00000  Uiso   1.00
H312   H     0.04985   0.54876   0.19174   0.00000  Uiso   1.00
H313   H     0.04910   0.94214   0.79990   0.00000  Uiso   1.00
O314   O     0.59269   0.57731   0.82648   0.00000  Uiso   1.00
O315   O     0.07841   0.57679   0.34240   0.00000  Uiso   1.00
O316   O     0.07744   0.09288   0.82831   0.00000  Uiso   1.00
N317   N     0.53135   0.66379   0.91318   0.00000  Uiso   1.00
N318   N     0.16487   0.66340   0.28084   0.00000  Uiso   1.00
N319   N     0.16416   0.03117   0.91451   0.00000  Uiso   1.00
N320   N     0.45681   0.58956   0.83892   0.00000  Uiso   1.00
N321   N     0.09033   0.58917   0.20658   0.00000  Uiso   1.00
N322   N     0.08962   0.95694   0.84026   0.00000  Uiso   1.00
C323   C     0.79338   0.29267   0.54267   0.00000  Uiso   1.00
C324   C     0.84074   0.23902   0.48883   0.00000  Uiso   1.00
C325   C     0.92209   0.23525   0.48493   0.00000  Uiso   1.00
C326   C     0.95419   0.18232   0.43185   0.00000  Uiso   1.00
C327   C     0.03498   0.10621   0.35549   0.00000  Uiso   1.00
C328   C     0.73975   0.23890   0.59016   0.00000  Uiso   1.00
C329   C     0.73618   0.23504   0.67146   0.00000  Uiso   1.00
C330   C     0.68324   0.18202   0.70368   0.00000  Uiso   1.00
C331   C     0.60720   0.10576   0.78464   0.00000  Uiso   1.00
C332   C     0.73956   0.34025   0.48920   0.00000  Uiso   1.00
C333   C     0.73582   0.42162   0.48561   0.00000  Uiso   1.00
C334   C     0.68271   0.45393   0.43284   0.00000  Uiso   1.00
C335   C     0.60638   0.53504   0.35703   0.00000  Uiso   1.00
C336   C     0.70571   0.20537   0.45535   0.00000  Uiso   1.00
C337   C     0.79313   0.19160   0.44140   0.00000  Uiso   1.00
C338   C     0.82511   0.13867   0.38831   0.00000  Uiso   1.00
C339   C     0.90649   0.13483   0.38433   0.00000  Uiso   1.00
C340   C     0.69214   0.19148   0.54273   0.00000  Uiso   1.00
C341   C     0.63919   0.13846   0.57484   0.00000  Uiso   1.00
C342   C     0.63554   0.13452   0.65617   0.00000  Uiso   1.00
C343   C     0.69195   0.29284   0.44176   0.00000  Uiso   1.00
C344   C     0.63883   0.32503   0.38899   0.00000  Uiso   1.00
C345   C     0.63501   0.40643   0.38533   0.00000  Uiso   1.00
H346   H     0.83044   0.32958   0.57960   0.00000  Uiso   1.00
H347   H     0.95892   0.27195   0.52165   0.00000  Uiso   1.00
H348   H     0.77303   0.27175   0.70815   0.00000  Uiso   1.00
H349   H     0.77267   0.45829   0.52233   0.00000  Uiso   1.00
H350   H     0.08036   0.18713   0.43650   0.00000  Uiso   1.00
H351   H     0.68838   0.18672   0.82974   0.00000  Uiso   1.00
H352   H     0.68763   0.58009   0.43790   0.00000  Uiso   1.00
H353   H     0.66864   0.16845   0.41842   0.00000  Uiso   1.00
H354   H     0.78824   0.10198   0.35162   0.00000  Uiso   1.00
H355   H     0.60235   0.10178   0.53812   0.00000  Uiso   1.00
H356   H     0.60200   0.28832   0.35230   0.00000  Uiso   1.00
H357   H     0.94183   0.04917   0.29850   0.00000  Uiso   1.00
H358   H     0.54985   0.04876   0.69174   0.00000  Uiso   1.00
H359   H     0.54910   0.44214   0.29990   0.00000  Uiso   1.00
O360   O     0.09269   0.07731   0.32648   0.00000  Uiso   1.00
O361   O     0.57841   0.07679   0.84240   0.00000  Uiso   1.00
O362   O     0.57744   0.59288   0.32831   0.00000  Uiso   1.00
N363   N     0.03135   0.16379   0.41318   0.00000  Uiso   1.00
N364   N     0.66487   0.16340   0.78084   0.00000  Uiso   1.00
N365   N     0.66416   0.53117   0.41451   0.00000  Uiso   1.00
N366   N     0.95681   0.08956   0.33892   0.00000  Uiso   1.00
N367   N     0.59033   0.08917   0.70658   0.00000  Uiso   1.00
N368   N     0.58962   0.45694   0.34026   0.00000  Uiso   1.00
