data_job_06257
_audit_creation_date              2018-12-19
_audit_creation_method            'Materials Studio'
_symmetry_space_group_name_H-M    'P1'
_symmetry_Int_Tables_number       1
_symmetry_cell_setting            triclinic
loop_
_symmetry_equiv_pos_as_xyz
  x,y,z
_cell_length_a                    16.7595
_cell_length_b                    16.4759
_cell_length_c                    15.7201
_cell_angle_alpha                 97.9882
_cell_angle_beta                  97.6074
_cell_angle_gamma                 95.7484
loop_
_atom_site_label
_atom_site_type_symbol
_atom_site_fract_x
_atom_site_fract_y
_atom_site_fract_z
_atom_site_U_iso_or_equiv
_atom_site_adp_type
_atom_site_occupancy
C1     C     0.52246   0.08695   0.21967   0.00000  Uiso   1.00
C2     C     0.44345   0.06747   0.15630   0.00000  Uiso   1.00
C3     C     0.42724   0.09819   0.07880   0.00000  Uiso   1.00
C4     C     0.35130   0.07297   0.02999   0.00000  Uiso   1.00
C5     C     0.23737   0.05097   0.92739   0.00000  Uiso   1.00
C6     C     0.49923   0.12129   0.30699   0.00000  Uiso   1.00
C7     C     0.52993   0.19727   0.35618   0.00000  Uiso   1.00
C8     C     0.50096   0.21735   0.43423   0.00000  Uiso   1.00
C9     C     0.47367   0.27889   0.56560   0.00000  Uiso   1.00
C10    C     0.55204   0.00396   0.23079   0.00000  Uiso   1.00
C11    C     0.62714   0.98128   0.21594   0.00000  Uiso   1.00
C12    C     0.64264   0.90258   0.22986   0.00000  Uiso   1.00
C13    C     0.69735   0.78194   0.24292   0.00000  Uiso   1.00
C14    C     0.41645   0.98752   0.27083   0.00000  Uiso   1.00
C15    C     0.38588   0.01347   0.18409   0.00000  Uiso   1.00
C16    C     0.30995   0.98819   0.13539   0.00000  Uiso   1.00
C17    C     0.29362   0.01887   0.05782   0.00000  Uiso   1.00
C18    C     0.44166   0.06729   0.33477   0.00000  Uiso   1.00
C19    C     0.41264   0.08727   0.41277   0.00000  Uiso   1.00
C20    C     0.44328   0.16325   0.46207   0.00000  Uiso   1.00
C21    C     0.49446   0.94995   0.25857   0.00000  Uiso   1.00
C22    C     0.50985   0.87128   0.27253   0.00000  Uiso   1.00
C23    C     0.58496   0.84848   0.25769   0.00000  Uiso   1.00
H24    H     0.56729   0.12900   0.19805   0.00000  Uiso   1.00
H25    H     0.47181   0.13999   0.05732   0.00000  Uiso   1.00
H26    H     0.57449   0.23904   0.33467   0.00000  Uiso   1.00
H27    H     0.67168   0.02309   0.19444   0.00000  Uiso   1.00
H28    H     0.34055   0.12839   0.91357   0.00000  Uiso   1.00
H29    H     0.55708   0.33724   0.49838   0.00000  Uiso   1.00
H30    H     0.76204   0.88185   0.20269   0.00000  Uiso   1.00
H31    H     0.37163   0.94548   0.29246   0.00000  Uiso   1.00
H32    H     0.26541   0.94640   0.15690   0.00000  Uiso   1.00
H33    H     0.36809   0.04546   0.43426   0.00000  Uiso   1.00
H34    H     0.46528   0.82950   0.29403   0.00000  Uiso   1.00
H35    H     0.17302   0.97126   0.99439   0.00000  Uiso   1.00
H36    H     0.38956   0.18012   0.57921   0.00000  Uiso   1.00
H37    H     0.59451   0.72473   0.28352   0.00000  Uiso   1.00
O38    O     0.19043   0.05376   0.86312   0.00000  Uiso   1.00
O39    O     0.47452   0.32776   0.63038   0.00000  Uiso   1.00
O40    O     0.74342   0.73031   0.24243   0.00000  Uiso   1.00
N41    N     0.31570   0.09127   0.95118   0.00000  Uiso   1.00
N42    N     0.51814   0.28654   0.49794   0.00000  Uiso   1.00
N43    N     0.70977   0.86080   0.22152   0.00000  Uiso   1.00
N44    N     0.22556   0.00672   0.99468   0.00000  Uiso   1.00
N45    N     0.42799   0.20199   0.54144   0.00000  Uiso   1.00
N46    N     0.61962   0.77625   0.26501   0.00000  Uiso   1.00
C47    C     0.23579   0.52066   0.07756   0.00000  Uiso   1.00
C48    C     0.17799   0.44063   0.05543   0.00000  Uiso   1.00
C49    C     0.10543   0.42549   0.08723   0.00000  Uiso   1.00
C50    C     0.06127   0.34833   0.05917   0.00000  Uiso   1.00
C51    C     0.96737   0.23314   0.03364   0.00000  Uiso   1.00
C52    C     0.31777   0.49665   0.11325   0.00000  Uiso   1.00
C53    C     0.36273   0.52862   0.19366   0.00000  Uiso   1.00
C54    C     0.43624   0.49862   0.21426   0.00000  Uiso   1.00
C55    C     0.55936   0.47045   0.27847   0.00000  Uiso   1.00
C56    C     0.24630   0.54926   0.99109   0.00000  Uiso   1.00
C57    C     0.23119   0.62547   0.96879   0.00000  Uiso   1.00
C58    C     0.24455   0.63977   0.88655   0.00000  Uiso   1.00
C59    C     0.25671   0.69327   0.76109   0.00000  Uiso   1.00
C60    C     0.28640   0.41056   0.97117   0.00000  Uiso   1.00
C61    C     0.20549   0.38083   0.99765   0.00000  Uiso   1.00
C62    C     0.16143   0.30367   0.96953   0.00000  Uiso   1.00
C63    C     0.08881   0.28842   0.00128   0.00000  Uiso   1.00
C64    C     0.34526   0.43685   0.05547   0.00000  Uiso   1.00
C65    C     0.41872   0.40680   0.07595   0.00000  Uiso   1.00
C66    C     0.46378   0.43871   0.15637   0.00000  Uiso   1.00
C67    C     0.27379   0.48945   0.93331   0.00000  Uiso   1.00
C68    C     0.28718   0.50365   0.85109   0.00000  Uiso   1.00
C69    C     0.27209   0.57986   0.82866   0.00000  Uiso   1.00
H70    H     0.21439   0.56722   0.12255   0.00000  Uiso   1.00
H71    H     0.08418   0.47178   0.13196   0.00000  Uiso   1.00
H72    H     0.34144   0.57490   0.23836   0.00000  Uiso   1.00
H73    H     0.20992   0.67173   0.01352   0.00000  Uiso   1.00
H74    H     0.95196   0.33958   0.11693   0.00000  Uiso   1.00
H75    H     0.49441   0.55704   0.34127   0.00000  Uiso   1.00
H76    H     0.21708   0.76122   0.86717   0.00000  Uiso   1.00
H77    H     0.30781   0.36400   0.92619   0.00000  Uiso   1.00
H78    H     0.18272   0.25741   0.92481   0.00000  Uiso   1.00
H79    H     0.43998   0.36053   0.03122   0.00000  Uiso   1.00
H80    H     0.30846   0.45735   0.80639   0.00000  Uiso   1.00
H81    H     0.03193   0.16559   0.94881   0.00000  Uiso   1.00
H82    H     0.57440   0.38305   0.17315   0.00000  Uiso   1.00
H83    H     0.29706   0.58722   0.69905   0.00000  Uiso   1.00
O84    O     0.90798   0.18612   0.03553   0.00000  Uiso   1.00
O85    O     0.61967   0.47143   0.32985   0.00000  Uiso   1.00
O86    O     0.25581   0.73930   0.70784   0.00000  Uiso   1.00
N87    N     0.98794   0.31327   0.07754   0.00000  Uiso   1.00
N88    N     0.49510   0.51657   0.28729   0.00000  Uiso   1.00
N89    N     0.23583   0.70747   0.84405   0.00000  Uiso   1.00
N90    N     0.03097   0.21964   0.98707   0.00000  Uiso   1.00
N91    N     0.53813   0.42294   0.19682   0.00000  Uiso   1.00
N92    N     0.27887   0.61384   0.75358   0.00000  Uiso   1.00
C93    C     0.09163   0.23234   0.51179   0.00000  Uiso   1.00
C94    C     0.07256   0.17242   0.42662   0.00000  Uiso   1.00
C95    C     0.10379   0.09798   0.40931   0.00000  Uiso   1.00
C96    C     0.07889   0.05206   0.32742   0.00000  Uiso   1.00
C97    C     0.05755   0.95484   0.20463   0.00000  Uiso   1.00
C98    C     0.12377   0.31497   0.48829   0.00000  Uiso   1.00
C99    C     0.19805   0.36038   0.52286   0.00000  Uiso   1.00
C100   C     0.21624   0.43446   0.49290   0.00000  Uiso   1.00
C101   C     0.27438   0.55858   0.46591   0.00000  Uiso   1.00
C102   C     0.01020   0.24446   0.54188   0.00000  Uiso   1.00
C103   C     0.98900   0.23060   0.62150   0.00000  Uiso   1.00
C104   C     0.91159   0.24533   0.63666   0.00000  Uiso   1.00
C105   C     0.79340   0.25997   0.69287   0.00000  Uiso   1.00
C106   C     0.99186   0.28316   0.39713   0.00000  Uiso   1.00
C107   C     0.01837   0.20003   0.36434   0.00000  Uiso   1.00
C108   C     0.99341   0.15421   0.28246   0.00000  Uiso   1.00
C109   C     0.02459   0.07971   0.26503   0.00000  Uiso   1.00
C110   C     0.06958   0.34258   0.42602   0.00000  Uiso   1.00
C111   C     0.08767   0.41661   0.39601   0.00000  Uiso   1.00
C112   C     0.16196   0.46212   0.43051   0.00000  Uiso   1.00
C113   C     0.95601   0.27206   0.47960   0.00000  Uiso   1.00
C114   C     0.87862   0.28683   0.49464   0.00000  Uiso   1.00
C115   C     0.85730   0.27299   0.57427   0.00000  Uiso   1.00
H116   H     0.13382   0.21085   0.56027   0.00000  Uiso   1.00
H117   H     0.14573   0.07664   0.45752   0.00000  Uiso   1.00
H118   H     0.23997   0.33900   0.57106   0.00000  Uiso   1.00
H119   H     0.03095   0.20924   0.66968   0.00000  Uiso   1.00
H120   H     0.13506   0.94003   0.31612   0.00000  Uiso   1.00
H121   H     0.33375   0.49325   0.55555   0.00000  Uiso   1.00
H122   H     0.89300   0.21962   0.76351   0.00000  Uiso   1.00
H123   H     0.94967   0.30466   0.34865   0.00000  Uiso   1.00
H124   H     0.95147   0.17559   0.23428   0.00000  Uiso   1.00
H125   H     0.04571   0.43795   0.34782   0.00000  Uiso   1.00
H126   H     0.83670   0.30819   0.44644   0.00000  Uiso   1.00
H127   H     0.97739   0.02034   0.13493   0.00000  Uiso   1.00
H128   H     0.17609   0.57357   0.37436   0.00000  Uiso   1.00
H129   H     0.73534   0.29993   0.58232   0.00000  Uiso   1.00
O130   O     0.06076   0.89361   0.15410   0.00000  Uiso   1.00
O131   O     0.32143   0.61941   0.46823   0.00000  Uiso   1.00
O132   O     0.74317   0.26041   0.74107   0.00000  Uiso   1.00
N133   N     0.09769   0.97664   0.28918   0.00000  Uiso   1.00
N134   N     0.28347   0.49386   0.51302   0.00000  Uiso   1.00
N135   N     0.87141   0.23806   0.70746   0.00000  Uiso   1.00
N136   N     0.01285   0.01985   0.19168   0.00000  Uiso   1.00
N137   N     0.19863   0.53707   0.41552   0.00000  Uiso   1.00
N138   N     0.78657   0.28127   0.60996   0.00000  Uiso   1.00
C139   C     0.47754   0.91305   0.78033   0.00000  Uiso   1.00
C140   C     0.55654   0.93253   0.84370   0.00000  Uiso   1.00
C141   C     0.57276   0.90181   0.92120   0.00000  Uiso   1.00
C142   C     0.64869   0.92703   0.97001   0.00000  Uiso   1.00
C143   C     0.76263   0.94903   0.07261   0.00000  Uiso   1.00
C144   C     0.50076   0.87871   0.69301   0.00000  Uiso   1.00
C145   C     0.47007   0.80273   0.64382   0.00000  Uiso   1.00
C146   C     0.49904   0.78265   0.56577   0.00000  Uiso   1.00
C147   C     0.52633   0.72111   0.43440   0.00000  Uiso   1.00
C148   C     0.44796   0.99604   0.76921   0.00000  Uiso   1.00
C149   C     0.37286   0.01872   0.78406   0.00000  Uiso   1.00
C150   C     0.35736   0.09742   0.77014   0.00000  Uiso   1.00
C151   C     0.30265   0.21806   0.75708   0.00000  Uiso   1.00
C152   C     0.58355   0.01247   0.72917   0.00000  Uiso   1.00
C153   C     0.61412   0.98653   0.81591   0.00000  Uiso   1.00
C154   C     0.69005   0.01181   0.86461   0.00000  Uiso   1.00
C155   C     0.70638   0.98113   0.94218   0.00000  Uiso   1.00
C156   C     0.55834   0.93271   0.66523   0.00000  Uiso   1.00
C157   C     0.58736   0.91273   0.58723   0.00000  Uiso   1.00
C158   C     0.55672   0.83675   0.53793   0.00000  Uiso   1.00
C159   C     0.50554   0.05005   0.74143   0.00000  Uiso   1.00
C160   C     0.49015   0.12872   0.72747   0.00000  Uiso   1.00
C161   C     0.41504   0.15152   0.74230   0.00000  Uiso   1.00
H162   H     0.43271   0.87100   0.80195   0.00000  Uiso   1.00
H163   H     0.52819   0.86001   0.94268   0.00000  Uiso   1.00
H164   H     0.42551   0.76096   0.66533   0.00000  Uiso   1.00
H165   H     0.32832   0.97691   0.80556   0.00000  Uiso   1.00
H166   H     0.65945   0.87161   0.08643   0.00000  Uiso   1.00
H167   H     0.44292   0.66276   0.50162   0.00000  Uiso   1.00
H168   H     0.23796   0.11815   0.79731   0.00000  Uiso   1.00
H169   H     0.62837   0.05452   0.70754   0.00000  Uiso   1.00
H170   H     0.73459   0.05360   0.84310   0.00000  Uiso   1.00
H171   H     0.63191   0.95454   0.56574   0.00000  Uiso   1.00
H172   H     0.53472   0.17050   0.70597   0.00000  Uiso   1.00
H173   H     0.82697   0.02874   0.00561   0.00000  Uiso   1.00
H174   H     0.61044   0.81988   0.42079   0.00000  Uiso   1.00
H175   H     0.40549   0.27527   0.71648   0.00000  Uiso   1.00
O176   O     0.80957   0.94624   0.13688   0.00000  Uiso   1.00
O177   O     0.52548   0.67224   0.36962   0.00000  Uiso   1.00
O178   O     0.25658   0.26969   0.75757   0.00000  Uiso   1.00
N179   N     0.68429   0.90873   0.04882   0.00000  Uiso   1.00
N180   N     0.48186   0.71346   0.50206   0.00000  Uiso   1.00
N181   N     0.29023   0.13920   0.77848   0.00000  Uiso   1.00
N182   N     0.77444   0.99328   0.00532   0.00000  Uiso   1.00
N183   N     0.57201   0.79801   0.45856   0.00000  Uiso   1.00
N184   N     0.38038   0.22375   0.73499   0.00000  Uiso   1.00
C185   C     0.76421   0.47934   0.92244   0.00000  Uiso   1.00
C186   C     0.82201   0.55937   0.94457   0.00000  Uiso   1.00
C187   C     0.89457   0.57451   0.91277   0.00000  Uiso   1.00
C188   C     0.93872   0.65167   0.94083   0.00000  Uiso   1.00
C189   C     0.03263   0.76686   0.96636   0.00000  Uiso   1.00
C190   C     0.68223   0.50335   0.88675   0.00000  Uiso   1.00
C191   C     0.63727   0.47138   0.80634   0.00000  Uiso   1.00
C192   C     0.56376   0.50138   0.78574   0.00000  Uiso   1.00
C193   C     0.44064   0.52955   0.72153   0.00000  Uiso   1.00
C194   C     0.75370   0.45074   0.00891   0.00000  Uiso   1.00
C195   C     0.76881   0.37453   0.03121   0.00000  Uiso   1.00
C196   C     0.75545   0.36023   0.11345   0.00000  Uiso   1.00
C197   C     0.74329   0.30673   0.23891   0.00000  Uiso   1.00
C198   C     0.71359   0.58944   0.02883   0.00000  Uiso   1.00
C199   C     0.79451   0.61917   0.00235   0.00000  Uiso   1.00
C200   C     0.83857   0.69633   0.03047   0.00000  Uiso   1.00
C201   C     0.91119   0.71158   0.99872   0.00000  Uiso   1.00
C202   C     0.65474   0.56315   0.94453   0.00000  Uiso   1.00
C203   C     0.58127   0.59320   0.92404   0.00000  Uiso   1.00
C204   C     0.53622   0.56129   0.84363   0.00000  Uiso   1.00
C205   C     0.72621   0.51055   0.06669   0.00000  Uiso   1.00
C206   C     0.71282   0.49635   0.14891   0.00000  Uiso   1.00
C207   C     0.72791   0.42014   0.17134   0.00000  Uiso   1.00
H208   H     0.78561   0.43278   0.87745   0.00000  Uiso   1.00
H209   H     0.91582   0.52822   0.86804   0.00000  Uiso   1.00
H210   H     0.65856   0.42510   0.76164   0.00000  Uiso   1.00
H211   H     0.79008   0.32827   0.98648   0.00000  Uiso   1.00
H212   H     0.04804   0.66042   0.88307   0.00000  Uiso   1.00
H213   H     0.50559   0.44296   0.65873   0.00000  Uiso   1.00
H214   H     0.78292   0.23878   0.13283   0.00000  Uiso   1.00
H215   H     0.69219   0.63600   0.07381   0.00000  Uiso   1.00
H216   H     0.81728   0.74259   0.07519   0.00000  Uiso   1.00
H217   H     0.56002   0.63947   0.96878   0.00000  Uiso   1.00
H218   H     0.69154   0.54265   0.19361   0.00000  Uiso   1.00
H219   H     0.96807   0.83441   0.05119   0.00000  Uiso   1.00
H220   H     0.42560   0.61695   0.82685   0.00000  Uiso   1.00
H221   H     0.70294   0.41278   0.30095   0.00000  Uiso   1.00
O222   O     0.09202   0.81388   0.96447   0.00000  Uiso   1.00
O223   O     0.38033   0.52857   0.67015   0.00000  Uiso   1.00
O224   O     0.74419   0.26070   0.29216   0.00000  Uiso   1.00
N225   N     0.01206   0.68673   0.92246   0.00000  Uiso   1.00
N226   N     0.50490   0.48343   0.71271   0.00000  Uiso   1.00
N227   N     0.76417   0.29253   0.15595   0.00000  Uiso   1.00
N228   N     0.96903   0.78036   0.01293   0.00000  Uiso   1.00
N229   N     0.46187   0.57706   0.80318   0.00000  Uiso   1.00
N230   N     0.72113   0.38616   0.24642   0.00000  Uiso   1.00
C231   C     0.90837   0.76766   0.48821   0.00000  Uiso   1.00
C232   C     0.92744   0.82758   0.57338   0.00000  Uiso   1.00
C233   C     0.89621   0.90202   0.59069   0.00000  Uiso   1.00
C234   C     0.92111   0.94794   0.67258   0.00000  Uiso   1.00
C235   C     0.94245   0.04516   0.79537   0.00000  Uiso   1.00
C236   C     0.87623   0.68503   0.51170   0.00000  Uiso   1.00
C237   C     0.80195   0.63962   0.47714   0.00000  Uiso   1.00
C238   C     0.78376   0.56554   0.50710   0.00000  Uiso   1.00
C239   C     0.72562   0.44142   0.53409   0.00000  Uiso   1.00
C240   C     0.98980   0.75554   0.45812   0.00000  Uiso   1.00
C241   C     0.01100   0.76940   0.37850   0.00000  Uiso   1.00
C242   C     0.08841   0.75466   0.36334   0.00000  Uiso   1.00
C243   C     0.20660   0.74003   0.30713   0.00000  Uiso   1.00
C244   C     0.00814   0.71684   0.60287   0.00000  Uiso   1.00
C245   C     0.98163   0.79997   0.63566   0.00000  Uiso   1.00
C246   C     0.00659   0.84579   0.71754   0.00000  Uiso   1.00
C247   C     0.97541   0.92029   0.73497   0.00000  Uiso   1.00
C248   C     0.93042   0.65742   0.57398   0.00000  Uiso   1.00
C249   C     0.91233   0.58339   0.60399   0.00000  Uiso   1.00
C250   C     0.83804   0.53788   0.56949   0.00000  Uiso   1.00
C251   C     0.04399   0.72794   0.52040   0.00000  Uiso   1.00
C252   C     0.12138   0.71317   0.50536   0.00000  Uiso   1.00
C253   C     0.14270   0.72701   0.42573   0.00000  Uiso   1.00
H254   H     0.86618   0.78915   0.43973   0.00000  Uiso   1.00
H255   H     0.85427   0.92336   0.54248   0.00000  Uiso   1.00
H256   H     0.76003   0.66100   0.42894   0.00000  Uiso   1.00
H257   H     0.96905   0.79076   0.33032   0.00000  Uiso   1.00
H258   H     0.86494   0.05997   0.68388   0.00000  Uiso   1.00
H259   H     0.66625   0.50675   0.44445   0.00000  Uiso   1.00
H260   H     0.10700   0.78038   0.23649   0.00000  Uiso   1.00
H261   H     0.05033   0.69534   0.65135   0.00000  Uiso   1.00
H262   H     0.04853   0.82441   0.76572   0.00000  Uiso   1.00
H263   H     0.95429   0.56205   0.65218   0.00000  Uiso   1.00
H264   H     0.16330   0.69181   0.55356   0.00000  Uiso   1.00
H265   H     0.02261   0.97966   0.86507   0.00000  Uiso   1.00
H266   H     0.82391   0.42643   0.62564   0.00000  Uiso   1.00
H267   H     0.26466   0.70006   0.41768   0.00000  Uiso   1.00
O268   O     0.93924   0.10639   0.84590   0.00000  Uiso   1.00
O269   O     0.67857   0.38059   0.53177   0.00000  Uiso   1.00
O270   O     0.25683   0.73959   0.25893   0.00000  Uiso   1.00
N271   N     0.90231   0.02336   0.71082   0.00000  Uiso   1.00
N272   N     0.71653   0.50614   0.48698   0.00000  Uiso   1.00
N273   N     0.12859   0.76194   0.29254   0.00000  Uiso   1.00
N274   N     0.98715   0.98015   0.80832   0.00000  Uiso   1.00
N275   N     0.80137   0.46293   0.58448   0.00000  Uiso   1.00
N276   N     0.21343   0.71873   0.39004   0.00000  Uiso   1.00
