data_job_06273
_audit_creation_date              2018-12-19
_audit_creation_method            'Materials Studio'
_symmetry_space_group_name_H-M    'P1'
_symmetry_Int_Tables_number       1
_symmetry_cell_setting            triclinic
loop_
_symmetry_equiv_pos_as_xyz
  x,y,z
_cell_length_a                    16.7512
_cell_length_b                    16.6306
_cell_length_c                    16.4892
_cell_angle_alpha                 103.5560
_cell_angle_beta                  103.5780
_cell_angle_gamma                 103.5370
loop_
_atom_site_label
_atom_site_type_symbol
_atom_site_fract_x
_atom_site_fract_y
_atom_site_fract_z
_atom_site_U_iso_or_equiv
_atom_site_adp_type
_atom_site_occupancy
C1     C     0.86308   0.31997   0.70402   0.00000  Uiso   1.00
C2     C     0.93507   0.30171   0.76587   0.00000  Uiso   1.00
C3     C     0.96167   0.22822   0.74826   0.00000  Uiso   1.00
C4     C     0.02862   0.22374   0.81338   0.00000  Uiso   1.00
C5     C     0.13446   0.18523   0.89728   0.00000  Uiso   1.00
C6     C     0.79959   0.33519   0.75433   0.00000  Uiso   1.00
C7     C     0.71227   0.28985   0.72702   0.00000  Uiso   1.00
C8     C     0.66517   0.31357   0.78243   0.00000  Uiso   1.00
C9     C     0.56065   0.32708   0.84839   0.00000  Uiso   1.00
C10    C     0.90367   0.40711   0.69258   0.00000  Uiso   1.00
C11    C     0.90383   0.42226   0.61335   0.00000  Uiso   1.00
C12    C     0.94435   0.50653   0.61677   0.00000  Uiso   1.00
C13    C     0.00142   0.63171   0.58685   0.00000  Uiso   1.00
C14    C     0.93471   0.44271   0.85098   0.00000  Uiso   1.00
C15    C     0.97397   0.36838   0.84569   0.00000  Uiso   1.00
C16    C     0.04091   0.36402   0.91085   0.00000  Uiso   1.00
C17    C     0.06760   0.29053   0.89334   0.00000  Uiso   1.00
C18    C     0.83849   0.40186   0.83415   0.00000  Uiso   1.00
C19    C     0.79151   0.42565   0.88961   0.00000  Uiso   1.00
C20    C     0.70414   0.38036   0.86239   0.00000  Uiso   1.00
C21    C     0.94257   0.47378   0.77240   0.00000  Uiso   1.00
C22    C     0.98308   0.55805   0.77594   0.00000  Uiso   1.00
C23    C     0.98332   0.57332   0.69673   0.00000  Uiso   1.00
H24    H     0.83279   0.26806   0.64188   0.00000  Uiso   1.00
H25    H     0.93154   0.17663   0.68648   0.00000  Uiso   1.00
H26    H     0.68218   0.23827   0.66524   0.00000  Uiso   1.00
H27    H     0.87372   0.37065   0.55159   0.00000  Uiso   1.00
H28    H     0.05815   0.10465   0.77114   0.00000  Uiso   1.00
H29    H     0.53236   0.23463   0.72635   0.00000  Uiso   1.00
H30    H     0.93626   0.51378   0.48669   0.00000  Uiso   1.00
H31    H     0.96499   0.49462   0.91313   0.00000  Uiso   1.00
H32    H     0.07100   0.41562   0.97261   0.00000  Uiso   1.00
H33    H     0.82164   0.47725   0.95137   0.00000  Uiso   1.00
H34    H     0.01318   0.60963   0.83772   0.00000  Uiso   1.00
H35    H     0.17134   0.29862   0.00338   0.00000  Uiso   1.00
H36    H     0.64554   0.42860   0.95858   0.00000  Uiso   1.00
H37    H     0.04945   0.70775   0.71892   0.00000  Uiso   1.00
O38    O     0.18208   0.14557   0.92151   0.00000  Uiso   1.00
O39    O     0.49225   0.31610   0.86273   0.00000  Uiso   1.00
O40    O     0.02217   0.68234   0.54831   0.00000  Uiso   1.00
N41    N     0.07025   0.16115   0.81763   0.00000  Uiso   1.00
N42    N     0.57867   0.28266   0.77575   0.00000  Uiso   1.00
N43    N     0.95627   0.54365   0.55169   0.00000  Uiso   1.00
N44    N     0.13116   0.26552   0.94259   0.00000  Uiso   1.00
N45    N     0.63958   0.38703   0.90072   0.00000  Uiso   1.00
N46    N     0.01718   0.64802   0.67666   0.00000  Uiso   1.00
C47    C     0.70488   0.86232   0.31889   0.00000  Uiso   1.00
C48    C     0.76574   0.93473   0.30040   0.00000  Uiso   1.00
C49    C     0.74834   0.96151   0.22628   0.00000  Uiso   1.00
C50    C     0.81243   0.02884   0.22169   0.00000  Uiso   1.00
C51    C     0.89499   0.13530   0.18276   0.00000  Uiso   1.00
C52    C     0.75433   0.79827   0.33415   0.00000  Uiso   1.00
C53    C     0.72733   0.71031   0.28840   0.00000  Uiso   1.00
C54    C     0.78182   0.66277   0.31223   0.00000  Uiso   1.00
C55    C     0.84664   0.55735   0.32572   0.00000  Uiso   1.00
C56    C     0.69379   0.90329   0.40685   0.00000  Uiso   1.00
C57    C     0.61587   0.90361   0.42225   0.00000  Uiso   1.00
C58    C     0.61939   0.94448   0.50730   0.00000  Uiso   1.00
C59    C     0.59020   0.00212   0.63369   0.00000  Uiso   1.00
C60    C     0.84966   0.93429   0.44256   0.00000  Uiso   1.00
C61    C     0.84438   0.97382   0.36758   0.00000  Uiso   1.00
C62    C     0.90852   0.04113   0.36311   0.00000  Uiso   1.00
C63    C     0.89121   0.06801   0.28899   0.00000  Uiso   1.00
C64    C     0.83297   0.83735   0.40132   0.00000  Uiso   1.00
C65    C     0.88751   0.78993   0.42523   0.00000  Uiso   1.00
C66    C     0.86060   0.70193   0.37952   0.00000  Uiso   1.00
C67    C     0.77242   0.94238   0.47403   0.00000  Uiso   1.00
C68    C     0.77606   0.98325   0.55908   0.00000  Uiso   1.00
C69    C     0.69817   0.98364   0.57460   0.00000  Uiso   1.00
H70    H     0.64366   0.83188   0.26659   0.00000  Uiso   1.00
H71    H     0.68747   0.93123   0.17431   0.00000  Uiso   1.00
H72    H     0.66647   0.68007   0.23643   0.00000  Uiso   1.00
H73    H     0.55503   0.87336   0.37025   0.00000  Uiso   1.00
H74    H     0.77075   0.05860   0.10160   0.00000  Uiso   1.00
H75    H     0.72644   0.52901   0.23260   0.00000  Uiso   1.00
H76    H     0.49145   0.93658   0.51481   0.00000  Uiso   1.00
H77    H     0.91089   0.96472   0.49486   0.00000  Uiso   1.00
H78    H     0.96937   0.07137   0.41510   0.00000  Uiso   1.00
H79    H     0.94836   0.82020   0.47721   0.00000  Uiso   1.00
H80    H     0.83693   0.01349   0.61104   0.00000  Uiso   1.00
H81    H     0.99955   0.17234   0.29703   0.00000  Uiso   1.00
H82    H     0.95523   0.64274   0.42804   0.00000  Uiso   1.00
H83    H     0.72025   0.05032   0.71024   0.00000  Uiso   1.00
O84    O     0.91881   0.18321   0.14272   0.00000  Uiso   1.00
O85    O     0.86066   0.48840   0.31460   0.00000  Uiso   1.00
O86    O     0.55237   0.02313   0.68484   0.00000  Uiso   1.00
N87    N     0.81656   0.07075   0.15855   0.00000  Uiso   1.00
N88    N     0.77514   0.57561   0.28102   0.00000  Uiso   1.00
N89    N     0.55545   0.95664   0.54486   0.00000  Uiso   1.00
N90    N     0.93968   0.13195   0.26371   0.00000  Uiso   1.00
N91    N     0.89825   0.63681   0.38618   0.00000  Uiso   1.00
N92    N     0.67856   0.01784   0.65002   0.00000  Uiso   1.00
C93    C     0.32083   0.70455   0.86145   0.00000  Uiso   1.00
C94    C     0.30280   0.76595   0.93456   0.00000  Uiso   1.00
C95    C     0.22992   0.74858   0.96169   0.00000  Uiso   1.00
C96    C     0.22556   0.81321   0.02967   0.00000  Uiso   1.00
C97    C     0.18749   0.89653   0.13718   0.00000  Uiso   1.00
C98    C     0.33578   0.75431   0.79681   0.00000  Uiso   1.00
C99    C     0.29064   0.72713   0.70811   0.00000  Uiso   1.00
C100   C     0.31405   0.78196   0.66013   0.00000  Uiso   1.00
C101   C     0.32722   0.84718   0.55375   0.00000  Uiso   1.00
C102   C     0.40740   0.69324   0.90265   0.00000  Uiso   1.00
C103   C     0.42248   0.61471   0.90292   0.00000  Uiso   1.00
C104   C     0.50620   0.61812   0.94404   0.00000  Uiso   1.00
C105   C     0.63057   0.58851   0.00201   0.00000  Uiso   1.00
C106   C     0.44269   0.85024   0.93395   0.00000  Uiso   1.00
C107   C     0.36900   0.84509   0.97394   0.00000  Uiso   1.00
C108   C     0.36475   0.90976   0.04190   0.00000  Uiso   1.00
C109   C     0.29187   0.89248   0.06912   0.00000  Uiso   1.00
C110   C     0.40197   0.83344   0.83618   0.00000  Uiso   1.00
C111   C     0.42547   0.88832   0.78832   0.00000  Uiso   1.00
C112   C     0.38036   0.86124   0.69957   0.00000  Uiso   1.00
C113   C     0.47359   0.77237   0.94203   0.00000  Uiso   1.00
C114   C     0.55731   0.77590   0.98314   0.00000  Uiso   1.00
C115   C     0.57251   0.69740   0.98349   0.00000  Uiso   1.00
H116   H     0.26929   0.64295   0.83078   0.00000  Uiso   1.00
H117   H     0.17870   0.68733   0.93119   0.00000  Uiso   1.00
H118   H     0.23942   0.66589   0.67765   0.00000  Uiso   1.00
H119   H     0.37124   0.55349   0.87245   0.00000  Uiso   1.00
H120   H     0.10745   0.77145   0.05985   0.00000  Uiso   1.00
H121   H     0.23549   0.72622   0.52524   0.00000  Uiso   1.00
H122   H     0.51346   0.48920   0.93600   0.00000  Uiso   1.00
H123   H     0.49423   0.91185   0.96461   0.00000  Uiso   1.00
H124   H     0.41598   0.97100   0.07236   0.00000  Uiso   1.00
H125   H     0.47670   0.94955   0.81882   0.00000  Uiso   1.00
H126   H     0.60852   0.83715   0.01361   0.00000  Uiso   1.00
H127   H     0.30003   0.00168   0.17443   0.00000  Uiso   1.00
H128   H     0.42807   0.95646   0.63982   0.00000  Uiso   1.00
H129   H     0.70604   0.71944   0.05058   0.00000  Uiso   1.00
O130   O     0.14819   0.92063   0.18559   0.00000  Uiso   1.00
O131   O     0.31619   0.86129   0.48420   0.00000  Uiso   1.00
O132   O     0.68088   0.55032   0.02311   0.00000  Uiso   1.00
N133   N     0.16352   0.81751   0.07204   0.00000  Uiso   1.00
N134   N     0.28322   0.77524   0.57222   0.00000  Uiso   1.00
N135   N     0.54310   0.55364   0.95622   0.00000  Uiso   1.00
N136   N     0.26714   0.94140   0.13369   0.00000  Uiso   1.00
N137   N     0.38685   0.89912   0.63387   0.00000  Uiso   1.00
N138   N     0.64673   0.67752   0.01788   0.00000  Uiso   1.00
C139   C     0.13692   0.68003   0.29598   0.00000  Uiso   1.00
C140   C     0.06493   0.69829   0.23413   0.00000  Uiso   1.00
C141   C     0.03833   0.77178   0.25174   0.00000  Uiso   1.00
C142   C     0.97138   0.77626   0.18662   0.00000  Uiso   1.00
C143   C     0.86554   0.81477   0.10272   0.00000  Uiso   1.00
C144   C     0.20041   0.66481   0.24567   0.00000  Uiso   1.00
C145   C     0.28773   0.71015   0.27298   0.00000  Uiso   1.00
C146   C     0.33483   0.68643   0.21757   0.00000  Uiso   1.00
C147   C     0.43935   0.67292   0.15161   0.00000  Uiso   1.00
C148   C     0.09633   0.59289   0.30742   0.00000  Uiso   1.00
C149   C     0.09617   0.57774   0.38665   0.00000  Uiso   1.00
C150   C     0.05565   0.49347   0.38323   0.00000  Uiso   1.00
C151   C     0.99858   0.36829   0.41315   0.00000  Uiso   1.00
C152   C     0.06529   0.55729   0.14902   0.00000  Uiso   1.00
C153   C     0.02603   0.63162   0.15431   0.00000  Uiso   1.00
C154   C     0.95909   0.63598   0.08915   0.00000  Uiso   1.00
C155   C     0.93240   0.70947   0.10666   0.00000  Uiso   1.00
C156   C     0.16151   0.59814   0.16585   0.00000  Uiso   1.00
C157   C     0.20849   0.57435   0.11039   0.00000  Uiso   1.00
C158   C     0.29586   0.61964   0.13761   0.00000  Uiso   1.00
C159   C     0.05743   0.52622   0.22760   0.00000  Uiso   1.00
C160   C     0.01692   0.44195   0.22406   0.00000  Uiso   1.00
C161   C     0.01668   0.42668   0.30327   0.00000  Uiso   1.00
H162   H     0.16721   0.73194   0.35812   0.00000  Uiso   1.00
H163   H     0.06846   0.82337   0.31352   0.00000  Uiso   1.00
H164   H     0.31782   0.76173   0.33476   0.00000  Uiso   1.00
H165   H     0.12628   0.62935   0.44841   0.00000  Uiso   1.00
H166   H     0.94185   0.89535   0.22886   0.00000  Uiso   1.00
H167   H     0.46764   0.76537   0.27365   0.00000  Uiso   1.00
H168   H     0.06374   0.48622   0.51331   0.00000  Uiso   1.00
H169   H     0.03501   0.50538   0.08688   0.00000  Uiso   1.00
H170   H     0.92900   0.58438   0.02739   0.00000  Uiso   1.00
H171   H     0.17836   0.52275   0.04863   0.00000  Uiso   1.00
H172   H     0.98682   0.39037   0.16228   0.00000  Uiso   1.00
H173   H     0.82866   0.70138   0.99662   0.00000  Uiso   1.00
H174   H     0.35446   0.57141   0.04142   0.00000  Uiso   1.00
H175   H     0.95055   0.29225   0.28108   0.00000  Uiso   1.00
O176   O     0.81792   0.85443   0.07849   0.00000  Uiso   1.00
O177   O     0.50775   0.68390   0.13727   0.00000  Uiso   1.00
O178   O     0.97783   0.31766   0.45170   0.00000  Uiso   1.00
N179   N     0.92975   0.83885   0.18237   0.00000  Uiso   1.00
N180   N     0.42133   0.71734   0.22425   0.00000  Uiso   1.00
N181   N     0.04373   0.45635   0.44831   0.00000  Uiso   1.00
N182   N     0.86884   0.73448   0.05741   0.00000  Uiso   1.00
N183   N     0.36042   0.61297   0.09928   0.00000  Uiso   1.00
N184   N     0.98282   0.35198   0.32335   0.00000  Uiso   1.00
C185   C     0.29512   0.13768   0.68111   0.00000  Uiso   1.00
C186   C     0.23426   0.06527   0.69960   0.00000  Uiso   1.00
C187   C     0.25166   0.03849   0.77372   0.00000  Uiso   1.00
C188   C     0.18757   0.97116   0.77831   0.00000  Uiso   1.00
C189   C     0.10501   0.86470   0.81724   0.00000  Uiso   1.00
C190   C     0.24567   0.20173   0.66585   0.00000  Uiso   1.00
C191   C     0.27267   0.28969   0.71160   0.00000  Uiso   1.00
C192   C     0.21818   0.33723   0.68777   0.00000  Uiso   1.00
C193   C     0.15336   0.44265   0.67428   0.00000  Uiso   1.00
C194   C     0.30621   0.09671   0.59315   0.00000  Uiso   1.00
C195   C     0.38413   0.09639   0.57775   0.00000  Uiso   1.00
C196   C     0.38061   0.05552   0.49270   0.00000  Uiso   1.00
C197   C     0.40980   0.99788   0.36631   0.00000  Uiso   1.00
C198   C     0.15034   0.06571   0.55744   0.00000  Uiso   1.00
C199   C     0.15562   0.02618   0.63242   0.00000  Uiso   1.00
C200   C     0.09148   0.95887   0.63689   0.00000  Uiso   1.00
C201   C     0.10879   0.93199   0.71101   0.00000  Uiso   1.00
C202   C     0.16703   0.16265   0.59868   0.00000  Uiso   1.00
C203   C     0.11249   0.21007   0.57477   0.00000  Uiso   1.00
C204   C     0.13940   0.29807   0.62048   0.00000  Uiso   1.00
C205   C     0.22758   0.05762   0.52597   0.00000  Uiso   1.00
C206   C     0.22394   0.01675   0.44092   0.00000  Uiso   1.00
C207   C     0.30183   0.01636   0.42540   0.00000  Uiso   1.00
H208   H     0.35634   0.16812   0.73341   0.00000  Uiso   1.00
H209   H     0.31253   0.06877   0.82569   0.00000  Uiso   1.00
H210   H     0.33353   0.31993   0.76357   0.00000  Uiso   1.00
H211   H     0.44497   0.12664   0.62975   0.00000  Uiso   1.00
H212   H     0.22925   0.94140   0.89840   0.00000  Uiso   1.00
H213   H     0.27356   0.47099   0.76740   0.00000  Uiso   1.00
H214   H     0.50855   0.06342   0.48519   0.00000  Uiso   1.00
H215   H     0.08911   0.03528   0.50514   0.00000  Uiso   1.00
H216   H     0.03063   0.92863   0.58490   0.00000  Uiso   1.00
H217   H     0.05164   0.17980   0.52279   0.00000  Uiso   1.00
H218   H     0.16307   0.98651   0.38896   0.00000  Uiso   1.00
H219   H     0.00045   0.82766   0.70297   0.00000  Uiso   1.00
H220   H     0.04477   0.35726   0.57196   0.00000  Uiso   1.00
H221   H     0.27975   0.94968   0.28976   0.00000  Uiso   1.00
O222   O     0.08119   0.81679   0.85728   0.00000  Uiso   1.00
O223   O     0.13934   0.51160   0.68540   0.00000  Uiso   1.00
O224   O     0.44763   0.97687   0.31516   0.00000  Uiso   1.00
N225   N     0.18344   0.92926   0.84145   0.00000  Uiso   1.00
N226   N     0.22486   0.42439   0.71898   0.00000  Uiso   1.00
N227   N     0.44455   0.04336   0.45514   0.00000  Uiso   1.00
N228   N     0.06032   0.86805   0.73629   0.00000  Uiso   1.00
N229   N     0.10175   0.36319   0.61382   0.00000  Uiso   1.00
N230   N     0.32144   0.98216   0.34998   0.00000  Uiso   1.00
C231   C     0.67917   0.29545   0.13855   0.00000  Uiso   1.00
C232   C     0.69720   0.23405   0.06544   0.00000  Uiso   1.00
C233   C     0.77008   0.25142   0.03831   0.00000  Uiso   1.00
C234   C     0.77444   0.18679   0.97033   0.00000  Uiso   1.00
C235   C     0.81251   0.10347   0.86282   0.00000  Uiso   1.00
C236   C     0.66422   0.24569   0.20319   0.00000  Uiso   1.00
C237   C     0.70936   0.27287   0.29189   0.00000  Uiso   1.00
C238   C     0.68595   0.21804   0.33987   0.00000  Uiso   1.00
C239   C     0.67278   0.15282   0.44625   0.00000  Uiso   1.00
C240   C     0.59260   0.30676   0.09735   0.00000  Uiso   1.00
C241   C     0.57752   0.38529   0.09708   0.00000  Uiso   1.00
C242   C     0.49380   0.38188   0.05596   0.00000  Uiso   1.00
C243   C     0.36943   0.41149   0.99799   0.00000  Uiso   1.00
C244   C     0.55731   0.14976   0.06605   0.00000  Uiso   1.00
C245   C     0.63100   0.15491   0.02606   0.00000  Uiso   1.00
C246   C     0.63525   0.09024   0.95810   0.00000  Uiso   1.00
C247   C     0.70813   0.10752   0.93088   0.00000  Uiso   1.00
C248   C     0.59803   0.16656   0.16382   0.00000  Uiso   1.00
C249   C     0.57453   0.11168   0.21168   0.00000  Uiso   1.00
C250   C     0.61964   0.13876   0.30043   0.00000  Uiso   1.00
C251   C     0.52641   0.22763   0.05797   0.00000  Uiso   1.00
C252   C     0.44269   0.22410   0.01686   0.00000  Uiso   1.00
C253   C     0.42749   0.30260   0.01651   0.00000  Uiso   1.00
H254   H     0.73071   0.35705   0.16922   0.00000  Uiso   1.00
H255   H     0.82130   0.31267   0.06881   0.00000  Uiso   1.00
H256   H     0.76058   0.33411   0.32235   0.00000  Uiso   1.00
H257   H     0.62876   0.44651   0.12755   0.00000  Uiso   1.00
H258   H     0.89255   0.22855   0.94015   0.00000  Uiso   1.00
H259   H     0.76451   0.27378   0.47476   0.00000  Uiso   1.00
H260   H     0.48654   0.51080   0.06400   0.00000  Uiso   1.00
H261   H     0.50577   0.08815   0.03539   0.00000  Uiso   1.00
H262   H     0.58402   0.02901   0.92764   0.00000  Uiso   1.00
H263   H     0.52330   0.05045   0.18118   0.00000  Uiso   1.00
H264   H     0.39148   0.16285   0.98639   0.00000  Uiso   1.00
H265   H     0.69997   0.99832   0.82557   0.00000  Uiso   1.00
H266   H     0.57193   0.04354   0.36018   0.00000  Uiso   1.00
H267   H     0.29396   0.28056   0.94942   0.00000  Uiso   1.00
O268   O     0.85181   0.07937   0.81441   0.00000  Uiso   1.00
O269   O     0.68381   0.13871   0.51580   0.00000  Uiso   1.00
O270   O     0.31912   0.44968   0.97689   0.00000  Uiso   1.00
N271   N     0.83648   0.18249   0.92796   0.00000  Uiso   1.00
N272   N     0.71678   0.22477   0.42778   0.00000  Uiso   1.00
N273   N     0.45690   0.44636   0.04378   0.00000  Uiso   1.00
N274   N     0.73286   0.05860   0.86631   0.00000  Uiso   1.00
N275   N     0.61315   0.10088   0.36613   0.00000  Uiso   1.00
N276   N     0.35327   0.32248   0.98212   0.00000  Uiso   1.00
