data_job_00674
_audit_creation_date              2018-12-19
_audit_creation_method            'Materials Studio'
_symmetry_space_group_name_H-M    'P1'
_symmetry_Int_Tables_number       1
_symmetry_cell_setting            triclinic
loop_
_symmetry_equiv_pos_as_xyz
  x,y,z
_cell_length_a                    21.8696
_cell_length_b                    17.4080
_cell_length_c                    12.2904
_cell_angle_alpha                 90.0000
_cell_angle_beta                  80.7972
_cell_angle_gamma                 90.0000
loop_
_atom_site_label
_atom_site_type_symbol
_atom_site_fract_x
_atom_site_fract_y
_atom_site_fract_z
_atom_site_U_iso_or_equiv
_atom_site_adp_type
_atom_site_occupancy
C1     C     0.52041   0.65264   0.63395   0.00000  Uiso   1.00
C2     C     0.45112   0.66347   0.67227   0.00000  Uiso   1.00
C3     C     0.40507   0.65330   0.60791   0.00000  Uiso   1.00
C4     C     0.34445   0.66605   0.65826   0.00000  Uiso   1.00
C5     C     0.23899   0.67953   0.70090   0.00000  Uiso   1.00
C6     C     0.55078   0.72845   0.65725   0.00000  Uiso   1.00
C7     C     0.58854   0.77290   0.58026   0.00000  Uiso   1.00
C8     C     0.61182   0.84034   0.61798   0.00000  Uiso   1.00
C9     C     0.66112   0.95468   0.63732   0.00000  Uiso   1.00
C10    C     0.54166   0.59392   0.71205   0.00000  Uiso   1.00
C11    C     0.57177   0.52526   0.68114   0.00000  Uiso   1.00
C12    C     0.58738   0.47944   0.76501   0.00000  Uiso   1.00
C13    C     0.62253   0.38489   0.86943   0.00000  Uiso   1.00
C14    C     0.49463   0.69335   0.83784   0.00000  Uiso   1.00
C15    C     0.43712   0.68559   0.78301   0.00000  Uiso   1.00
C16    C     0.37654   0.69834   0.83348   0.00000  Uiso   1.00
C17    C     0.33042   0.68819   0.76921   0.00000  Uiso   1.00
C18    C     0.53678   0.75056   0.76799   0.00000  Uiso   1.00
C19    C     0.56001   0.81795   0.80584   0.00000  Uiso   1.00
C20    C     0.59779   0.86249   0.72893   0.00000  Uiso   1.00
C21    C     0.52766   0.61603   0.82280   0.00000  Uiso   1.00
C22    C     0.54323   0.57030   0.90672   0.00000  Uiso   1.00
C23    C     0.57335   0.50159   0.87595   0.00000  Uiso   1.00
H24    H     0.53132   0.63543   0.54773   0.00000  Uiso   1.00
H25    H     0.41593   0.63620   0.52220   0.00000  Uiso   1.00
H26    H     0.59937   0.75577   0.49457   0.00000  Uiso   1.00
H27    H     0.58260   0.50817   0.59544   0.00000  Uiso   1.00
H28    H     0.28183   0.64682   0.54273   0.00000  Uiso   1.00
H29    H     0.66864   0.89894   0.48446   0.00000  Uiso   1.00
H30    H     0.63327   0.37683   0.69716   0.00000  Uiso   1.00
H31    H     0.48372   0.71057   0.92406   0.00000  Uiso   1.00
H32    H     0.36572   0.71546   0.91918   0.00000  Uiso   1.00
H33    H     0.54916   0.83504   0.89154   0.00000  Uiso   1.00
H34    H     0.53239   0.58743   0.99241   0.00000  Uiso   1.00
H35    H     0.24108   0.71116   0.86493   0.00000  Uiso   1.00
H36    H     0.62790   0.96328   0.80666   0.00000  Uiso   1.00
H37    H     0.59252   0.44116   0.01936   0.00000  Uiso   1.00
O38    O     0.18469   0.68087   0.69382   0.00000  Uiso   1.00
O39    O     0.69218   0.01164   0.61738   0.00000  Uiso   1.00
O40    O     0.64577   0.32663   0.89644   0.00000  Uiso   1.00
N41    N     0.28843   0.66128   0.61923   0.00000  Uiso   1.00
N42    N     0.65007   0.89700   0.56475   0.00000  Uiso   1.00
N43    N     0.61702   0.40888   0.76361   0.00000  Uiso   1.00
N44    N     0.26650   0.69590   0.79261   0.00000  Uiso   1.00
N45    N     0.62814   0.93162   0.73813   0.00000  Uiso   1.00
N46    N     0.59509   0.44349   0.93698   0.00000  Uiso   1.00
C47    C     0.15818   0.13038   0.55537   0.00000  Uiso   1.00
C48    C     0.08805   0.14027   0.57051   0.00000  Uiso   1.00
C49    C     0.05053   0.12212   0.49317   0.00000  Uiso   1.00
C50    C     0.98747   0.13542   0.52278   0.00000  Uiso   1.00
C51    C     0.88232   0.14618   0.53055   0.00000  Uiso   1.00
C52    C     0.18446   0.20935   0.57537   0.00000  Uiso   1.00
C53    C     0.22801   0.24927   0.50213   0.00000  Uiso   1.00
C54    C     0.24611   0.32071   0.53585   0.00000  Uiso   1.00
C55    C     0.29067   0.43870   0.55121   0.00000  Uiso   1.00
C56    C     0.17100   0.07985   0.65053   0.00000  Uiso   1.00
C57    C     0.20326   0.01089   0.64048   0.00000  Uiso   1.00
C58    C     0.21005   0.97331   0.73748   0.00000  Uiso   1.00
C59    C     0.23372   0.89022   0.86953   0.00000  Uiso   1.00
C60    C     0.11290   0.18628   0.74550   0.00000  Uiso   1.00
C61    C     0.06345   0.17063   0.67377   0.00000  Uiso   1.00
C62    C     0.00043   0.18396   0.70352   0.00000  Uiso   1.00
C63    C     0.96283   0.16583   0.62624   0.00000  Uiso   1.00
C64    C     0.15986   0.23971   0.67864   0.00000  Uiso   1.00
C65    C     0.17790   0.31111   0.71248   0.00000  Uiso   1.00
C66    C     0.22147   0.35113   0.63931   0.00000  Uiso   1.00
C67    C     0.14641   0.11021   0.75380   0.00000  Uiso   1.00
C68    C     0.15315   0.07273   0.85083   0.00000  Uiso   1.00
C69    C     0.18540   0.00372   0.84094   0.00000  Uiso   1.00
H70    H     0.17733   0.10675   0.47498   0.00000  Uiso   1.00
H71    H     0.06959   0.09863   0.41326   0.00000  Uiso   1.00
H72    H     0.24704   0.22576   0.42223   0.00000  Uiso   1.00
H73    H     0.22229   0.98741   0.56056   0.00000  Uiso   1.00
H74    H     0.93929   0.10304   0.39035   0.00000  Uiso   1.00
H75    H     0.31347   0.37108   0.40928   0.00000  Uiso   1.00
H76    H     0.26128   0.86848   0.70098   0.00000  Uiso   1.00
H77    H     0.09375   0.20992   0.82590   0.00000  Uiso   1.00
H78    H     0.98141   0.20746   0.78344   0.00000  Uiso   1.00
H79    H     0.15886   0.33459   0.79240   0.00000  Uiso   1.00
H80    H     0.13411   0.09624   0.93073   0.00000  Uiso   1.00
H81    H     0.86772   0.19137   0.69080   0.00000  Uiso   1.00
H82    H     0.24190   0.45942   0.70973   0.00000  Uiso   1.00
H83    H     0.18971   0.95682   0.00143   0.00000  Uiso   1.00
O84    O     0.83111   0.14375   0.50630   0.00000  Uiso   1.00
O85    O     0.32203   0.49540   0.53114   0.00000  Uiso   1.00
O86    O     0.25356   0.83600   0.91383   0.00000  Uiso   1.00
N87    N     0.93786   0.12415   0.46690   0.00000  Uiso   1.00
N88    N     0.28769   0.37476   0.48459   0.00000  Uiso   1.00
N89    N     0.23891   0.90488   0.75730   0.00000  Uiso   1.00
N90    N     0.89935   0.17168   0.62857   0.00000  Uiso   1.00
N91    N     0.24918   0.42229   0.64626   0.00000  Uiso   1.00
N92    N     0.20040   0.95241   0.91897   0.00000  Uiso   1.00
C93    C     0.47959   0.15264   0.86605   0.00000  Uiso   1.00
C94    C     0.54888   0.16347   0.82773   0.00000  Uiso   1.00
C95    C     0.59493   0.15330   0.89209   0.00000  Uiso   1.00
C96    C     0.65555   0.16605   0.84174   0.00000  Uiso   1.00
C97    C     0.76101   0.17953   0.79910   0.00000  Uiso   1.00
C98    C     0.44922   0.22845   0.84275   0.00000  Uiso   1.00
C99    C     0.41146   0.27290   0.91974   0.00000  Uiso   1.00
C100   C     0.38818   0.34034   0.88202   0.00000  Uiso   1.00
C101   C     0.33888   0.45468   0.86268   0.00000  Uiso   1.00
C102   C     0.45834   0.09392   0.78795   0.00000  Uiso   1.00
C103   C     0.42823   0.02526   0.81886   0.00000  Uiso   1.00
C104   C     0.41262   0.97944   0.73499   0.00000  Uiso   1.00
C105   C     0.37747   0.88489   0.63057   0.00000  Uiso   1.00
C106   C     0.50537   0.19335   0.66216   0.00000  Uiso   1.00
C107   C     0.56288   0.18559   0.71699   0.00000  Uiso   1.00
C108   C     0.62346   0.19834   0.66652   0.00000  Uiso   1.00
C109   C     0.66958   0.18819   0.73079   0.00000  Uiso   1.00
C110   C     0.46322   0.25056   0.73201   0.00000  Uiso   1.00
C111   C     0.43999   0.31795   0.69416   0.00000  Uiso   1.00
C112   C     0.40221   0.36249   0.77107   0.00000  Uiso   1.00
C113   C     0.47234   0.11603   0.67720   0.00000  Uiso   1.00
C114   C     0.45677   0.07030   0.59328   0.00000  Uiso   1.00
C115   C     0.42665   0.00159   0.62405   0.00000  Uiso   1.00
H116   H     0.46868   0.13543   0.95227   0.00000  Uiso   1.00
H117   H     0.58407   0.13620   0.97780   0.00000  Uiso   1.00
H118   H     0.40063   0.25577   0.00543   0.00000  Uiso   1.00
H119   H     0.41740   0.00817   0.90456   0.00000  Uiso   1.00
H120   H     0.71817   0.14682   0.95727   0.00000  Uiso   1.00
H121   H     0.33136   0.39894   0.01554   0.00000  Uiso   1.00
H122   H     0.36673   0.87683   0.80284   0.00000  Uiso   1.00
H123   H     0.51628   0.21057   0.57594   0.00000  Uiso   1.00
H124   H     0.63428   0.21546   0.58082   0.00000  Uiso   1.00
H125   H     0.45084   0.33504   0.60846   0.00000  Uiso   1.00
H126   H     0.46761   0.08743   0.50759   0.00000  Uiso   1.00
H127   H     0.75892   0.21116   0.63507   0.00000  Uiso   1.00
H128   H     0.37210   0.46328   0.69334   0.00000  Uiso   1.00
H129   H     0.40748   0.94116   0.48064   0.00000  Uiso   1.00
O130   O     0.81531   0.18087   0.80618   0.00000  Uiso   1.00
O131   O     0.30782   0.51164   0.88262   0.00000  Uiso   1.00
O132   O     0.35423   0.82663   0.60356   0.00000  Uiso   1.00
N133   N     0.71157   0.16128   0.88077   0.00000  Uiso   1.00
N134   N     0.34993   0.39700   0.93525   0.00000  Uiso   1.00
N135   N     0.38298   0.90888   0.73639   0.00000  Uiso   1.00
N136   N     0.73350   0.19590   0.70739   0.00000  Uiso   1.00
N137   N     0.37186   0.43162   0.76187   0.00000  Uiso   1.00
N138   N     0.40491   0.94349   0.56302   0.00000  Uiso   1.00
C139   C     0.84182   0.63038   0.94463   0.00000  Uiso   1.00
C140   C     0.91195   0.64027   0.92949   0.00000  Uiso   1.00
C141   C     0.94947   0.62212   0.00683   0.00000  Uiso   1.00
C142   C     0.01253   0.63542   0.97722   0.00000  Uiso   1.00
C143   C     0.11768   0.64618   0.96945   0.00000  Uiso   1.00
C144   C     0.81554   0.70935   0.92463   0.00000  Uiso   1.00
C145   C     0.77199   0.74927   0.99787   0.00000  Uiso   1.00
C146   C     0.75389   0.82071   0.96415   0.00000  Uiso   1.00
C147   C     0.70933   0.93870   0.94879   0.00000  Uiso   1.00
C148   C     0.82900   0.57985   0.84947   0.00000  Uiso   1.00
C149   C     0.79674   0.51089   0.85952   0.00000  Uiso   1.00
C150   C     0.78995   0.47331   0.76252   0.00000  Uiso   1.00
C151   C     0.76628   0.39022   0.63047   0.00000  Uiso   1.00
C152   C     0.88710   0.68628   0.75450   0.00000  Uiso   1.00
C153   C     0.93655   0.67063   0.82623   0.00000  Uiso   1.00
C154   C     0.99957   0.68396   0.79648   0.00000  Uiso   1.00
C155   C     0.03717   0.66583   0.87376   0.00000  Uiso   1.00
C156   C     0.84014   0.73971   0.82136   0.00000  Uiso   1.00
C157   C     0.82210   0.81111   0.78752   0.00000  Uiso   1.00
C158   C     0.77853   0.85113   0.86069   0.00000  Uiso   1.00
C159   C     0.85359   0.61021   0.74620   0.00000  Uiso   1.00
C160   C     0.84685   0.57273   0.64917   0.00000  Uiso   1.00
C161   C     0.81460   0.50372   0.65906   0.00000  Uiso   1.00
H162   H     0.82267   0.60675   0.02502   0.00000  Uiso   1.00
H163   H     0.93041   0.59863   0.08674   0.00000  Uiso   1.00
H164   H     0.75296   0.72576   0.07777   0.00000  Uiso   1.00
H165   H     0.77771   0.48741   0.93944   0.00000  Uiso   1.00
H166   H     0.06071   0.60304   0.10965   0.00000  Uiso   1.00
H167   H     0.68653   0.87108   0.09072   0.00000  Uiso   1.00
H168   H     0.73872   0.36848   0.79902   0.00000  Uiso   1.00
H169   H     0.90625   0.70992   0.67410   0.00000  Uiso   1.00
H170   H     0.01859   0.70746   0.71656   0.00000  Uiso   1.00
H171   H     0.84114   0.83459   0.70760   0.00000  Uiso   1.00
H172   H     0.86589   0.59624   0.56927   0.00000  Uiso   1.00
H173   H     0.13228   0.69137   0.80920   0.00000  Uiso   1.00
H174   H     0.75810   0.95942   0.79027   0.00000  Uiso   1.00
H175   H     0.81029   0.45682   0.49857   0.00000  Uiso   1.00
O176   O     0.16889   0.64375   0.99370   0.00000  Uiso   1.00
O177   O     0.67797   0.99540   0.96886   0.00000  Uiso   1.00
O178   O     0.74644   0.33600   0.58617   0.00000  Uiso   1.00
N179   N     0.06214   0.62415   0.03310   0.00000  Uiso   1.00
N180   N     0.71231   0.87476   0.01541   0.00000  Uiso   1.00
N181   N     0.76109   0.40488   0.74270   0.00000  Uiso   1.00
N182   N     0.10065   0.67168   0.87143   0.00000  Uiso   1.00
N183   N     0.75082   0.92229   0.85374   0.00000  Uiso   1.00
N184   N     0.79960   0.45241   0.58103   0.00000  Uiso   1.00
C185   C     0.47959   0.34736   0.36605   0.00000  Uiso   1.00
C186   C     0.54888   0.33653   0.32773   0.00000  Uiso   1.00
C187   C     0.59493   0.34670   0.39209   0.00000  Uiso   1.00
C188   C     0.65555   0.33395   0.34174   0.00000  Uiso   1.00
C189   C     0.76101   0.32047   0.29910   0.00000  Uiso   1.00
C190   C     0.44922   0.27155   0.34275   0.00000  Uiso   1.00
C191   C     0.41146   0.22710   0.41974   0.00000  Uiso   1.00
C192   C     0.38818   0.15966   0.38202   0.00000  Uiso   1.00
C193   C     0.33888   0.04532   0.36268   0.00000  Uiso   1.00
C194   C     0.45834   0.40608   0.28795   0.00000  Uiso   1.00
C195   C     0.42823   0.47474   0.31886   0.00000  Uiso   1.00
C196   C     0.41262   0.52056   0.23499   0.00000  Uiso   1.00
C197   C     0.37747   0.61511   0.13057   0.00000  Uiso   1.00
C198   C     0.50537   0.30665   0.16216   0.00000  Uiso   1.00
C199   C     0.56288   0.31441   0.21699   0.00000  Uiso   1.00
C200   C     0.62346   0.30166   0.16652   0.00000  Uiso   1.00
C201   C     0.66958   0.31181   0.23079   0.00000  Uiso   1.00
C202   C     0.46322   0.24944   0.23201   0.00000  Uiso   1.00
C203   C     0.43999   0.18205   0.19416   0.00000  Uiso   1.00
C204   C     0.40221   0.13751   0.27107   0.00000  Uiso   1.00
C205   C     0.47234   0.38397   0.17720   0.00000  Uiso   1.00
C206   C     0.45677   0.42970   0.09328   0.00000  Uiso   1.00
C207   C     0.42665   0.49841   0.12405   0.00000  Uiso   1.00
H208   H     0.46868   0.36457   0.45227   0.00000  Uiso   1.00
H209   H     0.58407   0.36380   0.47780   0.00000  Uiso   1.00
H210   H     0.40063   0.24423   0.50543   0.00000  Uiso   1.00
H211   H     0.41740   0.49183   0.40456   0.00000  Uiso   1.00
H212   H     0.71817   0.35318   0.45727   0.00000  Uiso   1.00
H213   H     0.33136   0.10106   0.51554   0.00000  Uiso   1.00
H214   H     0.36673   0.62317   0.30284   0.00000  Uiso   1.00
H215   H     0.51628   0.28943   0.07594   0.00000  Uiso   1.00
H216   H     0.63428   0.28454   0.08082   0.00000  Uiso   1.00
H217   H     0.45084   0.16496   0.10846   0.00000  Uiso   1.00
H218   H     0.46761   0.41257   0.00759   0.00000  Uiso   1.00
H219   H     0.75892   0.28884   0.13507   0.00000  Uiso   1.00
H220   H     0.37210   0.03672   0.19334   0.00000  Uiso   1.00
H221   H     0.40748   0.55884   0.98064   0.00000  Uiso   1.00
O222   O     0.81531   0.31913   0.30618   0.00000  Uiso   1.00
O223   O     0.30782   0.98836   0.38262   0.00000  Uiso   1.00
O224   O     0.35423   0.67337   0.10356   0.00000  Uiso   1.00
N225   N     0.71157   0.33872   0.38077   0.00000  Uiso   1.00
N226   N     0.34993   0.10300   0.43525   0.00000  Uiso   1.00
N227   N     0.38298   0.59112   0.23639   0.00000  Uiso   1.00
N228   N     0.73350   0.30410   0.20739   0.00000  Uiso   1.00
N229   N     0.37186   0.06838   0.26187   0.00000  Uiso   1.00
N230   N     0.40491   0.55651   0.06302   0.00000  Uiso   1.00
C231   C     0.84182   0.86962   0.44463   0.00000  Uiso   1.00
C232   C     0.91195   0.85973   0.42949   0.00000  Uiso   1.00
C233   C     0.94947   0.87788   0.50683   0.00000  Uiso   1.00
C234   C     0.01253   0.86458   0.47722   0.00000  Uiso   1.00
C235   C     0.11768   0.85382   0.46945   0.00000  Uiso   1.00
C236   C     0.81554   0.79065   0.42463   0.00000  Uiso   1.00
C237   C     0.77199   0.75073   0.49787   0.00000  Uiso   1.00
C238   C     0.75389   0.67929   0.46415   0.00000  Uiso   1.00
C239   C     0.70933   0.56130   0.44879   0.00000  Uiso   1.00
C240   C     0.82900   0.92015   0.34947   0.00000  Uiso   1.00
C241   C     0.79674   0.98911   0.35952   0.00000  Uiso   1.00
C242   C     0.78995   0.02669   0.26252   0.00000  Uiso   1.00
C243   C     0.76628   0.10978   0.13047   0.00000  Uiso   1.00
C244   C     0.88710   0.81372   0.25450   0.00000  Uiso   1.00
C245   C     0.93655   0.82937   0.32623   0.00000  Uiso   1.00
C246   C     0.99957   0.81604   0.29648   0.00000  Uiso   1.00
C247   C     0.03717   0.83417   0.37376   0.00000  Uiso   1.00
C248   C     0.84014   0.76029   0.32136   0.00000  Uiso   1.00
C249   C     0.82210   0.68889   0.28752   0.00000  Uiso   1.00
C250   C     0.77853   0.64887   0.36069   0.00000  Uiso   1.00
C251   C     0.85359   0.88979   0.24620   0.00000  Uiso   1.00
C252   C     0.84685   0.92727   0.14917   0.00000  Uiso   1.00
C253   C     0.81460   0.99628   0.15906   0.00000  Uiso   1.00
H254   H     0.82267   0.89325   0.52502   0.00000  Uiso   1.00
H255   H     0.93041   0.90137   0.58674   0.00000  Uiso   1.00
H256   H     0.75296   0.77424   0.57777   0.00000  Uiso   1.00
H257   H     0.77771   0.01259   0.43944   0.00000  Uiso   1.00
H258   H     0.06071   0.89696   0.60965   0.00000  Uiso   1.00
H259   H     0.68653   0.62892   0.59072   0.00000  Uiso   1.00
H260   H     0.73872   0.13152   0.29902   0.00000  Uiso   1.00
H261   H     0.90625   0.79008   0.17410   0.00000  Uiso   1.00
H262   H     0.01859   0.79254   0.21656   0.00000  Uiso   1.00
H263   H     0.84114   0.66541   0.20760   0.00000  Uiso   1.00
H264   H     0.86589   0.90376   0.06927   0.00000  Uiso   1.00
H265   H     0.13228   0.80863   0.30920   0.00000  Uiso   1.00
H266   H     0.75810   0.54058   0.29027   0.00000  Uiso   1.00
H267   H     0.81029   0.04318   0.99857   0.00000  Uiso   1.00
O268   O     0.16889   0.85625   0.49370   0.00000  Uiso   1.00
O269   O     0.67797   0.50460   0.46886   0.00000  Uiso   1.00
O270   O     0.74644   0.16400   0.08617   0.00000  Uiso   1.00
N271   N     0.06214   0.87585   0.53310   0.00000  Uiso   1.00
N272   N     0.71231   0.62524   0.51541   0.00000  Uiso   1.00
N273   N     0.76109   0.09512   0.24270   0.00000  Uiso   1.00
N274   N     0.10065   0.82832   0.37143   0.00000  Uiso   1.00
N275   N     0.75082   0.57771   0.35374   0.00000  Uiso   1.00
N276   N     0.79960   0.04759   0.08103   0.00000  Uiso   1.00
C277   C     0.52041   0.84736   0.13395   0.00000  Uiso   1.00
C278   C     0.45112   0.83653   0.17227   0.00000  Uiso   1.00
C279   C     0.40507   0.84670   0.10791   0.00000  Uiso   1.00
C280   C     0.34445   0.83395   0.15826   0.00000  Uiso   1.00
C281   C     0.23899   0.82047   0.20090   0.00000  Uiso   1.00
C282   C     0.55078   0.77155   0.15725   0.00000  Uiso   1.00
C283   C     0.58854   0.72710   0.08026   0.00000  Uiso   1.00
C284   C     0.61182   0.65966   0.11798   0.00000  Uiso   1.00
C285   C     0.66112   0.54532   0.13732   0.00000  Uiso   1.00
C286   C     0.54166   0.90608   0.21205   0.00000  Uiso   1.00
C287   C     0.57177   0.97474   0.18114   0.00000  Uiso   1.00
C288   C     0.58738   0.02056   0.26501   0.00000  Uiso   1.00
C289   C     0.62253   0.11511   0.36943   0.00000  Uiso   1.00
C290   C     0.49463   0.80665   0.33784   0.00000  Uiso   1.00
C291   C     0.43712   0.81441   0.28301   0.00000  Uiso   1.00
C292   C     0.37654   0.80166   0.33348   0.00000  Uiso   1.00
C293   C     0.33042   0.81181   0.26921   0.00000  Uiso   1.00
C294   C     0.53678   0.74944   0.26799   0.00000  Uiso   1.00
C295   C     0.56001   0.68205   0.30584   0.00000  Uiso   1.00
C296   C     0.59779   0.63751   0.22893   0.00000  Uiso   1.00
C297   C     0.52766   0.88397   0.32280   0.00000  Uiso   1.00
C298   C     0.54323   0.92970   0.40672   0.00000  Uiso   1.00
C299   C     0.57335   0.99841   0.37595   0.00000  Uiso   1.00
H300   H     0.53132   0.86457   0.04773   0.00000  Uiso   1.00
H301   H     0.41593   0.86380   0.02220   0.00000  Uiso   1.00
H302   H     0.59937   0.74423   0.99457   0.00000  Uiso   1.00
H303   H     0.58260   0.99183   0.09544   0.00000  Uiso   1.00
H304   H     0.28183   0.85318   0.04273   0.00000  Uiso   1.00
H305   H     0.66864   0.60106   0.98446   0.00000  Uiso   1.00
H306   H     0.63327   0.12317   0.19716   0.00000  Uiso   1.00
H307   H     0.48372   0.78943   0.42406   0.00000  Uiso   1.00
H308   H     0.36572   0.78454   0.41918   0.00000  Uiso   1.00
H309   H     0.54916   0.66496   0.39154   0.00000  Uiso   1.00
H310   H     0.53239   0.91257   0.49241   0.00000  Uiso   1.00
H311   H     0.24108   0.78884   0.36493   0.00000  Uiso   1.00
H312   H     0.62790   0.53672   0.30666   0.00000  Uiso   1.00
H313   H     0.59252   0.05884   0.51936   0.00000  Uiso   1.00
O314   O     0.18469   0.81913   0.19382   0.00000  Uiso   1.00
O315   O     0.69218   0.48836   0.11738   0.00000  Uiso   1.00
O316   O     0.64577   0.17337   0.39644   0.00000  Uiso   1.00
N317   N     0.28843   0.83872   0.11923   0.00000  Uiso   1.00
N318   N     0.65007   0.60300   0.06475   0.00000  Uiso   1.00
N319   N     0.61702   0.09112   0.26361   0.00000  Uiso   1.00
N320   N     0.26650   0.80410   0.29261   0.00000  Uiso   1.00
N321   N     0.62814   0.56838   0.23813   0.00000  Uiso   1.00
N322   N     0.59509   0.05651   0.43698   0.00000  Uiso   1.00
C323   C     0.15818   0.36962   0.05537   0.00000  Uiso   1.00
C324   C     0.08805   0.35973   0.07051   0.00000  Uiso   1.00
C325   C     0.05053   0.37788   0.99317   0.00000  Uiso   1.00
C326   C     0.98747   0.36458   0.02278   0.00000  Uiso   1.00
C327   C     0.88232   0.35382   0.03055   0.00000  Uiso   1.00
C328   C     0.18446   0.29065   0.07537   0.00000  Uiso   1.00
C329   C     0.22801   0.25073   0.00213   0.00000  Uiso   1.00
C330   C     0.24611   0.17929   0.03585   0.00000  Uiso   1.00
C331   C     0.29067   0.06130   0.05121   0.00000  Uiso   1.00
C332   C     0.17100   0.42015   0.15053   0.00000  Uiso   1.00
C333   C     0.20326   0.48911   0.14048   0.00000  Uiso   1.00
C334   C     0.21005   0.52669   0.23748   0.00000  Uiso   1.00
C335   C     0.23372   0.60978   0.36953   0.00000  Uiso   1.00
C336   C     0.11290   0.31372   0.24550   0.00000  Uiso   1.00
C337   C     0.06345   0.32937   0.17377   0.00000  Uiso   1.00
C338   C     0.00043   0.31604   0.20352   0.00000  Uiso   1.00
C339   C     0.96283   0.33417   0.12624   0.00000  Uiso   1.00
C340   C     0.15986   0.26029   0.17864   0.00000  Uiso   1.00
C341   C     0.17790   0.18889   0.21248   0.00000  Uiso   1.00
C342   C     0.22147   0.14887   0.13931   0.00000  Uiso   1.00
C343   C     0.14641   0.38979   0.25380   0.00000  Uiso   1.00
C344   C     0.15315   0.42727   0.35083   0.00000  Uiso   1.00
C345   C     0.18540   0.49628   0.34094   0.00000  Uiso   1.00
H346   H     0.17733   0.39325   0.97498   0.00000  Uiso   1.00
H347   H     0.06959   0.40137   0.91326   0.00000  Uiso   1.00
H348   H     0.24704   0.27424   0.92223   0.00000  Uiso   1.00
H349   H     0.22229   0.51259   0.06056   0.00000  Uiso   1.00
H350   H     0.93929   0.39696   0.89035   0.00000  Uiso   1.00
H351   H     0.31347   0.12892   0.90928   0.00000  Uiso   1.00
H352   H     0.26128   0.63152   0.20098   0.00000  Uiso   1.00
H353   H     0.09375   0.29008   0.32590   0.00000  Uiso   1.00
H354   H     0.98141   0.29254   0.28344   0.00000  Uiso   1.00
H355   H     0.15886   0.16541   0.29240   0.00000  Uiso   1.00
H356   H     0.13411   0.40376   0.43073   0.00000  Uiso   1.00
H357   H     0.86772   0.30863   0.19080   0.00000  Uiso   1.00
H358   H     0.24190   0.04058   0.20973   0.00000  Uiso   1.00
H359   H     0.18971   0.54318   0.50143   0.00000  Uiso   1.00
O360   O     0.83111   0.35625   0.00630   0.00000  Uiso   1.00
O361   O     0.32203   0.00460   0.03114   0.00000  Uiso   1.00
O362   O     0.25356   0.66400   0.41383   0.00000  Uiso   1.00
N363   N     0.93786   0.37585   0.96690   0.00000  Uiso   1.00
N364   N     0.28769   0.12524   0.98459   0.00000  Uiso   1.00
N365   N     0.23891   0.59512   0.25730   0.00000  Uiso   1.00
N366   N     0.89935   0.32832   0.12857   0.00000  Uiso   1.00
N367   N     0.24918   0.07771   0.14626   0.00000  Uiso   1.00
N368   N     0.20040   0.54759   0.41897   0.00000  Uiso   1.00
