data_job_03948
_audit_creation_date              2018-12-19
_audit_creation_method            'Materials Studio'
_symmetry_space_group_name_H-M    'P1'
_symmetry_Int_Tables_number       1
_symmetry_cell_setting            triclinic
loop_
_symmetry_equiv_pos_as_xyz
  x,y,z
_cell_length_a                    12.4507
_cell_length_b                    12.4507
_cell_length_c                    35.0549
_cell_angle_alpha                 90.0000
_cell_angle_beta                  90.0000
_cell_angle_gamma                 90.0000
loop_
_atom_site_label
_atom_site_type_symbol
_atom_site_fract_x
_atom_site_fract_y
_atom_site_fract_z
_atom_site_U_iso_or_equiv
_atom_site_adp_type
_atom_site_occupancy
C1     C     0.30946   0.74701   0.61986   0.00000  Uiso   1.00
C2     C     0.36652   0.76832   0.65760   0.00000  Uiso   1.00
C3     C     0.47599   0.75805   0.66410   0.00000  Uiso   1.00
C4     C     0.51251   0.78126   0.70061   0.00000  Uiso   1.00
C5     C     0.61183   0.80939   0.75481   0.00000  Uiso   1.00
C6     C     0.22338   0.66326   0.62840   0.00000  Uiso   1.00
C7     C     0.21249   0.56466   0.61034   0.00000  Uiso   1.00
C8     C     0.12849   0.49943   0.62226   0.00000  Uiso   1.00
C9     C     0.00554   0.36448   0.63111   0.00000  Uiso   1.00
C10    C     0.24950   0.85020   0.61009   0.00000  Uiso   1.00
C11    C     0.26055   0.90877   0.57664   0.00000  Uiso   1.00
C12    C     0.19853   0.00093   0.57314   0.00000  Uiso   1.00
C13    C     0.11614   0.15623   0.55356   0.00000  Uiso   1.00
C14    C     0.17964   0.80650   0.67313   0.00000  Uiso   1.00
C15    C     0.29601   0.80063   0.68653   0.00000  Uiso   1.00
C16    C     0.33237   0.82387   0.72304   0.00000  Uiso   1.00
C17    C     0.44187   0.81364   0.72959   0.00000  Uiso   1.00
C18    C     0.15287   0.69557   0.65733   0.00000  Uiso   1.00
C19    C     0.06887   0.63048   0.66928   0.00000  Uiso   1.00
C20    C     0.05785   0.53180   0.65125   0.00000  Uiso   1.00
C21    C     0.17899   0.88252   0.63902   0.00000  Uiso   1.00
C22    C     0.11693   0.97459   0.63557   0.00000  Uiso   1.00
C23    C     0.12789   0.03329   0.60212   0.00000  Uiso   1.00
H24    H     0.36435   0.72185   0.59734   0.00000  Uiso   1.00
H25    H     0.53053   0.73303   0.64170   0.00000  Uiso   1.00
H26    H     0.26706   0.53968   0.58795   0.00000  Uiso   1.00
H27    H     0.31512   0.88374   0.55425   0.00000  Uiso   1.00
H28    H     0.68368   0.75965   0.70366   0.00000  Uiso   1.00
H29    H     0.12811   0.35196   0.59031   0.00000  Uiso   1.00
H30    H     0.22946   0.07748   0.51924   0.00000  Uiso   1.00
H31    H     0.12474   0.83165   0.69565   0.00000  Uiso   1.00
H32    H     0.27778   0.84887   0.74542   0.00000  Uiso   1.00
H33    H     0.01431   0.65551   0.69167   0.00000  Uiso   1.00
H34    H     0.06238   0.99957   0.65797   0.00000  Uiso   1.00
H35    H     0.47854   0.85366   0.78784   0.00000  Uiso   1.00
H36    H     0.92297   0.44598   0.67448   0.00000  Uiso   1.00
H37    H     0.02432   0.17150   0.60342   0.00000  Uiso   1.00
O38    O     0.68610   0.81596   0.77671   0.00000  Uiso   1.00
O39    O     0.95721   0.28111   0.62800   0.00000  Uiso   1.00
O40    O     0.09018   0.23297   0.53477   0.00000  Uiso   1.00
N41    N     0.61440   0.77943   0.71664   0.00000  Uiso   1.00
N42    N     0.09499   0.39826   0.61067   0.00000  Uiso   1.00
N43    N     0.18972   0.07655   0.54422   0.00000  Uiso   1.00
N44    N     0.50401   0.83002   0.76193   0.00000  Uiso   1.00
N45    N     0.98461   0.44885   0.65596   0.00000  Uiso   1.00
N46    N     0.07934   0.12714   0.58952   0.00000  Uiso   1.00
C47    C     0.69054   0.25299   0.11986   0.00000  Uiso   1.00
C48    C     0.63348   0.23168   0.15760   0.00000  Uiso   1.00
C49    C     0.52401   0.24195   0.16410   0.00000  Uiso   1.00
C50    C     0.48749   0.21874   0.20061   0.00000  Uiso   1.00
C51    C     0.38817   0.19061   0.25481   0.00000  Uiso   1.00
C52    C     0.77662   0.33674   0.12840   0.00000  Uiso   1.00
C53    C     0.78751   0.43534   0.11034   0.00000  Uiso   1.00
C54    C     0.87151   0.50057   0.12226   0.00000  Uiso   1.00
C55    C     0.99446   0.63552   0.13111   0.00000  Uiso   1.00
C56    C     0.75050   0.14980   0.11009   0.00000  Uiso   1.00
C57    C     0.73945   0.09123   0.07664   0.00000  Uiso   1.00
C58    C     0.80147   0.99907   0.07314   0.00000  Uiso   1.00
C59    C     0.88386   0.84377   0.05356   0.00000  Uiso   1.00
C60    C     0.82036   0.19350   0.17313   0.00000  Uiso   1.00
C61    C     0.70399   0.19937   0.18653   0.00000  Uiso   1.00
C62    C     0.66763   0.17613   0.22304   0.00000  Uiso   1.00
C63    C     0.55813   0.18636   0.22959   0.00000  Uiso   1.00
C64    C     0.84713   0.30443   0.15733   0.00000  Uiso   1.00
C65    C     0.93113   0.36952   0.16928   0.00000  Uiso   1.00
C66    C     0.94215   0.46820   0.15125   0.00000  Uiso   1.00
C67    C     0.82101   0.11748   0.13902   0.00000  Uiso   1.00
C68    C     0.88307   0.02541   0.13557   0.00000  Uiso   1.00
C69    C     0.87211   0.96671   0.10212   0.00000  Uiso   1.00
H70    H     0.63565   0.27815   0.09734   0.00000  Uiso   1.00
H71    H     0.46947   0.26697   0.14170   0.00000  Uiso   1.00
H72    H     0.73294   0.46032   0.08795   0.00000  Uiso   1.00
H73    H     0.68488   0.11626   0.05425   0.00000  Uiso   1.00
H74    H     0.31632   0.24035   0.20366   0.00000  Uiso   1.00
H75    H     0.87189   0.64804   0.09031   0.00000  Uiso   1.00
H76    H     0.77054   0.92252   0.01924   0.00000  Uiso   1.00
H77    H     0.87526   0.16835   0.19565   0.00000  Uiso   1.00
H78    H     0.72222   0.15113   0.24542   0.00000  Uiso   1.00
H79    H     0.98569   0.34449   0.19167   0.00000  Uiso   1.00
H80    H     0.93762   0.00043   0.15797   0.00000  Uiso   1.00
H81    H     0.52146   0.14634   0.28784   0.00000  Uiso   1.00
H82    H     0.07703   0.55402   0.17448   0.00000  Uiso   1.00
H83    H     0.97568   0.82850   0.10342   0.00000  Uiso   1.00
O84    O     0.31390   0.18404   0.27671   0.00000  Uiso   1.00
O85    O     0.04279   0.71889   0.12800   0.00000  Uiso   1.00
O86    O     0.90982   0.76703   0.03477   0.00000  Uiso   1.00
N87    N     0.38560   0.22057   0.21664   0.00000  Uiso   1.00
N88    N     0.90501   0.60174   0.11067   0.00000  Uiso   1.00
N89    N     0.81028   0.92345   0.04422   0.00000  Uiso   1.00
N90    N     0.49599   0.16998   0.26193   0.00000  Uiso   1.00
N91    N     0.01539   0.55115   0.15596   0.00000  Uiso   1.00
N92    N     0.92066   0.87286   0.08952   0.00000  Uiso   1.00
C93    C     0.75299   0.80946   0.36986   0.00000  Uiso   1.00
C94    C     0.73168   0.86652   0.40760   0.00000  Uiso   1.00
C95    C     0.74195   0.97599   0.41410   0.00000  Uiso   1.00
C96    C     0.71874   0.01251   0.45061   0.00000  Uiso   1.00
C97    C     0.69061   0.11183   0.50481   0.00000  Uiso   1.00
C98    C     0.83674   0.72338   0.37840   0.00000  Uiso   1.00
C99    C     0.93534   0.71249   0.36034   0.00000  Uiso   1.00
C100   C     0.00057   0.62849   0.37226   0.00000  Uiso   1.00
C101   C     0.13552   0.50554   0.38111   0.00000  Uiso   1.00
C102   C     0.64980   0.74950   0.36009   0.00000  Uiso   1.00
C103   C     0.59123   0.76055   0.32664   0.00000  Uiso   1.00
C104   C     0.49907   0.69853   0.32314   0.00000  Uiso   1.00
C105   C     0.34377   0.61614   0.30356   0.00000  Uiso   1.00
C106   C     0.69350   0.67964   0.42313   0.00000  Uiso   1.00
C107   C     0.69937   0.79601   0.43653   0.00000  Uiso   1.00
C108   C     0.67613   0.83237   0.47304   0.00000  Uiso   1.00
C109   C     0.68636   0.94187   0.47959   0.00000  Uiso   1.00
C110   C     0.80443   0.65287   0.40733   0.00000  Uiso   1.00
C111   C     0.86952   0.56887   0.41928   0.00000  Uiso   1.00
C112   C     0.96820   0.55785   0.40125   0.00000  Uiso   1.00
C113   C     0.61748   0.67899   0.38902   0.00000  Uiso   1.00
C114   C     0.52541   0.61693   0.38557   0.00000  Uiso   1.00
C115   C     0.46671   0.62789   0.35212   0.00000  Uiso   1.00
H116   H     0.77815   0.86435   0.34734   0.00000  Uiso   1.00
H117   H     0.76697   0.03053   0.39170   0.00000  Uiso   1.00
H118   H     0.96032   0.76706   0.33795   0.00000  Uiso   1.00
H119   H     0.61626   0.81512   0.30425   0.00000  Uiso   1.00
H120   H     0.74035   0.18368   0.45366   0.00000  Uiso   1.00
H121   H     0.14804   0.62811   0.34031   0.00000  Uiso   1.00
H122   H     0.42252   0.72946   0.26924   0.00000  Uiso   1.00
H123   H     0.66835   0.62474   0.44565   0.00000  Uiso   1.00
H124   H     0.65113   0.77778   0.49542   0.00000  Uiso   1.00
H125   H     0.84449   0.51431   0.44167   0.00000  Uiso   1.00
H126   H     0.50043   0.56238   0.40797   0.00000  Uiso   1.00
H127   H     0.64634   0.97854   0.53784   0.00000  Uiso   1.00
H128   H     0.05402   0.42297   0.42448   0.00000  Uiso   1.00
H129   H     0.32850   0.52432   0.35342   0.00000  Uiso   1.00
O130   O     0.68404   0.18610   0.52671   0.00000  Uiso   1.00
O131   O     0.21889   0.45721   0.37800   0.00000  Uiso   1.00
O132   O     0.26703   0.59018   0.28477   0.00000  Uiso   1.00
N133   N     0.72057   0.11440   0.46664   0.00000  Uiso   1.00
N134   N     0.10174   0.59499   0.36067   0.00000  Uiso   1.00
N135   N     0.42345   0.68972   0.29422   0.00000  Uiso   1.00
N136   N     0.66998   0.00401   0.51193   0.00000  Uiso   1.00
N137   N     0.05115   0.48461   0.40596   0.00000  Uiso   1.00
N138   N     0.37286   0.57934   0.33952   0.00000  Uiso   1.00
C139   C     0.24701   0.19054   0.86986   0.00000  Uiso   1.00
C140   C     0.26832   0.13348   0.90760   0.00000  Uiso   1.00
C141   C     0.25805   0.02401   0.91410   0.00000  Uiso   1.00
C142   C     0.28126   0.98749   0.95061   0.00000  Uiso   1.00
C143   C     0.30939   0.88817   0.00481   0.00000  Uiso   1.00
C144   C     0.16326   0.27662   0.87840   0.00000  Uiso   1.00
C145   C     0.06466   0.28751   0.86034   0.00000  Uiso   1.00
C146   C     0.99943   0.37151   0.87226   0.00000  Uiso   1.00
C147   C     0.86448   0.49446   0.88111   0.00000  Uiso   1.00
C148   C     0.35020   0.25050   0.86009   0.00000  Uiso   1.00
C149   C     0.40877   0.23945   0.82664   0.00000  Uiso   1.00
C150   C     0.50093   0.30147   0.82314   0.00000  Uiso   1.00
C151   C     0.65623   0.38386   0.80356   0.00000  Uiso   1.00
C152   C     0.30650   0.32036   0.92313   0.00000  Uiso   1.00
C153   C     0.30063   0.20399   0.93653   0.00000  Uiso   1.00
C154   C     0.32387   0.16763   0.97304   0.00000  Uiso   1.00
C155   C     0.31364   0.05813   0.97959   0.00000  Uiso   1.00
C156   C     0.19557   0.34713   0.90733   0.00000  Uiso   1.00
C157   C     0.13048   0.43113   0.91928   0.00000  Uiso   1.00
C158   C     0.03180   0.44215   0.90125   0.00000  Uiso   1.00
C159   C     0.38252   0.32101   0.88902   0.00000  Uiso   1.00
C160   C     0.47459   0.38307   0.88557   0.00000  Uiso   1.00
C161   C     0.53329   0.37211   0.85212   0.00000  Uiso   1.00
H162   H     0.22185   0.13565   0.84734   0.00000  Uiso   1.00
H163   H     0.23303   0.96947   0.89170   0.00000  Uiso   1.00
H164   H     0.03968   0.23294   0.83795   0.00000  Uiso   1.00
H165   H     0.38374   0.18488   0.80425   0.00000  Uiso   1.00
H166   H     0.25965   0.81632   0.95366   0.00000  Uiso   1.00
H167   H     0.85196   0.37189   0.84031   0.00000  Uiso   1.00
H168   H     0.57748   0.27054   0.76924   0.00000  Uiso   1.00
H169   H     0.33165   0.37526   0.94565   0.00000  Uiso   1.00
H170   H     0.34887   0.22222   0.99542   0.00000  Uiso   1.00
H171   H     0.15551   0.48569   0.94167   0.00000  Uiso   1.00
H172   H     0.49957   0.43762   0.90797   0.00000  Uiso   1.00
H173   H     0.35366   0.02146   0.03784   0.00000  Uiso   1.00
H174   H     0.94598   0.57703   0.92448   0.00000  Uiso   1.00
H175   H     0.67150   0.47568   0.85342   0.00000  Uiso   1.00
O176   O     0.31596   0.81390   0.02671   0.00000  Uiso   1.00
O177   O     0.78111   0.54279   0.87800   0.00000  Uiso   1.00
O178   O     0.73297   0.40982   0.78477   0.00000  Uiso   1.00
N179   N     0.27943   0.88560   0.96664   0.00000  Uiso   1.00
N180   N     0.89826   0.40501   0.86067   0.00000  Uiso   1.00
N181   N     0.57655   0.31028   0.79422   0.00000  Uiso   1.00
N182   N     0.33002   0.99599   0.01193   0.00000  Uiso   1.00
N183   N     0.94885   0.51539   0.90596   0.00000  Uiso   1.00
N184   N     0.62714   0.42066   0.83952   0.00000  Uiso   1.00
C185   C     0.19054   0.24701   0.13014   0.00000  Uiso   1.00
C186   C     0.13348   0.26832   0.09240   0.00000  Uiso   1.00
C187   C     0.02401   0.25805   0.08590   0.00000  Uiso   1.00
C188   C     0.98749   0.28126   0.04939   0.00000  Uiso   1.00
C189   C     0.88817   0.30939   0.99519   0.00000  Uiso   1.00
C190   C     0.27662   0.16326   0.12160   0.00000  Uiso   1.00
C191   C     0.28751   0.06466   0.13966   0.00000  Uiso   1.00
C192   C     0.37151   0.99943   0.12774   0.00000  Uiso   1.00
C193   C     0.49446   0.86448   0.11889   0.00000  Uiso   1.00
C194   C     0.25050   0.35020   0.13991   0.00000  Uiso   1.00
C195   C     0.23945   0.40877   0.17336   0.00000  Uiso   1.00
C196   C     0.30147   0.50093   0.17686   0.00000  Uiso   1.00
C197   C     0.38386   0.65623   0.19644   0.00000  Uiso   1.00
C198   C     0.32036   0.30650   0.07687   0.00000  Uiso   1.00
C199   C     0.20399   0.30063   0.06347   0.00000  Uiso   1.00
C200   C     0.16763   0.32387   0.02696   0.00000  Uiso   1.00
C201   C     0.05813   0.31364   0.02041   0.00000  Uiso   1.00
C202   C     0.34713   0.19557   0.09267   0.00000  Uiso   1.00
C203   C     0.43113   0.13048   0.08072   0.00000  Uiso   1.00
C204   C     0.44215   0.03180   0.09875   0.00000  Uiso   1.00
C205   C     0.32101   0.38252   0.11098   0.00000  Uiso   1.00
C206   C     0.38307   0.47459   0.11443   0.00000  Uiso   1.00
C207   C     0.37211   0.53329   0.14788   0.00000  Uiso   1.00
H208   H     0.13565   0.22185   0.15266   0.00000  Uiso   1.00
H209   H     0.96947   0.23303   0.10830   0.00000  Uiso   1.00
H210   H     0.23294   0.03968   0.16205   0.00000  Uiso   1.00
H211   H     0.18488   0.38374   0.19575   0.00000  Uiso   1.00
H212   H     0.81632   0.25965   0.04634   0.00000  Uiso   1.00
H213   H     0.37189   0.85196   0.15969   0.00000  Uiso   1.00
H214   H     0.27054   0.57748   0.23076   0.00000  Uiso   1.00
H215   H     0.37526   0.33165   0.05435   0.00000  Uiso   1.00
H216   H     0.22222   0.34887   0.00458   0.00000  Uiso   1.00
H217   H     0.48569   0.15551   0.05833   0.00000  Uiso   1.00
H218   H     0.43762   0.49957   0.09203   0.00000  Uiso   1.00
H219   H     0.02146   0.35366   0.96216   0.00000  Uiso   1.00
H220   H     0.57703   0.94598   0.07552   0.00000  Uiso   1.00
H221   H     0.47568   0.67150   0.14658   0.00000  Uiso   1.00
O222   O     0.81390   0.31596   0.97329   0.00000  Uiso   1.00
O223   O     0.54279   0.78111   0.12200   0.00000  Uiso   1.00
O224   O     0.40982   0.73297   0.21523   0.00000  Uiso   1.00
N225   N     0.88560   0.27943   0.03336   0.00000  Uiso   1.00
N226   N     0.40501   0.89826   0.13933   0.00000  Uiso   1.00
N227   N     0.31028   0.57655   0.20578   0.00000  Uiso   1.00
N228   N     0.99599   0.33002   0.98807   0.00000  Uiso   1.00
N229   N     0.51539   0.94885   0.09404   0.00000  Uiso   1.00
N230   N     0.42066   0.62714   0.16048   0.00000  Uiso   1.00
C231   C     0.80946   0.75299   0.63014   0.00000  Uiso   1.00
C232   C     0.86652   0.73168   0.59240   0.00000  Uiso   1.00
C233   C     0.97599   0.74195   0.58590   0.00000  Uiso   1.00
C234   C     0.01251   0.71874   0.54939   0.00000  Uiso   1.00
C235   C     0.11183   0.69061   0.49519   0.00000  Uiso   1.00
C236   C     0.72338   0.83674   0.62160   0.00000  Uiso   1.00
C237   C     0.71249   0.93534   0.63966   0.00000  Uiso   1.00
C238   C     0.62849   0.00057   0.62774   0.00000  Uiso   1.00
C239   C     0.50554   0.13552   0.61889   0.00000  Uiso   1.00
C240   C     0.74950   0.64980   0.63991   0.00000  Uiso   1.00
C241   C     0.76055   0.59123   0.67336   0.00000  Uiso   1.00
C242   C     0.69853   0.49907   0.67686   0.00000  Uiso   1.00
C243   C     0.61614   0.34377   0.69644   0.00000  Uiso   1.00
C244   C     0.67964   0.69350   0.57687   0.00000  Uiso   1.00
C245   C     0.79601   0.69937   0.56347   0.00000  Uiso   1.00
C246   C     0.83237   0.67613   0.52696   0.00000  Uiso   1.00
C247   C     0.94187   0.68636   0.52041   0.00000  Uiso   1.00
C248   C     0.65287   0.80443   0.59267   0.00000  Uiso   1.00
C249   C     0.56887   0.86952   0.58072   0.00000  Uiso   1.00
C250   C     0.55785   0.96820   0.59875   0.00000  Uiso   1.00
C251   C     0.67899   0.61748   0.61098   0.00000  Uiso   1.00
C252   C     0.61693   0.52541   0.61443   0.00000  Uiso   1.00
C253   C     0.62789   0.46671   0.64788   0.00000  Uiso   1.00
H254   H     0.86435   0.77815   0.65266   0.00000  Uiso   1.00
H255   H     0.03053   0.76697   0.60830   0.00000  Uiso   1.00
H256   H     0.76706   0.96032   0.66205   0.00000  Uiso   1.00
H257   H     0.81512   0.61626   0.69575   0.00000  Uiso   1.00
H258   H     0.18368   0.74035   0.54634   0.00000  Uiso   1.00
H259   H     0.62811   0.14804   0.65969   0.00000  Uiso   1.00
H260   H     0.72946   0.42252   0.73076   0.00000  Uiso   1.00
H261   H     0.62474   0.66835   0.55435   0.00000  Uiso   1.00
H262   H     0.77778   0.65113   0.50458   0.00000  Uiso   1.00
H263   H     0.51431   0.84449   0.55833   0.00000  Uiso   1.00
H264   H     0.56238   0.50043   0.59203   0.00000  Uiso   1.00
H265   H     0.97854   0.64634   0.46216   0.00000  Uiso   1.00
H266   H     0.42297   0.05402   0.57552   0.00000  Uiso   1.00
H267   H     0.52432   0.32850   0.64658   0.00000  Uiso   1.00
O268   O     0.18610   0.68404   0.47329   0.00000  Uiso   1.00
O269   O     0.45721   0.21889   0.62200   0.00000  Uiso   1.00
O270   O     0.59018   0.26703   0.71523   0.00000  Uiso   1.00
N271   N     0.11440   0.72057   0.53336   0.00000  Uiso   1.00
N272   N     0.59499   0.10174   0.63933   0.00000  Uiso   1.00
N273   N     0.68972   0.42345   0.70578   0.00000  Uiso   1.00
N274   N     0.00401   0.66998   0.48807   0.00000  Uiso   1.00
N275   N     0.48461   0.05115   0.59404   0.00000  Uiso   1.00
N276   N     0.57934   0.37286   0.66048   0.00000  Uiso   1.00
C277   C     0.74701   0.30946   0.38014   0.00000  Uiso   1.00
C278   C     0.76832   0.36652   0.34240   0.00000  Uiso   1.00
C279   C     0.75805   0.47599   0.33590   0.00000  Uiso   1.00
C280   C     0.78126   0.51251   0.29939   0.00000  Uiso   1.00
C281   C     0.80939   0.61183   0.24519   0.00000  Uiso   1.00
C282   C     0.66326   0.22338   0.37160   0.00000  Uiso   1.00
C283   C     0.56466   0.21249   0.38966   0.00000  Uiso   1.00
C284   C     0.49943   0.12849   0.37774   0.00000  Uiso   1.00
C285   C     0.36448   0.00554   0.36889   0.00000  Uiso   1.00
C286   C     0.85020   0.24950   0.38991   0.00000  Uiso   1.00
C287   C     0.90877   0.26055   0.42336   0.00000  Uiso   1.00
C288   C     0.00093   0.19853   0.42686   0.00000  Uiso   1.00
C289   C     0.15623   0.11614   0.44644   0.00000  Uiso   1.00
C290   C     0.80650   0.17964   0.32687   0.00000  Uiso   1.00
C291   C     0.80063   0.29601   0.31347   0.00000  Uiso   1.00
C292   C     0.82387   0.33237   0.27696   0.00000  Uiso   1.00
C293   C     0.81364   0.44187   0.27041   0.00000  Uiso   1.00
C294   C     0.69557   0.15287   0.34267   0.00000  Uiso   1.00
C295   C     0.63048   0.06887   0.33072   0.00000  Uiso   1.00
C296   C     0.53180   0.05785   0.34875   0.00000  Uiso   1.00
C297   C     0.88252   0.17899   0.36098   0.00000  Uiso   1.00
C298   C     0.97459   0.11693   0.36443   0.00000  Uiso   1.00
C299   C     0.03329   0.12789   0.39788   0.00000  Uiso   1.00
H300   H     0.72185   0.36435   0.40266   0.00000  Uiso   1.00
H301   H     0.73303   0.53053   0.35830   0.00000  Uiso   1.00
H302   H     0.53968   0.26706   0.41205   0.00000  Uiso   1.00
H303   H     0.88374   0.31512   0.44575   0.00000  Uiso   1.00
H304   H     0.75965   0.68368   0.29634   0.00000  Uiso   1.00
H305   H     0.35196   0.12811   0.40969   0.00000  Uiso   1.00
H306   H     0.07748   0.22946   0.48076   0.00000  Uiso   1.00
H307   H     0.83165   0.12474   0.30435   0.00000  Uiso   1.00
H308   H     0.84887   0.27778   0.25458   0.00000  Uiso   1.00
H309   H     0.65551   0.01431   0.30833   0.00000  Uiso   1.00
H310   H     0.99957   0.06238   0.34203   0.00000  Uiso   1.00
H311   H     0.85366   0.47854   0.21216   0.00000  Uiso   1.00
H312   H     0.44598   0.92297   0.32552   0.00000  Uiso   1.00
H313   H     0.17150   0.02432   0.39658   0.00000  Uiso   1.00
O314   O     0.81596   0.68610   0.22329   0.00000  Uiso   1.00
O315   O     0.28111   0.95721   0.37200   0.00000  Uiso   1.00
O316   O     0.23297   0.09018   0.46523   0.00000  Uiso   1.00
N317   N     0.77943   0.61440   0.28336   0.00000  Uiso   1.00
N318   N     0.39826   0.09499   0.38933   0.00000  Uiso   1.00
N319   N     0.07655   0.18972   0.45578   0.00000  Uiso   1.00
N320   N     0.83002   0.50401   0.23807   0.00000  Uiso   1.00
N321   N     0.44885   0.98461   0.34404   0.00000  Uiso   1.00
N322   N     0.12714   0.07934   0.41048   0.00000  Uiso   1.00
C323   C     0.25299   0.69054   0.88014   0.00000  Uiso   1.00
C324   C     0.23168   0.63348   0.84240   0.00000  Uiso   1.00
C325   C     0.24195   0.52401   0.83590   0.00000  Uiso   1.00
C326   C     0.21874   0.48749   0.79939   0.00000  Uiso   1.00
C327   C     0.19061   0.38817   0.74519   0.00000  Uiso   1.00
C328   C     0.33674   0.77662   0.87160   0.00000  Uiso   1.00
C329   C     0.43534   0.78751   0.88966   0.00000  Uiso   1.00
C330   C     0.50057   0.87151   0.87774   0.00000  Uiso   1.00
C331   C     0.63552   0.99446   0.86889   0.00000  Uiso   1.00
C332   C     0.14980   0.75050   0.88991   0.00000  Uiso   1.00
C333   C     0.09123   0.73945   0.92336   0.00000  Uiso   1.00
C334   C     0.99907   0.80147   0.92686   0.00000  Uiso   1.00
C335   C     0.84377   0.88386   0.94644   0.00000  Uiso   1.00
C336   C     0.19350   0.82036   0.82687   0.00000  Uiso   1.00
C337   C     0.19937   0.70399   0.81347   0.00000  Uiso   1.00
C338   C     0.17613   0.66763   0.77696   0.00000  Uiso   1.00
C339   C     0.18636   0.55813   0.77041   0.00000  Uiso   1.00
C340   C     0.30443   0.84713   0.84267   0.00000  Uiso   1.00
C341   C     0.36952   0.93113   0.83072   0.00000  Uiso   1.00
C342   C     0.46820   0.94215   0.84875   0.00000  Uiso   1.00
C343   C     0.11748   0.82101   0.86098   0.00000  Uiso   1.00
C344   C     0.02541   0.88307   0.86443   0.00000  Uiso   1.00
C345   C     0.96671   0.87211   0.89788   0.00000  Uiso   1.00
H346   H     0.27815   0.63565   0.90266   0.00000  Uiso   1.00
H347   H     0.26697   0.46947   0.85830   0.00000  Uiso   1.00
H348   H     0.46032   0.73294   0.91205   0.00000  Uiso   1.00
H349   H     0.11626   0.68488   0.94575   0.00000  Uiso   1.00
H350   H     0.24035   0.31632   0.79634   0.00000  Uiso   1.00
H351   H     0.64804   0.87189   0.90969   0.00000  Uiso   1.00
H352   H     0.92252   0.77054   0.98076   0.00000  Uiso   1.00
H353   H     0.16835   0.87526   0.80435   0.00000  Uiso   1.00
H354   H     0.15113   0.72222   0.75458   0.00000  Uiso   1.00
H355   H     0.34449   0.98569   0.80833   0.00000  Uiso   1.00
H356   H     0.00043   0.93762   0.84203   0.00000  Uiso   1.00
H357   H     0.14634   0.52146   0.71216   0.00000  Uiso   1.00
H358   H     0.55402   0.07703   0.82552   0.00000  Uiso   1.00
H359   H     0.82850   0.97568   0.89658   0.00000  Uiso   1.00
O360   O     0.18404   0.31390   0.72329   0.00000  Uiso   1.00
O361   O     0.71889   0.04279   0.87200   0.00000  Uiso   1.00
O362   O     0.76703   0.90982   0.96523   0.00000  Uiso   1.00
N363   N     0.22057   0.38560   0.78336   0.00000  Uiso   1.00
N364   N     0.60174   0.90501   0.88933   0.00000  Uiso   1.00
N365   N     0.92345   0.81028   0.95578   0.00000  Uiso   1.00
N366   N     0.16998   0.49599   0.73807   0.00000  Uiso   1.00
N367   N     0.55115   0.01539   0.84404   0.00000  Uiso   1.00
N368   N     0.87286   0.92066   0.91048   0.00000  Uiso   1.00
