data_job_06493
_audit_creation_date              2018-12-19
_audit_creation_method            'Materials Studio'
_symmetry_space_group_name_H-M    'P1'
_symmetry_Int_Tables_number       1
_symmetry_cell_setting            triclinic
loop_
_symmetry_equiv_pos_as_xyz
  x,y,z
_cell_length_a                    12.4885
_cell_length_b                    25.5710
_cell_length_c                    28.4033
_cell_angle_alpha                 70.0826
_cell_angle_beta                  100.1328
_cell_angle_gamma                 88.0875
loop_
_atom_site_label
_atom_site_type_symbol
_atom_site_fract_x
_atom_site_fract_y
_atom_site_fract_z
_atom_site_U_iso_or_equiv
_atom_site_adp_type
_atom_site_occupancy
C1     C     0.33511   0.36035   0.09159   0.00000  Uiso   1.00
C2     C     0.23649   0.32829   0.10329   0.00000  Uiso   1.00
C3     C     0.19122   0.31982   0.14625   0.00000  Uiso   1.00
C4     C     0.10114   0.28936   0.14990   0.00000  Uiso   1.00
C5     C     0.95460   0.24279   0.17385   0.00000  Uiso   1.00
C6     C     0.41762   0.31996   0.08419   0.00000  Uiso   1.00
C7     C     0.52464   0.30450   0.11109   0.00000  Uiso   1.00
C8     C     0.58704   0.26703   0.09865   0.00000  Uiso   1.00
C9     C     0.72173   0.20756   0.09292   0.00000  Uiso   1.00
C10    C     0.29678   0.40603   0.03939   0.00000  Uiso   1.00
C11    C     0.30223   0.46294   0.02860   0.00000  Uiso   1.00
C12    C     0.26292   0.49793   0.97844   0.00000  Uiso   1.00
C13    C     0.20999   0.57209   0.90315   0.00000  Uiso   1.00
C14    C     0.25563   0.32131   0.02169   0.00000  Uiso   1.00
C15    C     0.19332   0.30709   0.06532   0.00000  Uiso   1.00
C16    C     0.10328   0.27663   0.06890   0.00000  Uiso   1.00
C17    C     0.05789   0.26812   0.11186   0.00000  Uiso   1.00
C18    C     0.37445   0.29876   0.04623   0.00000  Uiso   1.00
C19    C     0.43671   0.26131   0.03374   0.00000  Uiso   1.00
C20    C     0.54380   0.24579   0.06061   0.00000  Uiso   1.00
C21    C     0.25361   0.38483   0.00142   0.00000  Uiso   1.00
C22    C     0.21429   0.41974   0.95126   0.00000  Uiso   1.00
C23    C     0.21967   0.47669   0.94040   0.00000  Uiso   1.00
H24    H     0.36873   0.37686   0.12116   0.00000  Uiso   1.00
H25    H     0.22466   0.33624   0.17563   0.00000  Uiso   1.00
H26    H     0.55803   0.32092   0.14046   0.00000  Uiso   1.00
H27    H     0.33564   0.47933   0.05799   0.00000  Uiso   1.00
H28    H     0.04591   0.28183   0.21928   0.00000  Uiso   1.00
H29    H     0.74886   0.24956   0.14513   0.00000  Uiso   1.00
H30    H     0.27992   0.58359   0.97122   0.00000  Uiso   1.00
H31    H     0.22203   0.30480   0.99212   0.00000  Uiso   1.00
H32    H     0.06989   0.26023   0.03951   0.00000  Uiso   1.00
H33    H     0.40327   0.24491   0.00435   0.00000  Uiso   1.00
H34    H     0.18089   0.40332   0.92188   0.00000  Uiso   1.00
H35    H     0.92031   0.22014   0.10881   0.00000  Uiso   1.00
H36    H     0.62326   0.18786   0.03465   0.00000  Uiso   1.00
H37    H     0.15431   0.52190   0.86075   0.00000  Uiso   1.00
O38    O     0.88570   0.22295   0.19756   0.00000  Uiso   1.00
O39    O     0.80795   0.18061   0.10026   0.00000  Uiso   1.00
O40    O     0.19271   0.61886   0.87211   0.00000  Uiso   1.00
N41    N     0.03721   0.27344   0.18677   0.00000  Uiso   1.00
N42    N     0.69442   0.24326   0.11745   0.00000  Uiso   1.00
N43    N     0.25603   0.55555   0.95486   0.00000  Uiso   1.00
N44    N     0.96963   0.24024   0.12733   0.00000  Uiso   1.00
N45    N     0.62684   0.21006   0.05801   0.00000  Uiso   1.00
N46    N     0.18844   0.52235   0.89542   0.00000  Uiso   1.00
C47    C     0.11866   0.67721   0.20249   0.00000  Uiso   1.00
C48    C     0.99516   0.67565   0.19636   0.00000  Uiso   1.00
C49    C     0.93652   0.63516   0.18442   0.00000  Uiso   1.00
C50    C     0.82407   0.64119   0.18052   0.00000  Uiso   1.00
C51    C     0.64018   0.63194   0.16979   0.00000  Uiso   1.00
C52    C     0.13642   0.73376   0.16512   0.00000  Uiso   1.00
C53    C     0.19657   0.74213   0.12692   0.00000  Uiso   1.00
C54    C     0.20304   0.79708   0.09673   0.00000  Uiso   1.00
C55    C     0.23853   0.87806   0.03753   0.00000  Uiso   1.00
C56    C     0.15901   0.67893   0.25578   0.00000  Uiso   1.00
C57    C     0.23817   0.64119   0.29382   0.00000  Uiso   1.00
C58    C     0.26368   0.64998   0.33995   0.00000  Uiso   1.00
C59    C     0.33424   0.64581   0.42152   0.00000  Uiso   1.00
C60    C     0.02323   0.75995   0.21678   0.00000  Uiso   1.00
C61    C     0.94333   0.72059   0.20411   0.00000  Uiso   1.00
C62    C     0.83093   0.72669   0.20023   0.00000  Uiso   1.00
C63    C     0.77214   0.68621   0.18830   0.00000  Uiso   1.00
C64    C     0.08459   0.77870   0.17288   0.00000  Uiso   1.00
C65    C     0.09098   0.83366   0.14273   0.00000  Uiso   1.00
C66    C     0.15112   0.84210   0.10450   0.00000  Uiso   1.00
C67    C     0.10717   0.72386   0.26354   0.00000  Uiso   1.00
C68    C     0.13257   0.73272   0.30963   0.00000  Uiso   1.00
C69    C     0.21175   0.69500   0.34773   0.00000  Uiso   1.00
H70    H     0.15902   0.64223   0.19644   0.00000  Uiso   1.00
H71    H     0.97667   0.60039   0.17841   0.00000  Uiso   1.00
H72    H     0.23668   0.70734   0.12093   0.00000  Uiso   1.00
H73    H     0.27826   0.60642   0.28780   0.00000  Uiso   1.00
H74    H     0.75162   0.57382   0.16183   0.00000  Uiso   1.00
H75    H     0.29991   0.79934   0.04063   0.00000  Uiso   1.00
H76    H     0.38761   0.58653   0.39251   0.00000  Uiso   1.00
H77    H     0.98287   0.79493   0.22282   0.00000  Uiso   1.00
H78    H     0.79084   0.76147   0.20624   0.00000  Uiso   1.00
H79    H     0.05086   0.86842   0.14875   0.00000  Uiso   1.00
H80    H     0.09245   0.76750   0.31562   0.00000  Uiso   1.00
H81    H     0.60080   0.70456   0.18441   0.00000  Uiso   1.00
H82    H     0.14910   0.93008   0.06321   0.00000  Uiso   1.00
H83    H     0.23679   0.71727   0.41509   0.00000  Uiso   1.00
O84    O     0.55307   0.61443   0.16172   0.00000  Uiso   1.00
O85    O     0.27242   0.91031   0.00272   0.00000  Uiso   1.00
O86    O     0.38746   0.63109   0.46437   0.00000  Uiso   1.00
N87    N     0.74248   0.60918   0.16943   0.00000  Uiso   1.00
N88    N     0.25509   0.82003   0.05611   0.00000  Uiso   1.00
N89    N     0.33709   0.62107   0.38508   0.00000  Uiso   1.00
N90    N     0.66133   0.67953   0.18158   0.00000  Uiso   1.00
N91    N     0.17393   0.89038   0.06826   0.00000  Uiso   1.00
N92    N     0.25594   0.69142   0.39723   0.00000  Uiso   1.00
C93    C     0.92298   0.13590   0.66319   0.00000  Uiso   1.00
C94    C     0.82380   0.15621   0.67917   0.00000  Uiso   1.00
C95    C     0.74745   0.20096   0.64893   0.00000  Uiso   1.00
C96    C     0.66264   0.21288   0.67058   0.00000  Uiso   1.00
C97    C     0.50990   0.24926   0.68778   0.00000  Uiso   1.00
C98    C     0.02214   0.13707   0.70260   0.00000  Uiso   1.00
C99    C     0.11255   0.16573   0.69207   0.00000  Uiso   1.00
C100   C     0.19471   0.16153   0.73345   0.00000  Uiso   1.00
C101   C     0.34993   0.16817   0.78703   0.00000  Uiso   1.00
C102   C     0.91285   0.07439   0.67098   0.00000  Uiso   1.00
C103   C     0.91139   0.05033   0.63386   0.00000  Uiso   1.00
C104   C     0.90156   0.99335   0.64861   0.00000  Uiso   1.00
C105   C     0.88708   0.90266   0.65309   0.00000  Uiso   1.00
C106   C     0.90815   0.07748   0.75539   0.00000  Uiso   1.00
C107   C     0.81575   0.12448   0.72925   0.00000  Uiso   1.00
C108   C     0.73104   0.13632   0.75094   0.00000  Uiso   1.00
C109   C     0.65457   0.18109   0.72074   0.00000  Uiso   1.00
C110   C     0.01409   0.10534   0.75268   0.00000  Uiso   1.00
C111   C     0.09614   0.10109   0.79408   0.00000  Uiso   1.00
C112   C     0.18665   0.12974   0.78362   0.00000  Uiso   1.00
C113   C     0.90479   0.04265   0.72106   0.00000  Uiso   1.00
C114   C     0.89497   0.98570   0.73587   0.00000  Uiso   1.00
C115   C     0.89349   0.96156   0.69878   0.00000  Uiso   1.00
H116   H     0.92926   0.16061   0.62420   0.00000  Uiso   1.00
H117   H     0.75372   0.22552   0.61018   0.00000  Uiso   1.00
H118   H     0.11876   0.19028   0.65332   0.00000  Uiso   1.00
H119   H     0.91762   0.07490   0.59511   0.00000  Uiso   1.00
H120   H     0.55556   0.28349   0.61673   0.00000  Uiso   1.00
H121   H     0.32530   0.20919   0.70768   0.00000  Uiso   1.00
H122   H     0.90117   0.96589   0.58494   0.00000  Uiso   1.00
H123   H     0.90188   0.05277   0.79438   0.00000  Uiso   1.00
H124   H     0.72483   0.11176   0.78970   0.00000  Uiso   1.00
H125   H     0.08988   0.07653   0.83283   0.00000  Uiso   1.00
H126   H     0.88874   0.96115   0.77462   0.00000  Uiso   1.00
H127   H     0.53212   0.19117   0.76243   0.00000  Uiso   1.00
H128   H     0.30187   0.11686   0.85338   0.00000  Uiso   1.00
H129   H     0.87772   0.87357   0.73064   0.00000  Uiso   1.00
O130   O     0.42788   0.27809   0.68343   0.00000  Uiso   1.00
O131   O     0.43776   0.18060   0.80275   0.00000  Uiso   1.00
O132   O     0.88130   0.86140   0.64172   0.00000  Uiso   1.00
N133   N     0.57433   0.25366   0.65166   0.00000  Uiso   1.00
N134   N     0.29399   0.18420   0.73669   0.00000  Uiso   1.00
N135   N     0.89748   0.95673   0.62194   0.00000  Uiso   1.00
N136   N     0.56171   0.20398   0.73006   0.00000  Uiso   1.00
N137   N     0.28137   0.13452   0.81509   0.00000  Uiso   1.00
N138   N     0.88487   0.90705   0.70034   0.00000  Uiso   1.00
C139   C     0.45882   0.90748   0.74857   0.00000  Uiso   1.00
C140   C     0.36844   0.87070   0.74114   0.00000  Uiso   1.00
C141   C     0.38297   0.81862   0.73678   0.00000  Uiso   1.00
C142   C     0.28992   0.79161   0.73019   0.00000  Uiso   1.00
C143   C     0.16538   0.73080   0.71901   0.00000  Uiso   1.00
C144   C     0.44992   0.91897   0.79709   0.00000  Uiso   1.00
C145   C     0.53297   0.90747   0.83977   0.00000  Uiso   1.00
C146   C     0.50851   0.92111   0.88027   0.00000  Uiso   1.00
C147   C     0.51050   0.93526   0.95594   0.00000  Uiso   1.00
C148   C     0.42714   0.96338   0.70476   0.00000  Uiso   1.00
C149   C     0.49103   0.98924   0.66981   0.00000  Uiso   1.00
C150   C     0.44740   0.04028   0.63258   0.00000  Uiso   1.00
C151   C     0.41401   0.12339   0.56489   0.00000  Uiso   1.00
C152   C     0.26773   0.95214   0.74460   0.00000  Uiso   1.00
C153   C     0.26465   0.89496   0.73899   0.00000  Uiso   1.00
C154   C     0.17155   0.86802   0.73239   0.00000  Uiso   1.00
C155   C     0.18594   0.81591   0.72803   0.00000  Uiso   1.00
C156   C     0.34614   0.94322   0.79494   0.00000  Uiso   1.00
C157   C     0.32155   0.95688   0.83538   0.00000  Uiso   1.00
C158   C     0.40453   0.94541   0.87811   0.00000  Uiso   1.00
C159   C     0.32335   0.98764   0.70260   0.00000  Uiso   1.00
C160   C     0.27961   0.03864   0.66542   0.00000  Uiso   1.00
C161   C     0.34342   0.06458   0.63042   0.00000  Uiso   1.00
H162   H     0.53962   0.88860   0.75025   0.00000  Uiso   1.00
H163   H     0.46330   0.79986   0.73846   0.00000  Uiso   1.00
H164   H     0.61328   0.88871   0.84143   0.00000  Uiso   1.00
H165   H     0.57134   0.97046   0.67149   0.00000  Uiso   1.00
H166   H     0.33292   0.71216   0.72446   0.00000  Uiso   1.00
H167   H     0.64917   0.89952   0.94156   0.00000  Uiso   1.00
H168   H     0.56074   0.07191   0.58322   0.00000  Uiso   1.00
H169   H     0.18692   0.97102   0.74292   0.00000  Uiso   1.00
H170   H     0.09124   0.88680   0.73073   0.00000  Uiso   1.00
H171   H     0.24123   0.97565   0.83370   0.00000  Uiso   1.00
H172   H     0.19929   0.05740   0.66376   0.00000  Uiso   1.00
H173   H     0.03095   0.78273   0.71818   0.00000  Uiso   1.00
H174   H     0.34720   0.97009   0.93529   0.00000  Uiso   1.00
H175   H     0.25877   0.14248   0.57695   0.00000  Uiso   1.00
O176   O     0.12536   0.69055   0.71345   0.00000  Uiso   1.00
O177   O     0.54027   0.93636   0.99828   0.00000  Uiso   1.00
O178   O     0.42426   0.16254   0.52814   0.00000  Uiso   1.00
N179   N     0.27498   0.74033   0.72464   0.00000  Uiso   1.00
N180   N     0.57065   0.91549   0.92763   0.00000  Uiso   1.00
N181   N     0.48799   0.07667   0.59262   0.00000  Uiso   1.00
N182   N     0.11249   0.77830   0.72127   0.00000  Uiso   1.00
N183   N     0.40816   0.95346   0.92425   0.00000  Uiso   1.00
N184   N     0.32550   0.11464   0.58924   0.00000  Uiso   1.00
C185   C     0.94039   0.66941   0.56419   0.00000  Uiso   1.00
C186   C     0.85863   0.68492   0.59250   0.00000  Uiso   1.00
C187   C     0.86590   0.72698   0.61314   0.00000  Uiso   1.00
C188   C     0.78281   0.73460   0.63756   0.00000  Uiso   1.00
C189   C     0.66910   0.76376   0.68094   0.00000  Uiso   1.00
C190   C     0.87485   0.67389   0.51209   0.00000  Uiso   1.00
C191   C     0.89578   0.70667   0.46512   0.00000  Uiso   1.00
C192   C     0.82635   0.70500   0.42184   0.00000  Uiso   1.00
C193   C     0.73787   0.71700   0.34038   0.00000  Uiso   1.00
C194   C     0.97769   0.60746   0.59255   0.00000  Uiso   1.00
C195   C     0.08508   0.58437   0.61323   0.00000  Uiso   1.00
C196   C     0.10224   0.52676   0.63768   0.00000  Uiso   1.00
C197   C     0.17344   0.43561   0.68116   0.00000  Uiso   1.00
C198   C     0.77990   0.60816   0.57086   0.00000  Uiso   1.00
C199   C     0.77146   0.65165   0.59612   0.00000  Uiso   1.00
C200   C     0.68834   0.65921   0.62051   0.00000  Uiso   1.00
C201   C     0.69549   0.70127   0.64119   0.00000  Uiso   1.00
C202   C     0.78769   0.64062   0.51571   0.00000  Uiso   1.00
C203   C     0.71822   0.63890   0.47249   0.00000  Uiso   1.00
C204   C     0.73902   0.67167   0.42546   0.00000  Uiso   1.00
C205   C     0.89052   0.57418   0.59617   0.00000  Uiso   1.00
C206   C     0.90752   0.51660   0.62060   0.00000  Uiso   1.00
C207   C     0.01492   0.49343   0.64131   0.00000  Uiso   1.00
H208   H     0.00825   0.69532   0.56137   0.00000  Uiso   1.00
H209   H     0.93337   0.75272   0.61033   0.00000  Uiso   1.00
H210   H     0.96324   0.73241   0.46233   0.00000  Uiso   1.00
H211   H     0.15252   0.61013   0.61042   0.00000  Uiso   1.00
H212   H     0.81188   0.80171   0.66619   0.00000  Uiso   1.00
H213   H     0.87490   0.75886   0.35412   0.00000  Uiso   1.00
H214   H     0.27403   0.50101   0.66639   0.00000  Uiso   1.00
H215   H     0.71204   0.58225   0.57367   0.00000  Uiso   1.00
H216   H     0.62090   0.63345   0.62331   0.00000  Uiso   1.00
H217   H     0.65077   0.61314   0.47530   0.00000  Uiso   1.00
H218   H     0.84005   0.49086   0.62339   0.00000  Uiso   1.00
H219   H     0.55827   0.70490   0.67672   0.00000  Uiso   1.00
H220   H     0.62129   0.66206   0.36465   0.00000  Uiso   1.00
H221   H     0.02041   0.40421   0.67692   0.00000  Uiso   1.00
O222   O     0.63045   0.78904   0.70387   0.00000  Uiso   1.00
O223   O     0.71314   0.73282   0.29444   0.00000  Uiso   1.00
O224   O     0.23678   0.39453   0.70414   0.00000  Uiso   1.00
N225   N     0.76471   0.77189   0.66186   0.00000  Uiso   1.00
N226   N     0.82362   0.73184   0.37010   0.00000  Uiso   1.00
N227   N     0.19677   0.49077   0.66203   0.00000  Uiso   1.00
N228   N     0.62825   0.71980   0.66753   0.00000  Uiso   1.00
N229   N     0.68716   0.67975   0.37576   0.00000  Uiso   1.00
N230   N     0.06031   0.43868   0.66770   0.00000  Uiso   1.00
C231   C     0.78744   0.41800   0.90357   0.00000  Uiso   1.00
C232   C     0.69700   0.46511   0.87349   0.00000  Uiso   1.00
C233   C     0.70737   0.51336   0.83377   0.00000  Uiso   1.00
C234   C     0.61502   0.55140   0.81114   0.00000  Uiso   1.00
C235   C     0.48965   0.62604   0.76190   0.00000  Uiso   1.00
C236   C     0.74360   0.36480   0.89853   0.00000  Uiso   1.00
C237   C     0.79317   0.32872   0.87987   0.00000  Uiso   1.00
C238   C     0.74006   0.28231   0.87833   0.00000  Uiso   1.00
C239   C     0.68709   0.20120   0.86800   0.00000  Uiso   1.00
C240   C     0.79668   0.41157   0.95956   0.00000  Uiso   1.00
C241   C     0.89089   0.41479   0.99222   0.00000  Uiso   1.00
C242   C     0.88248   0.40774   0.04207   0.00000  Uiso   1.00
C243   C     0.91192   0.39925   0.12649   0.00000  Uiso   1.00
C244   C     0.60499   0.39973   0.93403   0.00000  Uiso   1.00
C245   C     0.59790   0.45519   0.89003   0.00000  Uiso   1.00
C246   C     0.50551   0.49316   0.86746   0.00000  Uiso   1.00
C247   C     0.51574   0.54146   0.82772   0.00000  Uiso   1.00
C248   C     0.64451   0.35488   0.91507   0.00000  Uiso   1.00
C249   C     0.59132   0.30851   0.91357   0.00000  Uiso   1.00
C250   C     0.64079   0.27237   0.89490   0.00000  Uiso   1.00
C251   C     0.69759   0.40165   0.97610   0.00000  Uiso   1.00
C252   C     0.68903   0.39459   0.02591   0.00000  Uiso   1.00
C253   C     0.78320   0.39780   0.05864   0.00000  Uiso   1.00
H254   H     0.86459   0.42572   0.89069   0.00000  Uiso   1.00
H255   H     0.78407   0.52102   0.82098   0.00000  Uiso   1.00
H256   H     0.86986   0.33640   0.86708   0.00000  Uiso   1.00
H257   H     0.96756   0.42247   0.97941   0.00000  Uiso   1.00
H258   H     0.65108   0.62230   0.75096   0.00000  Uiso   1.00
H259   H     0.83201   0.23301   0.84819   0.00000  Uiso   1.00
H260   H     0.03803   0.41449   0.08505   0.00000  Uiso   1.00
H261   H     0.52784   0.39201   0.94691   0.00000  Uiso   1.00
H262   H     0.42884   0.48547   0.88027   0.00000  Uiso   1.00
H263   H     0.51464   0.30085   0.92637   0.00000  Uiso   1.00
H264   H     0.61233   0.38691   0.03870   0.00000  Uiso   1.00
H265   H     0.36276   0.59345   0.79909   0.00000  Uiso   1.00
H266   H     0.54369   0.20415   0.89631   0.00000  Uiso   1.00
H267   H     0.74971   0.38563   0.13318   0.00000  Uiso   1.00
O268   O     0.44786   0.66995   0.73017   0.00000  Uiso   1.00
O269   O     0.68525   0.15921   0.85773   0.00000  Uiso   1.00
O270   O     0.95553   0.39731   0.16849   0.00000  Uiso   1.00
N271   N     0.59682   0.60269   0.77144   0.00000  Uiso   1.00
N272   N     0.76597   0.23873   0.86233   0.00000  Uiso   1.00
N273   N     0.95858   0.40838   0.08379   0.00000  Uiso   1.00
N274   N     0.44168   0.58716   0.79734   0.00000  Uiso   1.00
N275   N     0.61082   0.22320   0.88823   0.00000  Uiso   1.00
N276   N     0.80344   0.39285   0.10968   0.00000  Uiso   1.00
C277   C     0.47582   0.70468   0.88838   0.00000  Uiso   1.00
C278   C     0.57914   0.73325   0.87869   0.00000  Uiso   1.00
C279   C     0.62607   0.74086   0.83632   0.00000  Uiso   1.00
C280   C     0.72053   0.76800   0.83458   0.00000  Uiso   1.00
C281   C     0.87397   0.80952   0.81355   0.00000  Uiso   1.00
C282   C     0.39799   0.74706   0.89590   0.00000  Uiso   1.00
C283   C     0.29261   0.76627   0.86800   0.00000  Uiso   1.00
C284   C     0.23457   0.80503   0.88074   0.00000  Uiso   1.00
C285   C     0.10674   0.86796   0.88646   0.00000  Uiso   1.00
C286   C     0.50810   0.65750   0.94005   0.00000  Uiso   1.00
C287   C     0.49527   0.60140   0.94929   0.00000  Uiso   1.00
C288   C     0.52991   0.56476   0.99921   0.00000  Uiso   1.00
C289   C     0.57303   0.48863   0.07349   0.00000  Uiso   1.00
C290   C     0.56013   0.73936   0.96062   0.00000  Uiso   1.00
C291   C     0.62493   0.75209   0.91793   0.00000  Uiso   1.00
C292   C     0.71935   0.77923   0.91625   0.00000  Uiso   1.00
C293   C     0.76641   0.78687   0.87389   0.00000  Uiso   1.00
C294   C     0.44378   0.76590   0.93513   0.00000  Uiso   1.00
C295   C     0.38588   0.80464   0.94793   0.00000  Uiso   1.00
C296   C     0.28044   0.82390   0.92005   0.00000  Uiso   1.00
C297   C     0.55389   0.67634   0.97929   0.00000  Uiso   1.00
C298   C     0.58855   0.63977   0.02922   0.00000  Uiso   1.00
C299   C     0.57578   0.58363   0.03852   0.00000  Uiso   1.00
H300   H     0.44017   0.69002   0.85783   0.00000  Uiso   1.00
H301   H     0.59061   0.72628   0.80596   0.00000  Uiso   1.00
H302   H     0.25719   0.75168   0.83763   0.00000  Uiso   1.00
H303   H     0.45983   0.58684   0.91891   0.00000  Uiso   1.00
H304   H     0.77757   0.77480   0.76575   0.00000  Uiso   1.00
H305   H     0.07453   0.82835   0.83255   0.00000  Uiso   1.00
H306   H     0.50182   0.48075   0.00394   0.00000  Uiso   1.00
H307   H     0.59578   0.75403   0.99117   0.00000  Uiso   1.00
H308   H     0.75476   0.79380   0.94662   0.00000  Uiso   1.00
H309   H     0.42134   0.81920   0.97830   0.00000  Uiso   1.00
H310   H     0.62398   0.65436   0.05957   0.00000  Uiso   1.00
H311   H     0.91080   0.82961   0.87992   0.00000  Uiso   1.00
H312   H     0.20776   0.88316   0.94672   0.00000  Uiso   1.00
H313   H     0.63506   0.53556   0.11811   0.00000  Uiso   1.00
O314   O     0.94594   0.82723   0.79111   0.00000  Uiso   1.00
O315   O     0.02358   0.89748   0.87876   0.00000  Uiso   1.00
O316   O     0.58418   0.44143   0.10361   0.00000  Uiso   1.00
N317   N     0.78712   0.78223   0.79874   0.00000  Uiso   1.00
N318   N     0.12983   0.83231   0.86119   0.00000  Uiso   1.00
N319   N     0.52928   0.50733   0.02142   0.00000  Uiso   1.00
N320   N     0.85881   0.81172   0.86017   0.00000  Uiso   1.00
N321   N     0.20152   0.86180   0.92262   0.00000  Uiso   1.00
N322   N     0.60098   0.53682   0.08286   0.00000  Uiso   1.00
C323   C     0.59393   0.50293   0.68935   0.00000  Uiso   1.00
C324   C     0.71497   0.48884   0.71405   0.00000  Uiso   1.00
C325   C     0.78338   0.52490   0.72819   0.00000  Uiso   1.00
C326   C     0.89153   0.50405   0.75023   0.00000  Uiso   1.00
C327   C     0.07364   0.49051   0.78744   0.00000  Uiso   1.00
C328   C     0.53409   0.45956   0.72395   0.00000  Uiso   1.00
C329   C     0.45042   0.47101   0.74641   0.00000  Uiso   1.00
C330   C     0.40630   0.42552   0.77679   0.00000  Uiso   1.00
C331   C     0.30754   0.36653   0.82935   0.00000  Uiso   1.00
C332   C     0.58097   0.49107   0.63966   0.00000  Uiso   1.00
C333   C     0.53668   0.52901   0.59123   0.00000  Uiso   1.00
C334   C     0.53201   0.51004   0.55064   0.00000  Uiso   1.00
C335   C     0.50604   0.49997   0.47231   0.00000  Uiso   1.00
C336   C     0.66434   0.40177   0.70336   0.00000  Uiso   1.00
C337   C     0.75321   0.43389   0.72166   0.00000  Uiso   1.00
C338   C     0.86128   0.41297   0.74368   0.00000  Uiso   1.00
C339   C     0.92984   0.44900   0.75785   0.00000  Uiso   1.00
C340   C     0.57233   0.40461   0.73156   0.00000  Uiso   1.00
C341   C     0.52832   0.35909   0.76191   0.00000  Uiso   1.00
C342   C     0.44461   0.37047   0.78441   0.00000  Uiso   1.00
C343   C     0.61922   0.43612   0.64726   0.00000  Uiso   1.00
C344   C     0.61459   0.41708   0.60673   0.00000  Uiso   1.00
C345   C     0.57032   0.45499   0.55826   0.00000  Uiso   1.00
H346   H     0.56414   0.54571   0.68343   0.00000  Uiso   1.00
H347   H     0.75375   0.56742   0.72230   0.00000  Uiso   1.00
H348   H     0.42083   0.51354   0.74051   0.00000  Uiso   1.00
H349   H     0.50710   0.57153   0.58536   0.00000  Uiso   1.00
H350   H     0.98081   0.56725   0.76876   0.00000  Uiso   1.00
H351   H     0.27882   0.45364   0.80716   0.00000  Uiso   1.00
H352   H     0.46071   0.57592   0.47999   0.00000  Uiso   1.00
H353   H     0.69411   0.35899   0.70928   0.00000  Uiso   1.00
H354   H     0.89085   0.37045   0.74956   0.00000  Uiso   1.00
H355   H     0.55793   0.31657   0.76778   0.00000  Uiso   1.00
H356   H     0.64420   0.37456   0.61263   0.00000  Uiso   1.00
H357   H     0.09209   0.40738   0.79089   0.00000  Uiso   1.00
H358   H     0.39009   0.29377   0.82929   0.00000  Uiso   1.00
H359   H     0.57199   0.41605   0.50212   0.00000  Uiso   1.00
O360   O     0.16352   0.49822   0.80588   0.00000  Uiso   1.00
O361   O     0.24252   0.34917   0.85624   0.00000  Uiso   1.00
O362   O     0.48117   0.50960   0.42701   0.00000  Uiso   1.00
N363   N     0.98001   0.52806   0.76843   0.00000  Uiso   1.00
N364   N     0.32370   0.42184   0.80434   0.00000  Uiso   1.00
N365   N     0.49373   0.53616   0.49846   0.00000  Uiso   1.00
N366   N     0.03989   0.44203   0.78034   0.00000  Uiso   1.00
N367   N     0.38357   0.33582   0.81625   0.00000  Uiso   1.00
N368   N     0.55361   0.45013   0.51037   0.00000  Uiso   1.00
C369   C     0.05288   0.85360   0.51395   0.00000  Uiso   1.00
C370   C     0.15124   0.83382   0.49708   0.00000  Uiso   1.00
C371   C     0.22624   0.78800   0.52605   0.00000  Uiso   1.00
C372   C     0.31048   0.77680   0.50376   0.00000  Uiso   1.00
C373   C     0.46183   0.74097   0.48508   0.00000  Uiso   1.00
C374   C     0.95323   0.85482   0.47378   0.00000  Uiso   1.00
C375   C     0.86174   0.82667   0.48316   0.00000  Uiso   1.00
C376   C     0.77929   0.83316   0.44124   0.00000  Uiso   1.00
C377   C     0.62319   0.82997   0.38639   0.00000  Uiso   1.00
C378   C     0.06529   0.91438   0.50856   0.00000  Uiso   1.00
C379   C     0.06799   0.93632   0.54717   0.00000  Uiso   1.00
C380   C     0.07986   0.99297   0.53454   0.00000  Uiso   1.00
C381   C     0.09776   0.08226   0.53368   0.00000  Uiso   1.00
C382   C     0.06911   0.91520   0.42284   0.00000  Uiso   1.00
C383   C     0.16005   0.86728   0.44760   0.00000  Uiso   1.00
C384   C     0.24420   0.85615   0.42525   0.00000  Uiso   1.00
C385   C     0.31932   0.81032   0.45418   0.00000  Uiso   1.00
C386   C     0.96204   0.88828   0.42429   0.00000  Uiso   1.00
C387   C     0.87970   0.89482   0.38236   0.00000  Uiso   1.00
C388   C     0.78812   0.86668   0.39167   0.00000  Uiso   1.00
C389   C     0.07411   0.94784   0.45907   0.00000  Uiso   1.00
C390   C     0.08596   0.00447   0.44637   0.00000  Uiso   1.00
C391   C     0.08869   0.02648   0.48496   0.00000  Uiso   1.00
H392   H     0.04600   0.82756   0.55248   0.00000  Uiso   1.00
H393   H     0.21938   0.76211   0.56435   0.00000  Uiso   1.00
H394   H     0.85493   0.80078   0.52146   0.00000  Uiso   1.00
H395   H     0.06116   0.91041   0.58546   0.00000  Uiso   1.00
H396   H     0.41546   0.70430   0.55567   0.00000  Uiso   1.00
H397   H     0.64699   0.78585   0.46524   0.00000  Uiso   1.00
H398   H     0.08186   0.01703   0.60021   0.00000  Uiso   1.00
H399   H     0.07598   0.94125   0.38431   0.00000  Uiso   1.00
H400   H     0.25101   0.88205   0.38696   0.00000  Uiso   1.00
H401   H     0.88656   0.92072   0.34407   0.00000  Uiso   1.00
H402   H     0.09279   0.03035   0.40807   0.00000  Uiso   1.00
H403   H     0.44113   0.80164   0.41170   0.00000  Uiso   1.00
H404   H     0.67265   0.88320   0.32126   0.00000  Uiso   1.00
H405   H     0.10753   0.11438   0.45623   0.00000  Uiso   1.00
O406   O     0.54287   0.71196   0.48845   0.00000  Uiso   1.00
O407   O     0.53466   0.81896   0.36981   0.00000  Uiso   1.00
O408   O     0.10521   0.12227   0.54689   0.00000  Uiso   1.00
N409   N     0.39750   0.73534   0.52143   0.00000  Uiso   1.00
N410   N     0.67903   0.81158   0.43688   0.00000  Uiso   1.00
N411   N     0.08557   0.02772   0.56306   0.00000  Uiso   1.00
N412   N     0.41131   0.78772   0.44396   0.00000  Uiso   1.00
N413   N     0.69284   0.86396   0.35941   0.00000  Uiso   1.00
N414   N     0.09938   0.08010   0.48559   0.00000  Uiso   1.00
C415   C     0.48600   0.24544   0.28240   0.00000  Uiso   1.00
C416   C     0.56185   0.28992   0.26289   0.00000  Uiso   1.00
C417   C     0.53662   0.34723   0.24803   0.00000  Uiso   1.00
C418   C     0.61716   0.38094   0.23130   0.00000  Uiso   1.00
C419   C     0.71939   0.45348   0.20125   0.00000  Uiso   1.00
C420   C     0.47746   0.21121   0.24743   0.00000  Uiso   1.00
C421   C     0.38127   0.20233   0.21959   0.00000  Uiso   1.00
C422   C     0.39077   0.16978   0.18986   0.00000  Uiso   1.00
C423   C     0.36198   0.12008   0.13584   0.00000  Uiso   1.00
C424   C     0.54744   0.20639   0.33462   0.00000  Uiso   1.00
C425   C     0.51009   0.19344   0.38009   0.00000  Uiso   1.00
C426   C     0.57849   0.15682   0.42376   0.00000  Uiso   1.00
C427   C     0.65836   0.09964   0.50512   0.00000  Uiso   1.00
C428   C     0.67388   0.20341   0.27911   0.00000  Uiso   1.00
C429   C     0.66390   0.26709   0.26110   0.00000  Uiso   1.00
C430   C     0.74450   0.30073   0.24439   0.00000  Uiso   1.00
C431   C     0.71940   0.35807   0.22951   0.00000  Uiso   1.00
C432   C     0.57950   0.18838   0.24564   0.00000  Uiso   1.00
C433   C     0.58915   0.15583   0.21595   0.00000  Uiso   1.00
C434   C     0.49300   0.14691   0.18807   0.00000  Uiso   1.00
C435   C     0.64949   0.18356   0.33283   0.00000  Uiso   1.00
C436   C     0.71796   0.14694   0.37644   0.00000  Uiso   1.00
C437   C     0.68073   0.13395   0.42197   0.00000  Uiso   1.00
H438   H     0.40654   0.26321   0.28379   0.00000  Uiso   1.00
H439   H     0.45763   0.36488   0.24942   0.00000  Uiso   1.00
H440   H     0.30231   0.22000   0.22099   0.00000  Uiso   1.00
H441   H     0.43111   0.21112   0.38146   0.00000  Uiso   1.00
H442   H     0.55927   0.46753   0.21050   0.00000  Uiso   1.00
H443   H     0.23176   0.16203   0.15057   0.00000  Uiso   1.00
H444   H     0.50335   0.14330   0.48895   0.00000  Uiso   1.00
H445   H     0.75334   0.18563   0.27771   0.00000  Uiso   1.00
H446   H     0.82346   0.28305   0.24301   0.00000  Uiso   1.00
H447   H     0.66813   0.13817   0.21457   0.00000  Uiso   1.00
H448   H     0.79693   0.12928   0.37505   0.00000  Uiso   1.00
H449   H     0.85618   0.40111   0.20529   0.00000  Uiso   1.00
H450   H     0.52867   0.09560   0.14536   0.00000  Uiso   1.00
H451   H     0.80027   0.07688   0.48375   0.00000  Uiso   1.00
O452   O     0.74758   0.49980   0.18516   0.00000  Uiso   1.00
O453   O     0.31790   0.09898   0.10654   0.00000  Uiso   1.00
O454   O     0.67423   0.07442   0.55049   0.00000  Uiso   1.00
N455   N     0.61953   0.43853   0.21405   0.00000  Uiso   1.00
N456   N     0.31333   0.15291   0.15801   0.00000  Uiso   1.00
N457   N     0.56723   0.13539   0.47437   0.00000  Uiso   1.00
N458   N     0.77930   0.40279   0.21125   0.00000  Uiso   1.00
N459   N     0.47310   0.11717   0.15521   0.00000  Uiso   1.00
N460   N     0.72700   0.09965   0.47157   0.00000  Uiso   1.00
C461   C     0.97126   0.36510   0.55236   0.00000  Uiso   1.00
C462   C     0.03422   0.32743   0.53275   0.00000  Uiso   1.00
C463   C     0.99004   0.30470   0.49659   0.00000  Uiso   1.00
C464   C     0.06124   0.27130   0.48377   0.00000  Uiso   1.00
C465   C     0.14204   0.21435   0.44991   0.00000  Uiso   1.00
C466   C     0.99158   0.33648   0.61026   0.00000  Uiso   1.00
C467   C     0.91154   0.32136   0.63927   0.00000  Uiso   1.00
C468   C     0.94685   0.29558   0.69170   0.00000  Uiso   1.00
C469   C     0.96145   0.25271   0.77818   0.00000  Uiso   1.00
C470   C     0.02849   0.41844   0.54254   0.00000  Uiso   1.00
C471   C     0.97948   0.47225   0.51462   0.00000  Uiso   1.00
C472   C     0.04587   0.51549   0.51005   0.00000  Uiso   1.00
C473   C     0.11778   0.59988   0.49138   0.00000  Uiso   1.00
C474   C     0.17628   0.34621   0.59390   0.00000  Uiso   1.00
C475   C     0.14557   0.31717   0.55531   0.00000  Uiso   1.00
C476   C     0.21686   0.28380   0.54255   0.00000  Uiso   1.00
C477   C     0.17280   0.26102   0.50637   0.00000  Uiso   1.00
C478   C     0.10293   0.32622   0.63282   0.00000  Uiso   1.00
C479   C     0.13837   0.30046   0.68523   0.00000  Uiso   1.00
C480   C     0.05841   0.28530   0.71431   0.00000  Uiso   1.00
C481   C     0.13985   0.40819   0.56510   0.00000  Uiso   1.00
C482   C     0.20631   0.45135   0.56058   0.00000  Uiso   1.00
C483   C     0.15742   0.50521   0.53265   0.00000  Uiso   1.00
H484   H     0.88457   0.37309   0.53479   0.00000  Uiso   1.00
H485   H     0.90385   0.31264   0.47914   0.00000  Uiso   1.00
H486   H     0.82537   0.32931   0.62180   0.00000  Uiso   1.00
H487   H     0.89331   0.48017   0.49716   0.00000  Uiso   1.00
H488   H     0.97434   0.24109   0.42740   0.00000  Uiso   1.00
H489   H     0.80885   0.27625   0.72820   0.00000  Uiso   1.00
H490   H     0.95211   0.59438   0.46539   0.00000  Uiso   1.00
H491   H     0.26298   0.33822   0.61147   0.00000  Uiso   1.00
H492   H     0.30303   0.27587   0.56001   0.00000  Uiso   1.00
H493   H     0.22455   0.29253   0.70267   0.00000  Uiso   1.00
H494   H     0.29249   0.44340   0.57804   0.00000  Uiso   1.00
H495   H     0.29832   0.21124   0.49304   0.00000  Uiso   1.00
H496   H     0.13284   0.24640   0.79385   0.00000  Uiso   1.00
H497   H     0.27610   0.56452   0.53104   0.00000  Uiso   1.00
O498   O     0.15584   0.18576   0.42500   0.00000  Uiso   1.00
O499   O     0.93873   0.23189   0.81965   0.00000  Uiso   1.00
O500   O     0.12668   0.64927   0.47485   0.00000  Uiso   1.00
N501   N     0.04509   0.24263   0.44990   0.00000  Uiso   1.00
N502   N     0.89038   0.27549   0.73113   0.00000  Uiso   1.00
N503   N     0.02430   0.57292   0.48544   0.00000  Uiso   1.00
N504   N     0.21943   0.22657   0.48522   0.00000  Uiso   1.00
N505   N     0.06471   0.25943   0.76646   0.00000  Uiso   1.00
N506   N     0.19864   0.55686   0.52076   0.00000  Uiso   1.00
C507   C     0.93522   0.64613   0.03318   0.00000  Uiso   1.00
C508   C     0.04986   0.62096   0.06316   0.00000  Uiso   1.00
C509   C     0.07479   0.57329   0.10674   0.00000  Uiso   1.00
C510   C     0.18470   0.55707   0.12854   0.00000  Uiso   1.00
C511   C     0.35024   0.51338   0.17831   0.00000  Uiso   1.00
C512   C     0.92564   0.70643   0.03136   0.00000  Uiso   1.00
C513   C     0.84610   0.73063   0.04820   0.00000  Uiso   1.00
C514   C     0.85143   0.78636   0.04322   0.00000  Uiso   1.00
C515   C     0.82405   0.87537   0.04358   0.00000  Uiso   1.00
C516   C     0.93356   0.64935   0.97845   0.00000  Uiso   1.00
C517   C     0.86067   0.62558   0.95079   0.00000  Uiso   1.00
C518   C     0.87265   0.63327   0.90126   0.00000  Uiso   1.00
C519   C     0.85758   0.63367   0.81947   0.00000  Uiso   1.00
C520   C     0.08609   0.70208   0.99439   0.00000  Uiso   1.00
C521   C     0.13181   0.65135   0.04209   0.00000  Uiso   1.00
C522   C     0.24171   0.63520   0.06383   0.00000  Uiso   1.00
C523   C     0.26680   0.58751   0.10743   0.00000  Uiso   1.00
C524   C     0.00758   0.73682   0.01029   0.00000  Uiso   1.00
C525   C     0.01302   0.79253   0.00528   0.00000  Uiso   1.00
C526   C     0.93352   0.81680   0.02211   0.00000  Uiso   1.00
C527   C     0.01551   0.67975   0.95738   0.00000  Uiso   1.00
C528   C     0.02760   0.68748   0.90788   0.00000  Uiso   1.00
C529   C     0.95474   0.66372   0.88016   0.00000  Uiso   1.00
H530   H     0.87142   0.62247   0.04959   0.00000  Uiso   1.00
H531   H     0.01135   0.54979   0.12304   0.00000  Uiso   1.00
H532   H     0.78269   0.70710   0.06450   0.00000  Uiso   1.00
H533   H     0.79726   0.60207   0.96711   0.00000  Uiso   1.00
H534   H     0.20262   0.48262   0.19520   0.00000  Uiso   1.00
H535   H     0.72046   0.81432   0.07174   0.00000  Uiso   1.00
H536   H     0.75118   0.59284   0.86638   0.00000  Uiso   1.00
H537   H     0.14989   0.72575   0.97799   0.00000  Uiso   1.00
H538   H     0.30511   0.65872   0.04752   0.00000  Uiso   1.00
H539   H     0.07645   0.81603   0.98898   0.00000  Uiso   1.00
H540   H     0.09102   0.71100   0.89159   0.00000  Uiso   1.00
H541   H     0.44105   0.57103   0.13390   0.00000  Uiso   1.00
H542   H     0.95888   0.90274   0.01044   0.00000  Uiso   1.00
H543   H     0.98961   0.68126   0.80508   0.00000  Uiso   1.00
O544   O     0.41891   0.48088   0.21158   0.00000  Uiso   1.00
O545   O     0.78632   0.91607   0.04961   0.00000  Uiso   1.00
O546   O     0.82664   0.62549   0.78018   0.00000  Uiso   1.00
N547   N     0.23743   0.51262   0.17122   0.00000  Uiso   1.00
N548   N     0.78665   0.82274   0.05581   0.00000  Uiso   1.00
N549   N     0.81536   0.61568   0.86381   0.00000  Uiso   1.00
N550   N     0.36573   0.56019   0.13824   0.00000  Uiso   1.00
N551   N     0.91495   0.87031   0.02283   0.00000  Uiso   1.00
N552   N     0.94365   0.66326   0.83082   0.00000  Uiso   1.00
