data_job_05756
_audit_creation_date              2018-12-19
_audit_creation_method            'Materials Studio'
_symmetry_space_group_name_H-M    'P1'
_symmetry_Int_Tables_number       1
_symmetry_cell_setting            triclinic
loop_
_symmetry_equiv_pos_as_xyz
  x,y,z
_cell_length_a                    11.5433
_cell_length_b                    11.5433
_cell_length_c                    32.5817
_cell_angle_alpha                 90.0000
_cell_angle_beta                  90.0000
_cell_angle_gamma                 120.0000
loop_
_atom_site_label
_atom_site_type_symbol
_atom_site_fract_x
_atom_site_fract_y
_atom_site_fract_z
_atom_site_U_iso_or_equiv
_atom_site_adp_type
_atom_site_occupancy
C1     C     0.05116   0.59402   0.73665   0.00000  Uiso   1.00
C2     C     0.10016   0.59800   0.69293   0.00000  Uiso   1.00
C3     C     0.02535   0.51337   0.66119   0.00000  Uiso   1.00
C4     C     0.08835   0.53320   0.62344   0.00000  Uiso   1.00
C5     C     0.14422   0.52399   0.55643   0.00000  Uiso   1.00
C6     C     0.14828   0.57794   0.76454   0.00000  Uiso   1.00
C7     C     0.11393   0.47645   0.79302   0.00000  Uiso   1.00
C8     C     0.21745   0.47940   0.81556   0.00000  Uiso   1.00
C9     C     0.34802   0.43910   0.85976   0.00000  Uiso   1.00
C10    C     0.07289   0.73338   0.74522   0.00000  Uiso   1.00
C11    C     0.97515   0.76260   0.75746   0.00000  Uiso   1.00
C12    C     0.01521   0.89642   0.76374   0.00000  Uiso   1.00
C13    C     0.02871   0.09747   0.77793   0.00000  Uiso   1.00
C14    C     0.29609   0.77974   0.72605   0.00000  Uiso   1.00
C15    C     0.23320   0.69888   0.68717   0.00000  Uiso   1.00
C16    C     0.29633   0.71885   0.64946   0.00000  Uiso   1.00
C17    C     0.22162   0.63426   0.61767   0.00000  Uiso   1.00
C18    C     0.28132   0.67881   0.75879   0.00000  Uiso   1.00
C19    C     0.38491   0.68192   0.78129   0.00000  Uiso   1.00
C20    C     0.35072   0.58046   0.80979   0.00000  Uiso   1.00
C21    C     0.20593   0.83426   0.73946   0.00000  Uiso   1.00
C22    C     0.24614   0.96807   0.74573   0.00000  Uiso   1.00
C23    C     0.14848   0.99748   0.75797   0.00000  Uiso   1.00
H24    H     0.94759   0.51549   0.74114   0.00000  Uiso   1.00
H25    H     0.92240   0.43531   0.66566   0.00000  Uiso   1.00
H26    H     0.01097   0.39841   0.79747   0.00000  Uiso   1.00
H27    H     0.87221   0.68451   0.76191   0.00000  Uiso   1.00
H28    H     0.95315   0.39088   0.57944   0.00000  Uiso   1.00
H29    H     0.13990   0.31308   0.85739   0.00000  Uiso   1.00
H30    H     0.84731   0.91638   0.78241   0.00000  Uiso   1.00
H31    H     0.39967   0.85828   0.72157   0.00000  Uiso   1.00
H32    H     0.39928   0.79692   0.64502   0.00000  Uiso   1.00
H33    H     0.48785   0.76000   0.77683   0.00000  Uiso   1.00
H34    H     0.34910   0.04610   0.74127   0.00000  Uiso   1.00
H35    H     0.34021   0.68436   0.56269   0.00000  Uiso   1.00
H36    H     0.52696   0.60657   0.84064   0.00000  Uiso   1.00
H37    H     0.23437   0.20987   0.76565   0.00000  Uiso   1.00
O38    O     0.13829   0.49104   0.52106   0.00000  Uiso   1.00
O39    O     0.38328   0.38899   0.88572   0.00000  Uiso   1.00
O40    O     0.99941   0.18050   0.78734   0.00000  Uiso   1.00
N41    N     0.04429   0.46839   0.58600   0.00000  Uiso   1.00
N42    N     0.21889   0.39564   0.84586   0.00000  Uiso   1.00
N43    N     0.94535   0.95967   0.77577   0.00000  Uiso   1.00
N44    N     0.25256   0.62631   0.57699   0.00000  Uiso   1.00
N45    N     0.42716   0.55356   0.83685   0.00000  Uiso   1.00
N46    N     0.15362   0.11760   0.76675   0.00000  Uiso   1.00
C47    C     0.40598   0.45714   0.40332   0.00000  Uiso   1.00
C48    C     0.40200   0.50215   0.35960   0.00000  Uiso   1.00
C49    C     0.48663   0.51197   0.32786   0.00000  Uiso   1.00
C50    C     0.46680   0.55515   0.29011   0.00000  Uiso   1.00
C51    C     0.47601   0.62022   0.22310   0.00000  Uiso   1.00
C52    C     0.42206   0.57034   0.43121   0.00000  Uiso   1.00
C53    C     0.52355   0.63748   0.45969   0.00000  Uiso   1.00
C54    C     0.52060   0.73805   0.48223   0.00000  Uiso   1.00
C55    C     0.56090   0.90892   0.52642   0.00000  Uiso   1.00
C56    C     0.26662   0.33951   0.41189   0.00000  Uiso   1.00
C57    C     0.23740   0.21256   0.42413   0.00000  Uiso   1.00
C58    C     0.10358   0.11878   0.43041   0.00000  Uiso   1.00
C59    C     0.90253   0.93124   0.44460   0.00000  Uiso   1.00
C60    C     0.22026   0.51635   0.39272   0.00000  Uiso   1.00
C61    C     0.30112   0.53432   0.35384   0.00000  Uiso   1.00
C62    C     0.28115   0.57749   0.31613   0.00000  Uiso   1.00
C63    C     0.36574   0.58737   0.28434   0.00000  Uiso   1.00
C64    C     0.32119   0.60251   0.42545   0.00000  Uiso   1.00
C65    C     0.31808   0.70299   0.44796   0.00000  Uiso   1.00
C66    C     0.41954   0.77027   0.47646   0.00000  Uiso   1.00
C67    C     0.16574   0.37166   0.40613   0.00000  Uiso   1.00
C68    C     0.03193   0.27807   0.41240   0.00000  Uiso   1.00
C69    C     0.00252   0.15100   0.42464   0.00000  Uiso   1.00
H70    H     0.48451   0.43210   0.40780   0.00000  Uiso   1.00
H71    H     0.56469   0.48709   0.33233   0.00000  Uiso   1.00
H72    H     0.60159   0.61256   0.46414   0.00000  Uiso   1.00
H73    H     0.31549   0.18771   0.42858   0.00000  Uiso   1.00
H74    H     0.60912   0.56228   0.24611   0.00000  Uiso   1.00
H75    H     0.68692   0.82681   0.52406   0.00000  Uiso   1.00
H76    H     0.08362   0.93092   0.44907   0.00000  Uiso   1.00
H77    H     0.14172   0.54139   0.38824   0.00000  Uiso   1.00
H78    H     0.20308   0.60237   0.31168   0.00000  Uiso   1.00
H79    H     0.24000   0.72785   0.44350   0.00000  Uiso   1.00
H80    H     0.95390   0.30299   0.40794   0.00000  Uiso   1.00
H81    H     0.31564   0.65585   0.22935   0.00000  Uiso   1.00
H82    H     0.39343   0.92039   0.50730   0.00000  Uiso   1.00
H83    H     0.79013   0.02450   0.43232   0.00000  Uiso   1.00
O84    O     0.50896   0.64725   0.18773   0.00000  Uiso   1.00
O85    O     0.61101   0.99429   0.55239   0.00000  Uiso   1.00
O86    O     0.81950   0.81891   0.45401   0.00000  Uiso   1.00
N87    N     0.53161   0.57590   0.25267   0.00000  Uiso   1.00
N88    N     0.60436   0.82325   0.51253   0.00000  Uiso   1.00
N89    N     0.04033   0.98567   0.44244   0.00000  Uiso   1.00
N90    N     0.37369   0.62625   0.24365   0.00000  Uiso   1.00
N91    N     0.44644   0.87360   0.50351   0.00000  Uiso   1.00
N92    N     0.88240   0.03602   0.43342   0.00000  Uiso   1.00
C93    C     0.54286   0.94884   0.06999   0.00000  Uiso   1.00
C94    C     0.49785   0.89984   0.02626   0.00000  Uiso   1.00
C95    C     0.48803   0.97465   0.99452   0.00000  Uiso   1.00
C96    C     0.44485   0.91165   0.95677   0.00000  Uiso   1.00
C97    C     0.37978   0.85578   0.88977   0.00000  Uiso   1.00
C98    C     0.42966   0.85172   0.09788   0.00000  Uiso   1.00
C99    C     0.36252   0.88607   0.12636   0.00000  Uiso   1.00
C100   C     0.26195   0.78255   0.14890   0.00000  Uiso   1.00
C101   C     0.09108   0.65198   0.19309   0.00000  Uiso   1.00
C102   C     0.66049   0.92711   0.07855   0.00000  Uiso   1.00
C103   C     0.78744   0.02485   0.09079   0.00000  Uiso   1.00
C104   C     0.88122   0.98479   0.09707   0.00000  Uiso   1.00
C105   C     0.06876   0.97129   0.11127   0.00000  Uiso   1.00
C106   C     0.48365   0.70391   0.05939   0.00000  Uiso   1.00
C107   C     0.46568   0.76680   0.02051   0.00000  Uiso   1.00
C108   C     0.42251   0.70367   0.98279   0.00000  Uiso   1.00
C109   C     0.41263   0.77838   0.95100   0.00000  Uiso   1.00
C110   C     0.39749   0.71868   0.09212   0.00000  Uiso   1.00
C111   C     0.29701   0.61509   0.11463   0.00000  Uiso   1.00
C112   C     0.22973   0.64928   0.14313   0.00000  Uiso   1.00
C113   C     0.62834   0.79407   0.07279   0.00000  Uiso   1.00
C114   C     0.72193   0.75386   0.07906   0.00000  Uiso   1.00
C115   C     0.84900   0.85152   0.09131   0.00000  Uiso   1.00
H116   H     0.56790   0.05241   0.07447   0.00000  Uiso   1.00
H117   H     0.51291   0.07760   0.99899   0.00000  Uiso   1.00
H118   H     0.38744   0.98903   0.13081   0.00000  Uiso   1.00
H119   H     0.81229   0.12779   0.09525   0.00000  Uiso   1.00
H120   H     0.43772   0.04685   0.91278   0.00000  Uiso   1.00
H121   H     0.17319   0.86010   0.19072   0.00000  Uiso   1.00
H122   H     0.06908   0.15269   0.11574   0.00000  Uiso   1.00
H123   H     0.45861   0.60033   0.05490   0.00000  Uiso   1.00
H124   H     0.39763   0.60072   0.97835   0.00000  Uiso   1.00
H125   H     0.27215   0.51215   0.11016   0.00000  Uiso   1.00
H126   H     0.69701   0.65090   0.07460   0.00000  Uiso   1.00
H127   H     0.34415   0.65979   0.89602   0.00000  Uiso   1.00
H128   H     0.07961   0.47304   0.17397   0.00000  Uiso   1.00
H129   H     0.97550   0.76563   0.09899   0.00000  Uiso   1.00
O130   O     0.35275   0.86171   0.85440   0.00000  Uiso   1.00
O131   O     0.00571   0.61672   0.21906   0.00000  Uiso   1.00
O132   O     0.18109   0.00059   0.12068   0.00000  Uiso   1.00
N133   N     0.42410   0.95571   0.91934   0.00000  Uiso   1.00
N134   N     0.17675   0.78111   0.17920   0.00000  Uiso   1.00
N135   N     0.01433   0.05465   0.10910   0.00000  Uiso   1.00
N136   N     0.37375   0.74744   0.91032   0.00000  Uiso   1.00
N137   N     0.12640   0.57284   0.17018   0.00000  Uiso   1.00
N138   N     0.96398   0.84638   0.10009   0.00000  Uiso   1.00
C139   C     0.59402   0.05116   0.26335   0.00000  Uiso   1.00
C140   C     0.59800   0.10016   0.30707   0.00000  Uiso   1.00
C141   C     0.51337   0.02535   0.33881   0.00000  Uiso   1.00
C142   C     0.53320   0.08835   0.37656   0.00000  Uiso   1.00
C143   C     0.52399   0.14422   0.44357   0.00000  Uiso   1.00
C144   C     0.57794   0.14828   0.23546   0.00000  Uiso   1.00
C145   C     0.47645   0.11393   0.20698   0.00000  Uiso   1.00
C146   C     0.47940   0.21745   0.18444   0.00000  Uiso   1.00
C147   C     0.43910   0.34802   0.14024   0.00000  Uiso   1.00
C148   C     0.73338   0.07289   0.25478   0.00000  Uiso   1.00
C149   C     0.76260   0.97515   0.24254   0.00000  Uiso   1.00
C150   C     0.89642   0.01521   0.23626   0.00000  Uiso   1.00
C151   C     0.09747   0.02871   0.22207   0.00000  Uiso   1.00
C152   C     0.77974   0.29609   0.27395   0.00000  Uiso   1.00
C153   C     0.69888   0.23320   0.31283   0.00000  Uiso   1.00
C154   C     0.71885   0.29633   0.35054   0.00000  Uiso   1.00
C155   C     0.63426   0.22162   0.38233   0.00000  Uiso   1.00
C156   C     0.67881   0.28132   0.24121   0.00000  Uiso   1.00
C157   C     0.68192   0.38491   0.21871   0.00000  Uiso   1.00
C158   C     0.58046   0.35072   0.19021   0.00000  Uiso   1.00
C159   C     0.83426   0.20593   0.26054   0.00000  Uiso   1.00
C160   C     0.96807   0.24614   0.25427   0.00000  Uiso   1.00
C161   C     0.99748   0.14848   0.24203   0.00000  Uiso   1.00
H162   H     0.51549   0.94759   0.25886   0.00000  Uiso   1.00
H163   H     0.43531   0.92240   0.33434   0.00000  Uiso   1.00
H164   H     0.39841   0.01097   0.20253   0.00000  Uiso   1.00
H165   H     0.68451   0.87221   0.23809   0.00000  Uiso   1.00
H166   H     0.39088   0.95315   0.42056   0.00000  Uiso   1.00
H167   H     0.31308   0.13990   0.14261   0.00000  Uiso   1.00
H168   H     0.91638   0.84731   0.21759   0.00000  Uiso   1.00
H169   H     0.85828   0.39967   0.27843   0.00000  Uiso   1.00
H170   H     0.79692   0.39928   0.35498   0.00000  Uiso   1.00
H171   H     0.76000   0.48785   0.22317   0.00000  Uiso   1.00
H172   H     0.04610   0.34910   0.25873   0.00000  Uiso   1.00
H173   H     0.68436   0.34021   0.43731   0.00000  Uiso   1.00
H174   H     0.60657   0.52696   0.15936   0.00000  Uiso   1.00
H175   H     0.20987   0.23437   0.23435   0.00000  Uiso   1.00
O176   O     0.49104   0.13829   0.47894   0.00000  Uiso   1.00
O177   O     0.38899   0.38328   0.11428   0.00000  Uiso   1.00
O178   O     0.18050   0.99941   0.21266   0.00000  Uiso   1.00
N179   N     0.46839   0.04429   0.41400   0.00000  Uiso   1.00
N180   N     0.39564   0.21889   0.15414   0.00000  Uiso   1.00
N181   N     0.95967   0.94535   0.22423   0.00000  Uiso   1.00
N182   N     0.62631   0.25256   0.42301   0.00000  Uiso   1.00
N183   N     0.55356   0.42716   0.16315   0.00000  Uiso   1.00
N184   N     0.11760   0.15362   0.23325   0.00000  Uiso   1.00
C185   C     0.45714   0.40598   0.59668   0.00000  Uiso   1.00
C186   C     0.50215   0.40200   0.64040   0.00000  Uiso   1.00
C187   C     0.51197   0.48663   0.67214   0.00000  Uiso   1.00
C188   C     0.55515   0.46680   0.70989   0.00000  Uiso   1.00
C189   C     0.62022   0.47601   0.77690   0.00000  Uiso   1.00
C190   C     0.57034   0.42206   0.56879   0.00000  Uiso   1.00
C191   C     0.63748   0.52355   0.54031   0.00000  Uiso   1.00
C192   C     0.73805   0.52060   0.51777   0.00000  Uiso   1.00
C193   C     0.90892   0.56090   0.47358   0.00000  Uiso   1.00
C194   C     0.33951   0.26662   0.58811   0.00000  Uiso   1.00
C195   C     0.21256   0.23740   0.57587   0.00000  Uiso   1.00
C196   C     0.11878   0.10358   0.56959   0.00000  Uiso   1.00
C197   C     0.93124   0.90253   0.55540   0.00000  Uiso   1.00
C198   C     0.51635   0.22026   0.60728   0.00000  Uiso   1.00
C199   C     0.53432   0.30112   0.64616   0.00000  Uiso   1.00
C200   C     0.57749   0.28115   0.68387   0.00000  Uiso   1.00
C201   C     0.58737   0.36574   0.71566   0.00000  Uiso   1.00
C202   C     0.60251   0.32119   0.57455   0.00000  Uiso   1.00
C203   C     0.70299   0.31808   0.55204   0.00000  Uiso   1.00
C204   C     0.77027   0.41954   0.52354   0.00000  Uiso   1.00
C205   C     0.37166   0.16574   0.59387   0.00000  Uiso   1.00
C206   C     0.27807   0.03193   0.58760   0.00000  Uiso   1.00
C207   C     0.15100   0.00252   0.57536   0.00000  Uiso   1.00
H208   H     0.43210   0.48451   0.59220   0.00000  Uiso   1.00
H209   H     0.48709   0.56469   0.66767   0.00000  Uiso   1.00
H210   H     0.61256   0.60159   0.53586   0.00000  Uiso   1.00
H211   H     0.18771   0.31549   0.57142   0.00000  Uiso   1.00
H212   H     0.56228   0.60912   0.75389   0.00000  Uiso   1.00
H213   H     0.82681   0.68692   0.47594   0.00000  Uiso   1.00
H214   H     0.93092   0.08362   0.55093   0.00000  Uiso   1.00
H215   H     0.54139   0.14172   0.61176   0.00000  Uiso   1.00
H216   H     0.60237   0.20308   0.68832   0.00000  Uiso   1.00
H217   H     0.72785   0.24000   0.55650   0.00000  Uiso   1.00
H218   H     0.30299   0.95390   0.59206   0.00000  Uiso   1.00
H219   H     0.65585   0.31564   0.77065   0.00000  Uiso   1.00
H220   H     0.92039   0.39343   0.49270   0.00000  Uiso   1.00
H221   H     0.02450   0.79013   0.56768   0.00000  Uiso   1.00
O222   O     0.64725   0.50896   0.81227   0.00000  Uiso   1.00
O223   O     0.99429   0.61101   0.44761   0.00000  Uiso   1.00
O224   O     0.81891   0.81950   0.54599   0.00000  Uiso   1.00
N225   N     0.57590   0.53161   0.74733   0.00000  Uiso   1.00
N226   N     0.82325   0.60436   0.48747   0.00000  Uiso   1.00
N227   N     0.98567   0.04033   0.55756   0.00000  Uiso   1.00
N228   N     0.62625   0.37369   0.75635   0.00000  Uiso   1.00
N229   N     0.87360   0.44644   0.49649   0.00000  Uiso   1.00
N230   N     0.03602   0.88240   0.56658   0.00000  Uiso   1.00
C231   C     0.94884   0.54286   0.93001   0.00000  Uiso   1.00
C232   C     0.89984   0.49785   0.97374   0.00000  Uiso   1.00
C233   C     0.97465   0.48803   0.00548   0.00000  Uiso   1.00
C234   C     0.91165   0.44485   0.04323   0.00000  Uiso   1.00
C235   C     0.85578   0.37978   0.11023   0.00000  Uiso   1.00
C236   C     0.85172   0.42966   0.90212   0.00000  Uiso   1.00
C237   C     0.88607   0.36252   0.87364   0.00000  Uiso   1.00
C238   C     0.78255   0.26195   0.85110   0.00000  Uiso   1.00
C239   C     0.65198   0.09108   0.80691   0.00000  Uiso   1.00
C240   C     0.92711   0.66049   0.92145   0.00000  Uiso   1.00
C241   C     0.02485   0.78744   0.90921   0.00000  Uiso   1.00
C242   C     0.98479   0.88122   0.90293   0.00000  Uiso   1.00
C243   C     0.97129   0.06876   0.88873   0.00000  Uiso   1.00
C244   C     0.70391   0.48365   0.94061   0.00000  Uiso   1.00
C245   C     0.76680   0.46568   0.97949   0.00000  Uiso   1.00
C246   C     0.70367   0.42251   0.01721   0.00000  Uiso   1.00
C247   C     0.77838   0.41263   0.04900   0.00000  Uiso   1.00
C248   C     0.71868   0.39749   0.90788   0.00000  Uiso   1.00
C249   C     0.61509   0.29701   0.88537   0.00000  Uiso   1.00
C250   C     0.64928   0.22973   0.85687   0.00000  Uiso   1.00
C251   C     0.79407   0.62834   0.92721   0.00000  Uiso   1.00
C252   C     0.75386   0.72193   0.92094   0.00000  Uiso   1.00
C253   C     0.85152   0.84900   0.90869   0.00000  Uiso   1.00
H254   H     0.05241   0.56790   0.92553   0.00000  Uiso   1.00
H255   H     0.07760   0.51291   0.00101   0.00000  Uiso   1.00
H256   H     0.98903   0.38744   0.86919   0.00000  Uiso   1.00
H257   H     0.12779   0.81229   0.90475   0.00000  Uiso   1.00
H258   H     0.04685   0.43772   0.08722   0.00000  Uiso   1.00
H259   H     0.86010   0.17319   0.80928   0.00000  Uiso   1.00
H260   H     0.15269   0.06908   0.88426   0.00000  Uiso   1.00
H261   H     0.60033   0.45861   0.94510   0.00000  Uiso   1.00
H262   H     0.60072   0.39763   0.02165   0.00000  Uiso   1.00
H263   H     0.51215   0.27215   0.88984   0.00000  Uiso   1.00
H264   H     0.65090   0.69701   0.92540   0.00000  Uiso   1.00
H265   H     0.65979   0.34415   0.10398   0.00000  Uiso   1.00
H266   H     0.47304   0.07961   0.82603   0.00000  Uiso   1.00
H267   H     0.76563   0.97550   0.90101   0.00000  Uiso   1.00
O268   O     0.86171   0.35275   0.14560   0.00000  Uiso   1.00
O269   O     0.61672   0.00571   0.78094   0.00000  Uiso   1.00
O270   O     0.00059   0.18109   0.87932   0.00000  Uiso   1.00
N271   N     0.95571   0.42410   0.08066   0.00000  Uiso   1.00
N272   N     0.78111   0.17675   0.82080   0.00000  Uiso   1.00
N273   N     0.05465   0.01433   0.89090   0.00000  Uiso   1.00
N274   N     0.74744   0.37375   0.08968   0.00000  Uiso   1.00
N275   N     0.57284   0.12640   0.82982   0.00000  Uiso   1.00
N276   N     0.84638   0.96398   0.89991   0.00000  Uiso   1.00
