data_job_05159
_audit_creation_date              2018-12-19
_audit_creation_method            'Materials Studio'
_symmetry_space_group_name_H-M    'P1'
_symmetry_Int_Tables_number       1
_symmetry_cell_setting            triclinic
loop_
_symmetry_equiv_pos_as_xyz
  x,y,z
_cell_length_a                    21.9372
_cell_length_b                    16.5943
_cell_length_c                    7.2281
_cell_angle_alpha                 90.0000
_cell_angle_beta                  90.0000
_cell_angle_gamma                 90.0000
loop_
_atom_site_label
_atom_site_type_symbol
_atom_site_fract_x
_atom_site_fract_y
_atom_site_fract_z
_atom_site_U_iso_or_equiv
_atom_site_adp_type
_atom_site_occupancy
C1     C     0.21451   0.58130   0.16762   0.00000  Uiso   1.00
C2     C     0.18732   0.64146   0.30408   0.00000  Uiso   1.00
C3     C     0.15265   0.70848   0.25807   0.00000  Uiso   1.00
C4     C     0.13199   0.75606   0.40308   0.00000  Uiso   1.00
C5     C     0.08774   0.85237   0.58693   0.00000  Uiso   1.00
C6     C     0.28284   0.57988   0.20622   0.00000  Uiso   1.00
C7     C     0.32848   0.59511   0.07793   0.00000  Uiso   1.00
C8     C     0.38823   0.59084   0.14057   0.00000  Uiso   1.00
C9     C     0.49227   0.59148   0.17246   0.00000  Uiso   1.00
C10    C     0.19048   0.49879   0.22510   0.00000  Uiso   1.00
C11    C     0.15847   0.44583   0.11267   0.00000  Uiso   1.00
C12    C     0.14045   0.37327   0.19120   0.00000  Uiso   1.00
C13    C     0.10108   0.24801   0.25241   0.00000  Uiso   1.00
C14    C     0.23947   0.54662   0.50697   0.00000  Uiso   1.00
C15    C     0.20088   0.62263   0.48840   0.00000  Uiso   1.00
C16    C     0.18026   0.67011   0.63353   0.00000  Uiso   1.00
C17    C     0.14556   0.73719   0.58774   0.00000  Uiso   1.00
C18    C     0.29640   0.56105   0.39054   0.00000  Uiso   1.00
C19    C     0.35609   0.55674   0.45338   0.00000  Uiso   1.00
C20    C     0.40181   0.57197   0.32523   0.00000  Uiso   1.00
C21    C     0.20403   0.47995   0.40943   0.00000  Uiso   1.00
C22    C     0.18607   0.40746   0.48814   0.00000  Uiso   1.00
C23    C     0.15403   0.35440   0.37586   0.00000  Uiso   1.00
H24    H     0.20397   0.59596   0.02411   0.00000  Uiso   1.00
H25    H     0.14218   0.72304   0.11540   0.00000  Uiso   1.00
H26    H     0.31798   0.60968   0.93529   0.00000  Uiso   1.00
H27    H     0.14799   0.46042   0.97004   0.00000  Uiso   1.00
H28    H     0.07967   0.85564   0.29790   0.00000  Uiso   1.00
H29    H     0.45036   0.61658   0.91811   0.00000  Uiso   1.00
H30    H     0.09190   0.30185   0.99138   0.00000  Uiso   1.00
H31    H     0.25002   0.53195   0.65048   0.00000  Uiso   1.00
H32    H     0.19076   0.65552   0.77615   0.00000  Uiso   1.00
H33    H     0.36656   0.54216   0.59603   0.00000  Uiso   1.00
H34    H     0.19657   0.39291   0.63078   0.00000  Uiso   1.00
H35    H     0.11910   0.80084   0.83419   0.00000  Uiso   1.00
H36    H     0.48979   0.56178   0.45439   0.00000  Uiso   1.00
H37    H     0.13133   0.24705   0.52767   0.00000  Uiso   1.00
O38    O     0.05959   0.91070   0.63741   0.00000  Uiso   1.00
O39    O     0.54591   0.59705   0.13913   0.00000  Uiso   1.00
O40    O     0.07562   0.18413   0.23526   0.00000  Uiso   1.00
N41    N     0.09708   0.82578   0.40687   0.00000  Uiso   1.00
N42    N     0.44364   0.60228   0.05180   0.00000  Uiso   1.00
N43    N     0.10853   0.30802   0.12029   0.00000  Uiso   1.00
N44    N     0.11829   0.79629   0.69545   0.00000  Uiso   1.00
N45    N     0.46486   0.57280   0.34037   0.00000  Uiso   1.00
N46    N     0.12974   0.27854   0.40886   0.00000  Uiso   1.00
C47    C     0.78549   0.41870   0.66762   0.00000  Uiso   1.00
C48    C     0.81268   0.35854   0.80408   0.00000  Uiso   1.00
C49    C     0.84735   0.29152   0.75807   0.00000  Uiso   1.00
C50    C     0.86801   0.24394   0.90308   0.00000  Uiso   1.00
C51    C     0.91226   0.14763   0.08693   0.00000  Uiso   1.00
C52    C     0.71716   0.42012   0.70622   0.00000  Uiso   1.00
C53    C     0.67152   0.40489   0.57793   0.00000  Uiso   1.00
C54    C     0.61177   0.40916   0.64057   0.00000  Uiso   1.00
C55    C     0.50773   0.40852   0.67246   0.00000  Uiso   1.00
C56    C     0.80952   0.50121   0.72510   0.00000  Uiso   1.00
C57    C     0.84153   0.55417   0.61267   0.00000  Uiso   1.00
C58    C     0.85955   0.62673   0.69120   0.00000  Uiso   1.00
C59    C     0.89892   0.75199   0.75241   0.00000  Uiso   1.00
C60    C     0.76053   0.45338   0.00697   0.00000  Uiso   1.00
C61    C     0.79912   0.37737   0.98840   0.00000  Uiso   1.00
C62    C     0.81974   0.32989   0.13353   0.00000  Uiso   1.00
C63    C     0.85444   0.26281   0.08774   0.00000  Uiso   1.00
C64    C     0.70360   0.43895   0.89054   0.00000  Uiso   1.00
C65    C     0.64391   0.44326   0.95338   0.00000  Uiso   1.00
C66    C     0.59819   0.42803   0.82523   0.00000  Uiso   1.00
C67    C     0.79597   0.52005   0.90943   0.00000  Uiso   1.00
C68    C     0.81393   0.59254   0.98814   0.00000  Uiso   1.00
C69    C     0.84597   0.64560   0.87586   0.00000  Uiso   1.00
H70    H     0.79603   0.40404   0.52411   0.00000  Uiso   1.00
H71    H     0.85782   0.27696   0.61540   0.00000  Uiso   1.00
H72    H     0.68202   0.39032   0.43529   0.00000  Uiso   1.00
H73    H     0.85201   0.53958   0.47004   0.00000  Uiso   1.00
H74    H     0.92033   0.14436   0.79790   0.00000  Uiso   1.00
H75    H     0.54964   0.38342   0.41811   0.00000  Uiso   1.00
H76    H     0.90810   0.69815   0.49138   0.00000  Uiso   1.00
H77    H     0.74998   0.46805   0.15048   0.00000  Uiso   1.00
H78    H     0.80924   0.34448   0.27615   0.00000  Uiso   1.00
H79    H     0.63344   0.45784   0.09603   0.00000  Uiso   1.00
H80    H     0.80343   0.60709   0.13078   0.00000  Uiso   1.00
H81    H     0.88090   0.19916   0.33419   0.00000  Uiso   1.00
H82    H     0.51021   0.43822   0.95439   0.00000  Uiso   1.00
H83    H     0.86867   0.75295   0.02767   0.00000  Uiso   1.00
O84    O     0.94041   0.08930   0.13741   0.00000  Uiso   1.00
O85    O     0.45409   0.40295   0.63913   0.00000  Uiso   1.00
O86    O     0.92438   0.81587   0.73526   0.00000  Uiso   1.00
N87    N     0.90292   0.17422   0.90687   0.00000  Uiso   1.00
N88    N     0.55636   0.39772   0.55180   0.00000  Uiso   1.00
N89    N     0.89147   0.69198   0.62029   0.00000  Uiso   1.00
N90    N     0.88171   0.20371   0.19545   0.00000  Uiso   1.00
N91    N     0.53514   0.42720   0.84037   0.00000  Uiso   1.00
N92    N     0.87026   0.72146   0.90886   0.00000  Uiso   1.00
C93    C     0.71451   0.91870   0.16762   0.00000  Uiso   1.00
C94    C     0.68732   0.85854   0.30408   0.00000  Uiso   1.00
C95    C     0.65265   0.79152   0.25807   0.00000  Uiso   1.00
C96    C     0.63199   0.74394   0.40308   0.00000  Uiso   1.00
C97    C     0.58774   0.64763   0.58693   0.00000  Uiso   1.00
C98    C     0.78284   0.92012   0.20622   0.00000  Uiso   1.00
C99    C     0.82848   0.90489   0.07793   0.00000  Uiso   1.00
C100   C     0.88823   0.90916   0.14057   0.00000  Uiso   1.00
C101   C     0.99227   0.90852   0.17246   0.00000  Uiso   1.00
C102   C     0.69048   0.00121   0.22510   0.00000  Uiso   1.00
C103   C     0.65847   0.05417   0.11267   0.00000  Uiso   1.00
C104   C     0.64045   0.12673   0.19120   0.00000  Uiso   1.00
C105   C     0.60108   0.25199   0.25241   0.00000  Uiso   1.00
C106   C     0.73947   0.95338   0.50697   0.00000  Uiso   1.00
C107   C     0.70088   0.87737   0.48840   0.00000  Uiso   1.00
C108   C     0.68026   0.82989   0.63353   0.00000  Uiso   1.00
C109   C     0.64556   0.76281   0.58774   0.00000  Uiso   1.00
C110   C     0.79640   0.93895   0.39054   0.00000  Uiso   1.00
C111   C     0.85609   0.94326   0.45338   0.00000  Uiso   1.00
C112   C     0.90181   0.92803   0.32523   0.00000  Uiso   1.00
C113   C     0.70403   0.02005   0.40943   0.00000  Uiso   1.00
C114   C     0.68607   0.09254   0.48814   0.00000  Uiso   1.00
C115   C     0.65403   0.14560   0.37586   0.00000  Uiso   1.00
H116   H     0.70397   0.90404   0.02411   0.00000  Uiso   1.00
H117   H     0.64218   0.77696   0.11540   0.00000  Uiso   1.00
H118   H     0.81798   0.89032   0.93529   0.00000  Uiso   1.00
H119   H     0.64799   0.03958   0.97004   0.00000  Uiso   1.00
H120   H     0.57967   0.64436   0.29790   0.00000  Uiso   1.00
H121   H     0.95036   0.88342   0.91811   0.00000  Uiso   1.00
H122   H     0.59190   0.19815   0.99138   0.00000  Uiso   1.00
H123   H     0.75002   0.96805   0.65048   0.00000  Uiso   1.00
H124   H     0.69076   0.84448   0.77615   0.00000  Uiso   1.00
H125   H     0.86656   0.95784   0.59603   0.00000  Uiso   1.00
H126   H     0.69657   0.10709   0.63078   0.00000  Uiso   1.00
H127   H     0.61910   0.69916   0.83419   0.00000  Uiso   1.00
H128   H     0.98979   0.93822   0.45439   0.00000  Uiso   1.00
H129   H     0.63133   0.25295   0.52767   0.00000  Uiso   1.00
O130   O     0.55959   0.58930   0.63741   0.00000  Uiso   1.00
O131   O     0.04591   0.90295   0.13913   0.00000  Uiso   1.00
O132   O     0.57562   0.31587   0.23526   0.00000  Uiso   1.00
N133   N     0.59708   0.67422   0.40687   0.00000  Uiso   1.00
N134   N     0.94364   0.89772   0.05180   0.00000  Uiso   1.00
N135   N     0.60853   0.19198   0.12029   0.00000  Uiso   1.00
N136   N     0.61829   0.70371   0.69545   0.00000  Uiso   1.00
N137   N     0.96486   0.92720   0.34037   0.00000  Uiso   1.00
N138   N     0.62974   0.22146   0.40886   0.00000  Uiso   1.00
C139   C     0.28549   0.08130   0.66762   0.00000  Uiso   1.00
C140   C     0.31268   0.14146   0.80408   0.00000  Uiso   1.00
C141   C     0.34735   0.20848   0.75807   0.00000  Uiso   1.00
C142   C     0.36801   0.25606   0.90308   0.00000  Uiso   1.00
C143   C     0.41226   0.35237   0.08693   0.00000  Uiso   1.00
C144   C     0.21716   0.07988   0.70622   0.00000  Uiso   1.00
C145   C     0.17152   0.09511   0.57793   0.00000  Uiso   1.00
C146   C     0.11177   0.09084   0.64057   0.00000  Uiso   1.00
C147   C     0.00773   0.09148   0.67246   0.00000  Uiso   1.00
C148   C     0.30952   0.99879   0.72510   0.00000  Uiso   1.00
C149   C     0.34153   0.94583   0.61267   0.00000  Uiso   1.00
C150   C     0.35955   0.87327   0.69120   0.00000  Uiso   1.00
C151   C     0.39892   0.74801   0.75241   0.00000  Uiso   1.00
C152   C     0.26053   0.04662   0.00697   0.00000  Uiso   1.00
C153   C     0.29912   0.12263   0.98840   0.00000  Uiso   1.00
C154   C     0.31974   0.17011   0.13353   0.00000  Uiso   1.00
C155   C     0.35444   0.23719   0.08774   0.00000  Uiso   1.00
C156   C     0.20360   0.06105   0.89054   0.00000  Uiso   1.00
C157   C     0.14391   0.05674   0.95338   0.00000  Uiso   1.00
C158   C     0.09819   0.07197   0.82523   0.00000  Uiso   1.00
C159   C     0.29597   0.97995   0.90943   0.00000  Uiso   1.00
C160   C     0.31393   0.90746   0.98814   0.00000  Uiso   1.00
C161   C     0.34597   0.85440   0.87586   0.00000  Uiso   1.00
H162   H     0.29603   0.09596   0.52411   0.00000  Uiso   1.00
H163   H     0.35782   0.22304   0.61540   0.00000  Uiso   1.00
H164   H     0.18202   0.10968   0.43529   0.00000  Uiso   1.00
H165   H     0.35201   0.96042   0.47004   0.00000  Uiso   1.00
H166   H     0.42033   0.35564   0.79790   0.00000  Uiso   1.00
H167   H     0.04964   0.11658   0.41811   0.00000  Uiso   1.00
H168   H     0.40810   0.80185   0.49138   0.00000  Uiso   1.00
H169   H     0.24998   0.03195   0.15048   0.00000  Uiso   1.00
H170   H     0.30924   0.15552   0.27615   0.00000  Uiso   1.00
H171   H     0.13344   0.04216   0.09603   0.00000  Uiso   1.00
H172   H     0.30343   0.89291   0.13078   0.00000  Uiso   1.00
H173   H     0.38090   0.30084   0.33419   0.00000  Uiso   1.00
H174   H     0.01021   0.06178   0.95439   0.00000  Uiso   1.00
H175   H     0.36867   0.74705   0.02767   0.00000  Uiso   1.00
O176   O     0.44041   0.41070   0.13741   0.00000  Uiso   1.00
O177   O     0.95409   0.09705   0.63913   0.00000  Uiso   1.00
O178   O     0.42438   0.68413   0.73526   0.00000  Uiso   1.00
N179   N     0.40292   0.32578   0.90687   0.00000  Uiso   1.00
N180   N     0.05636   0.10228   0.55180   0.00000  Uiso   1.00
N181   N     0.39147   0.80802   0.62029   0.00000  Uiso   1.00
N182   N     0.38171   0.29629   0.19545   0.00000  Uiso   1.00
N183   N     0.03514   0.07280   0.84037   0.00000  Uiso   1.00
N184   N     0.37026   0.77854   0.90886   0.00000  Uiso   1.00
