data_job_04180
_audit_creation_date              2018-12-19
_audit_creation_method            'Materials Studio'
_symmetry_space_group_name_H-M    'P1'
_symmetry_Int_Tables_number       1
_symmetry_cell_setting            triclinic
loop_
_symmetry_equiv_pos_as_xyz
  x,y,z
_cell_length_a                    17.0947
_cell_length_b                    11.8870
_cell_length_c                    24.5945
_cell_angle_alpha                 90.0000
_cell_angle_beta                  138.7610
_cell_angle_gamma                 90.0000
loop_
_atom_site_label
_atom_site_type_symbol
_atom_site_fract_x
_atom_site_fract_y
_atom_site_fract_z
_atom_site_U_iso_or_equiv
_atom_site_adp_type
_atom_site_occupancy
C1     C     0.83969   0.53467   0.05666   0.00000  Uiso   1.00
C2     C     0.81925   0.41210   0.06170   0.00000  Uiso   1.00
C3     C     0.90326   0.34048   0.12806   0.00000  Uiso   1.00
C4     C     0.86709   0.23139   0.12065   0.00000  Uiso   1.00
C5     C     0.85303   0.04654   0.13930   0.00000  Uiso   1.00
C6     C     0.80664   0.54378   0.97942   0.00000  Uiso   1.00
C7     C     0.88005   0.58289   0.97661   0.00000  Uiso   1.00
C8     C     0.83325   0.58466   0.89993   0.00000  Uiso   1.00
C9     C     0.79958   0.60432   0.79083   0.00000  Uiso   1.00
C10    C     0.74679   0.60265   0.03897   0.00000  Uiso   1.00
C11    C     0.76985   0.69127   0.08620   0.00000  Uiso   1.00
C12    C     0.67266   0.74262   0.05965   0.00000  Uiso   1.00
C13    C     0.54604   0.85368   0.04301   0.00000  Uiso   1.00
C14    C     0.62607   0.46830   0.92550   0.00000  Uiso   1.00
C15    C     0.70322   0.37605   0.99046   0.00000  Uiso   1.00
C16    C     0.66691   0.26704   0.98295   0.00000  Uiso   1.00
C17    C     0.75085   0.19527   0.04929   0.00000  Uiso   1.00
C18    C     0.69062   0.50773   0.90818   0.00000  Uiso   1.00
C19    C     0.64370   0.50945   0.83149   0.00000  Uiso   1.00
C20    C     0.71701   0.54855   0.82856   0.00000  Uiso   1.00
C21    C     0.63075   0.56659   0.96773   0.00000  Uiso   1.00
C22    C     0.53350   0.61783   0.94109   0.00000  Uiso   1.00
C23    C     0.55642   0.70651   0.98828   0.00000  Uiso   1.00
H24    H     0.93002   0.56274   0.11212   0.00000  Uiso   1.00
H25    H     0.99305   0.36841   0.18318   0.00000  Uiso   1.00
H26    H     0.96983   0.61079   0.03175   0.00000  Uiso   1.00
H27    H     0.85965   0.71915   0.14133   0.00000  Uiso   1.00
H28    H     0.01177   0.13705   0.23053   0.00000  Uiso   1.00
H29    H     0.96279   0.64816   0.91122   0.00000  Uiso   1.00
H30    H     0.73046   0.87665   0.14230   0.00000  Uiso   1.00
H31    H     0.53573   0.44023   0.87003   0.00000  Uiso   1.00
H32    H     0.57712   0.23917   0.92781   0.00000  Uiso   1.00
H33    H     0.55390   0.48155   0.77637   0.00000  Uiso   1.00
H34    H     0.44372   0.58990   0.88596   0.00000  Uiso   1.00
H35    H     0.67418   0.03215   0.02326   0.00000  Uiso   1.00
H36    H     0.62521   0.54327   0.70395   0.00000  Uiso   1.00
H37    H     0.39288   0.77175   0.93503   0.00000  Uiso   1.00
O38    O     0.87733   0.95453   0.16926   0.00000  Uiso   1.00
O39    O     0.81307   0.62511   0.75034   0.00000  Uiso   1.00
O40    O     0.50826   0.92488   0.05351   0.00000  Uiso   1.00
N41    N     0.92663   0.13996   0.17383   0.00000  Uiso   1.00
N42    N     0.88085   0.61780   0.87530   0.00000  Uiso   1.00
N43    N     0.66364   0.83144   0.09132   0.00000  Uiso   1.00
N44    N     0.74498   0.08351   0.06230   0.00000  Uiso   1.00
N45    N     0.69920   0.56136   0.76377   0.00000  Uiso   1.00
N46    N     0.48199   0.77499   0.97979   0.00000  Uiso   1.00
C47    C     0.16031   0.03467   0.44334   0.00000  Uiso   1.00
C48    C     0.18075   0.91210   0.43830   0.00000  Uiso   1.00
C49    C     0.09674   0.84048   0.37194   0.00000  Uiso   1.00
C50    C     0.13291   0.73139   0.37935   0.00000  Uiso   1.00
C51    C     0.14697   0.54654   0.36070   0.00000  Uiso   1.00
C52    C     0.19336   0.04378   0.52058   0.00000  Uiso   1.00
C53    C     0.11995   0.08289   0.52339   0.00000  Uiso   1.00
C54    C     0.16675   0.08466   0.60007   0.00000  Uiso   1.00
C55    C     0.20042   0.10432   0.70917   0.00000  Uiso   1.00
C56    C     0.25321   0.10265   0.46103   0.00000  Uiso   1.00
C57    C     0.23015   0.19127   0.41380   0.00000  Uiso   1.00
C58    C     0.32734   0.24262   0.44035   0.00000  Uiso   1.00
C59    C     0.45396   0.35368   0.45699   0.00000  Uiso   1.00
C60    C     0.37393   0.96830   0.57450   0.00000  Uiso   1.00
C61    C     0.29678   0.87605   0.50954   0.00000  Uiso   1.00
C62    C     0.33309   0.76704   0.51705   0.00000  Uiso   1.00
C63    C     0.24915   0.69527   0.45071   0.00000  Uiso   1.00
C64    C     0.30938   0.00773   0.59182   0.00000  Uiso   1.00
C65    C     0.35630   0.00945   0.66851   0.00000  Uiso   1.00
C66    C     0.28299   0.04855   0.67144   0.00000  Uiso   1.00
C67    C     0.36925   0.06659   0.53227   0.00000  Uiso   1.00
C68    C     0.46650   0.11783   0.55891   0.00000  Uiso   1.00
C69    C     0.44358   0.20651   0.51172   0.00000  Uiso   1.00
H70    H     0.06998   0.06274   0.38788   0.00000  Uiso   1.00
H71    H     0.00695   0.86841   0.31682   0.00000  Uiso   1.00
H72    H     0.03017   0.11079   0.46825   0.00000  Uiso   1.00
H73    H     0.14035   0.21915   0.35867   0.00000  Uiso   1.00
H74    H     0.98823   0.63705   0.26947   0.00000  Uiso   1.00
H75    H     0.03721   0.14816   0.58878   0.00000  Uiso   1.00
H76    H     0.26954   0.37665   0.35770   0.00000  Uiso   1.00
H77    H     0.46427   0.94023   0.62997   0.00000  Uiso   1.00
H78    H     0.42288   0.73917   0.57219   0.00000  Uiso   1.00
H79    H     0.44610   0.98155   0.72363   0.00000  Uiso   1.00
H80    H     0.55628   0.08990   0.61404   0.00000  Uiso   1.00
H81    H     0.32582   0.53215   0.47674   0.00000  Uiso   1.00
H82    H     0.37479   0.04327   0.79605   0.00000  Uiso   1.00
H83    H     0.60712   0.27175   0.56497   0.00000  Uiso   1.00
O84    O     0.12267   0.45453   0.33074   0.00000  Uiso   1.00
O85    O     0.18693   0.12511   0.74966   0.00000  Uiso   1.00
O86    O     0.49174   0.42488   0.44649   0.00000  Uiso   1.00
N87    N     0.07337   0.63996   0.32617   0.00000  Uiso   1.00
N88    N     0.11915   0.11780   0.62470   0.00000  Uiso   1.00
N89    N     0.33636   0.33144   0.40868   0.00000  Uiso   1.00
N90    N     0.25502   0.58351   0.43770   0.00000  Uiso   1.00
N91    N     0.30080   0.06136   0.73623   0.00000  Uiso   1.00
N92    N     0.51801   0.27499   0.52021   0.00000  Uiso   1.00
C93    C     0.16031   0.46533   0.94334   0.00000  Uiso   1.00
C94    C     0.18075   0.58790   0.93830   0.00000  Uiso   1.00
C95    C     0.09674   0.65952   0.87194   0.00000  Uiso   1.00
C96    C     0.13291   0.76861   0.87935   0.00000  Uiso   1.00
C97    C     0.14697   0.95346   0.86070   0.00000  Uiso   1.00
C98    C     0.19336   0.45622   0.02058   0.00000  Uiso   1.00
C99    C     0.11995   0.41711   0.02339   0.00000  Uiso   1.00
C100   C     0.16675   0.41534   0.10007   0.00000  Uiso   1.00
C101   C     0.20042   0.39568   0.20917   0.00000  Uiso   1.00
C102   C     0.25321   0.39735   0.96103   0.00000  Uiso   1.00
C103   C     0.23015   0.30873   0.91380   0.00000  Uiso   1.00
C104   C     0.32734   0.25738   0.94035   0.00000  Uiso   1.00
C105   C     0.45396   0.14632   0.95699   0.00000  Uiso   1.00
C106   C     0.37393   0.53170   0.07450   0.00000  Uiso   1.00
C107   C     0.29678   0.62395   0.00954   0.00000  Uiso   1.00
C108   C     0.33309   0.73296   0.01705   0.00000  Uiso   1.00
C109   C     0.24915   0.80473   0.95071   0.00000  Uiso   1.00
C110   C     0.30938   0.49227   0.09182   0.00000  Uiso   1.00
C111   C     0.35630   0.49055   0.16851   0.00000  Uiso   1.00
C112   C     0.28299   0.45145   0.17144   0.00000  Uiso   1.00
C113   C     0.36925   0.43341   0.03227   0.00000  Uiso   1.00
C114   C     0.46650   0.38217   0.05891   0.00000  Uiso   1.00
C115   C     0.44358   0.29349   0.01172   0.00000  Uiso   1.00
H116   H     0.06998   0.43726   0.88788   0.00000  Uiso   1.00
H117   H     0.00695   0.63159   0.81682   0.00000  Uiso   1.00
H118   H     0.03017   0.38921   0.96825   0.00000  Uiso   1.00
H119   H     0.14035   0.28085   0.85867   0.00000  Uiso   1.00
H120   H     0.98823   0.86295   0.76947   0.00000  Uiso   1.00
H121   H     0.03721   0.35184   0.08878   0.00000  Uiso   1.00
H122   H     0.26954   0.12335   0.85770   0.00000  Uiso   1.00
H123   H     0.46427   0.55977   0.12997   0.00000  Uiso   1.00
H124   H     0.42288   0.76083   0.07219   0.00000  Uiso   1.00
H125   H     0.44610   0.51845   0.22363   0.00000  Uiso   1.00
H126   H     0.55628   0.41010   0.11404   0.00000  Uiso   1.00
H127   H     0.32582   0.96785   0.97674   0.00000  Uiso   1.00
H128   H     0.37479   0.45673   0.29605   0.00000  Uiso   1.00
H129   H     0.60712   0.22825   0.06497   0.00000  Uiso   1.00
O130   O     0.12267   0.04547   0.83074   0.00000  Uiso   1.00
O131   O     0.18693   0.37489   0.24966   0.00000  Uiso   1.00
O132   O     0.49174   0.07512   0.94649   0.00000  Uiso   1.00
N133   N     0.07337   0.86004   0.82617   0.00000  Uiso   1.00
N134   N     0.11915   0.38220   0.12470   0.00000  Uiso   1.00
N135   N     0.33636   0.16856   0.90868   0.00000  Uiso   1.00
N136   N     0.25502   0.91649   0.93770   0.00000  Uiso   1.00
N137   N     0.30080   0.43864   0.23623   0.00000  Uiso   1.00
N138   N     0.51801   0.22501   0.02021   0.00000  Uiso   1.00
C139   C     0.83969   0.96533   0.55666   0.00000  Uiso   1.00
C140   C     0.81925   0.08790   0.56170   0.00000  Uiso   1.00
C141   C     0.90326   0.15952   0.62806   0.00000  Uiso   1.00
C142   C     0.86709   0.26861   0.62065   0.00000  Uiso   1.00
C143   C     0.85303   0.45346   0.63930   0.00000  Uiso   1.00
C144   C     0.80664   0.95622   0.47942   0.00000  Uiso   1.00
C145   C     0.88005   0.91711   0.47661   0.00000  Uiso   1.00
C146   C     0.83325   0.91534   0.39993   0.00000  Uiso   1.00
C147   C     0.79958   0.89568   0.29083   0.00000  Uiso   1.00
C148   C     0.74679   0.89735   0.53897   0.00000  Uiso   1.00
C149   C     0.76985   0.80873   0.58620   0.00000  Uiso   1.00
C150   C     0.67266   0.75738   0.55965   0.00000  Uiso   1.00
C151   C     0.54604   0.64632   0.54301   0.00000  Uiso   1.00
C152   C     0.62607   0.03170   0.42550   0.00000  Uiso   1.00
C153   C     0.70322   0.12395   0.49046   0.00000  Uiso   1.00
C154   C     0.66691   0.23296   0.48295   0.00000  Uiso   1.00
C155   C     0.75085   0.30473   0.54929   0.00000  Uiso   1.00
C156   C     0.69062   0.99227   0.40818   0.00000  Uiso   1.00
C157   C     0.64370   0.99055   0.33149   0.00000  Uiso   1.00
C158   C     0.71701   0.95145   0.32856   0.00000  Uiso   1.00
C159   C     0.63075   0.93341   0.46773   0.00000  Uiso   1.00
C160   C     0.53350   0.88217   0.44109   0.00000  Uiso   1.00
C161   C     0.55642   0.79349   0.48828   0.00000  Uiso   1.00
H162   H     0.93002   0.93726   0.61212   0.00000  Uiso   1.00
H163   H     0.99305   0.13159   0.68318   0.00000  Uiso   1.00
H164   H     0.96983   0.88921   0.53175   0.00000  Uiso   1.00
H165   H     0.85965   0.78085   0.64133   0.00000  Uiso   1.00
H166   H     0.01177   0.36295   0.73053   0.00000  Uiso   1.00
H167   H     0.96279   0.85184   0.41122   0.00000  Uiso   1.00
H168   H     0.73046   0.62335   0.64230   0.00000  Uiso   1.00
H169   H     0.53573   0.05977   0.37003   0.00000  Uiso   1.00
H170   H     0.57712   0.26083   0.42781   0.00000  Uiso   1.00
H171   H     0.55390   0.01845   0.27637   0.00000  Uiso   1.00
H172   H     0.44372   0.91010   0.38596   0.00000  Uiso   1.00
H173   H     0.67418   0.46785   0.52326   0.00000  Uiso   1.00
H174   H     0.62521   0.95673   0.20395   0.00000  Uiso   1.00
H175   H     0.39288   0.72825   0.43503   0.00000  Uiso   1.00
O176   O     0.87733   0.54547   0.66926   0.00000  Uiso   1.00
O177   O     0.81307   0.87489   0.25034   0.00000  Uiso   1.00
O178   O     0.50826   0.57512   0.55351   0.00000  Uiso   1.00
N179   N     0.92663   0.36004   0.67383   0.00000  Uiso   1.00
N180   N     0.88085   0.88220   0.37530   0.00000  Uiso   1.00
N181   N     0.66364   0.66856   0.59132   0.00000  Uiso   1.00
N182   N     0.74498   0.41649   0.56230   0.00000  Uiso   1.00
N183   N     0.69920   0.93864   0.26377   0.00000  Uiso   1.00
N184   N     0.48199   0.72501   0.47979   0.00000  Uiso   1.00
