data_job_01798
_audit_creation_date              2018-12-19
_audit_creation_method            'Materials Studio'
_symmetry_space_group_name_H-M    'P1'
_symmetry_Int_Tables_number       1
_symmetry_cell_setting            triclinic
loop_
_symmetry_equiv_pos_as_xyz
  x,y,z
_cell_length_a                    40.2888
_cell_length_b                    15.0652
_cell_length_c                    9.4751
_cell_angle_alpha                 90.0000
_cell_angle_beta                  80.1134
_cell_angle_gamma                 90.0000
loop_
_atom_site_label
_atom_site_type_symbol
_atom_site_fract_x
_atom_site_fract_y
_atom_site_fract_z
_atom_site_U_iso_or_equiv
_atom_site_adp_type
_atom_site_occupancy
C1     C     0.87274   0.26684   0.71598   0.00000  Uiso   1.00
C2     C     0.83934   0.31298   0.77107   0.00000  Uiso   1.00
C3     C     0.83019   0.35149   0.90517   0.00000  Uiso   1.00
C4     C     0.79852   0.39037   0.93510   0.00000  Uiso   1.00
C5     C     0.74995   0.46193   0.03598   0.00000  Uiso   1.00
C6     C     0.86376   0.17361   0.67238   0.00000  Uiso   1.00
C7     C     0.87516   0.09494   0.72349   0.00000  Uiso   1.00
C8     C     0.86405   0.01650   0.67033   0.00000  Uiso   1.00
C9     C     0.85342   0.87168   0.61791   0.00000  Uiso   1.00
C10    C     0.88772   0.31432   0.57752   0.00000  Uiso   1.00
C11    C     0.91926   0.35393   0.54883   0.00000  Uiso   1.00
C12    C     0.92832   0.39395   0.41578   0.00000  Uiso   1.00
C13    C     0.95489   0.46760   0.21607   0.00000  Uiso   1.00
C14    C     0.83276   0.26742   0.53069   0.00000  Uiso   1.00
C15    C     0.81762   0.31329   0.67043   0.00000  Uiso   1.00
C16    C     0.78596   0.35213   0.70016   0.00000  Uiso   1.00
C17    C     0.77676   0.39069   0.83428   0.00000  Uiso   1.00
C18    C     0.84205   0.17392   0.57174   0.00000  Uiso   1.00
C19    C     0.83092   0.09558   0.51849   0.00000  Uiso   1.00
C20    C     0.84229   0.01681   0.56950   0.00000  Uiso   1.00
C21    C     0.86600   0.31463   0.47687   0.00000  Uiso   1.00
C22    C     0.87502   0.35458   0.34384   0.00000  Uiso   1.00
C23    C     0.90657   0.39426   0.31496   0.00000  Uiso   1.00
H24    H     0.88964   0.26658   0.79433   0.00000  Uiso   1.00
H25    H     0.84700   0.35122   0.98303   0.00000  Uiso   1.00
H26    H     0.89196   0.09471   0.80136   0.00000  Uiso   1.00
H27    H     0.93605   0.35368   0.62674   0.00000  Uiso   1.00
H28    H     0.79014   0.44517   0.14787   0.00000  Uiso   1.00
H29    H     0.88495   0.90430   0.76478   0.00000  Uiso   1.00
H30    H     0.97793   0.45038   0.39655   0.00000  Uiso   1.00
H31    H     0.81585   0.26766   0.45233   0.00000  Uiso   1.00
H32    H     0.76916   0.35237   0.62226   0.00000  Uiso   1.00
H33    H     0.81412   0.09585   0.44060   0.00000  Uiso   1.00
H34    H     0.85821   0.35482   0.26598   0.00000  Uiso   1.00
H35    H     0.72696   0.44609   0.85506   0.00000  Uiso   1.00
H36    H     0.82178   0.90523   0.47196   0.00000  Uiso   1.00
H37    H     0.91475   0.45130   0.10374   0.00000  Uiso   1.00
O38    O     0.72915   0.50130   0.11944   0.00000  Uiso   1.00
O39    O     0.85356   0.79171   0.61682   0.00000  Uiso   1.00
O40    O     0.97554   0.50815   0.13372   0.00000  Uiso   1.00
N41    N     0.78168   0.43378   0.05562   0.00000  Uiso   1.00
N42    N     0.87032   0.92810   0.69747   0.00000  Uiso   1.00
N43    N     0.95725   0.43861   0.35320   0.00000  Uiso   1.00
N44    N     0.74768   0.43428   0.89806   0.00000  Uiso   1.00
N45    N     0.83633   0.92860   0.53992   0.00000  Uiso   1.00
N46    N     0.92326   0.43911   0.19564   0.00000  Uiso   1.00
C47    C     0.37274   0.76684   0.71598   0.00000  Uiso   1.00
C48    C     0.33934   0.81298   0.77107   0.00000  Uiso   1.00
C49    C     0.33019   0.85149   0.90517   0.00000  Uiso   1.00
C50    C     0.29852   0.89037   0.93510   0.00000  Uiso   1.00
C51    C     0.24995   0.96193   0.03598   0.00000  Uiso   1.00
C52    C     0.36376   0.67361   0.67238   0.00000  Uiso   1.00
C53    C     0.37516   0.59494   0.72349   0.00000  Uiso   1.00
C54    C     0.36405   0.51650   0.67033   0.00000  Uiso   1.00
C55    C     0.35342   0.37168   0.61791   0.00000  Uiso   1.00
C56    C     0.38772   0.81432   0.57752   0.00000  Uiso   1.00
C57    C     0.41926   0.85393   0.54883   0.00000  Uiso   1.00
C58    C     0.42832   0.89395   0.41578   0.00000  Uiso   1.00
C59    C     0.45489   0.96760   0.21607   0.00000  Uiso   1.00
C60    C     0.33276   0.76742   0.53069   0.00000  Uiso   1.00
C61    C     0.31762   0.81329   0.67043   0.00000  Uiso   1.00
C62    C     0.28596   0.85213   0.70016   0.00000  Uiso   1.00
C63    C     0.27676   0.89069   0.83428   0.00000  Uiso   1.00
C64    C     0.34205   0.67392   0.57174   0.00000  Uiso   1.00
C65    C     0.33092   0.59558   0.51849   0.00000  Uiso   1.00
C66    C     0.34229   0.51681   0.56950   0.00000  Uiso   1.00
C67    C     0.36600   0.81463   0.47687   0.00000  Uiso   1.00
C68    C     0.37502   0.85458   0.34384   0.00000  Uiso   1.00
C69    C     0.40657   0.89426   0.31496   0.00000  Uiso   1.00
H70    H     0.38964   0.76658   0.79433   0.00000  Uiso   1.00
H71    H     0.34700   0.85122   0.98303   0.00000  Uiso   1.00
H72    H     0.39196   0.59471   0.80136   0.00000  Uiso   1.00
H73    H     0.43605   0.85368   0.62674   0.00000  Uiso   1.00
H74    H     0.29014   0.94517   0.14787   0.00000  Uiso   1.00
H75    H     0.38495   0.40430   0.76478   0.00000  Uiso   1.00
H76    H     0.47793   0.95038   0.39655   0.00000  Uiso   1.00
H77    H     0.31585   0.76766   0.45233   0.00000  Uiso   1.00
H78    H     0.26916   0.85237   0.62226   0.00000  Uiso   1.00
H79    H     0.31412   0.59585   0.44060   0.00000  Uiso   1.00
H80    H     0.35821   0.85482   0.26598   0.00000  Uiso   1.00
H81    H     0.22696   0.94609   0.85506   0.00000  Uiso   1.00
H82    H     0.32178   0.40523   0.47196   0.00000  Uiso   1.00
H83    H     0.41475   0.95130   0.10374   0.00000  Uiso   1.00
O84    O     0.22915   0.00130   0.11944   0.00000  Uiso   1.00
O85    O     0.35356   0.29171   0.61682   0.00000  Uiso   1.00
O86    O     0.47554   0.00815   0.13372   0.00000  Uiso   1.00
N87    N     0.28168   0.93378   0.05562   0.00000  Uiso   1.00
N88    N     0.37032   0.42810   0.69747   0.00000  Uiso   1.00
N89    N     0.45725   0.93861   0.35320   0.00000  Uiso   1.00
N90    N     0.24768   0.93428   0.89806   0.00000  Uiso   1.00
N91    N     0.33633   0.42860   0.53992   0.00000  Uiso   1.00
N92    N     0.42326   0.93911   0.19564   0.00000  Uiso   1.00
C93    C     0.12726   0.26684   0.78402   0.00000  Uiso   1.00
C94    C     0.16066   0.31298   0.72893   0.00000  Uiso   1.00
C95    C     0.16981   0.35149   0.59483   0.00000  Uiso   1.00
C96    C     0.20148   0.39037   0.56490   0.00000  Uiso   1.00
C97    C     0.25005   0.46193   0.46402   0.00000  Uiso   1.00
C98    C     0.13624   0.17361   0.82762   0.00000  Uiso   1.00
C99    C     0.12484   0.09494   0.77651   0.00000  Uiso   1.00
C100   C     0.13595   0.01650   0.82967   0.00000  Uiso   1.00
C101   C     0.14658   0.87168   0.88209   0.00000  Uiso   1.00
C102   C     0.11228   0.31432   0.92248   0.00000  Uiso   1.00
C103   C     0.08074   0.35393   0.95117   0.00000  Uiso   1.00
C104   C     0.07168   0.39395   0.08422   0.00000  Uiso   1.00
C105   C     0.04511   0.46760   0.28393   0.00000  Uiso   1.00
C106   C     0.16724   0.26742   0.96931   0.00000  Uiso   1.00
C107   C     0.18238   0.31329   0.82957   0.00000  Uiso   1.00
C108   C     0.21404   0.35213   0.79984   0.00000  Uiso   1.00
C109   C     0.22324   0.39069   0.66572   0.00000  Uiso   1.00
C110   C     0.15795   0.17392   0.92826   0.00000  Uiso   1.00
C111   C     0.16908   0.09558   0.98151   0.00000  Uiso   1.00
C112   C     0.15771   0.01681   0.93050   0.00000  Uiso   1.00
C113   C     0.13400   0.31463   0.02313   0.00000  Uiso   1.00
C114   C     0.12498   0.35458   0.15616   0.00000  Uiso   1.00
C115   C     0.09343   0.39426   0.18504   0.00000  Uiso   1.00
H116   H     0.11036   0.26658   0.70567   0.00000  Uiso   1.00
H117   H     0.15300   0.35122   0.51697   0.00000  Uiso   1.00
H118   H     0.10804   0.09471   0.69864   0.00000  Uiso   1.00
H119   H     0.06395   0.35368   0.87326   0.00000  Uiso   1.00
H120   H     0.20986   0.44517   0.35213   0.00000  Uiso   1.00
H121   H     0.11505   0.90430   0.73522   0.00000  Uiso   1.00
H122   H     0.02207   0.45038   0.10345   0.00000  Uiso   1.00
H123   H     0.18415   0.26766   0.04767   0.00000  Uiso   1.00
H124   H     0.23084   0.35237   0.87774   0.00000  Uiso   1.00
H125   H     0.18588   0.09585   0.05940   0.00000  Uiso   1.00
H126   H     0.14179   0.35482   0.23402   0.00000  Uiso   1.00
H127   H     0.27304   0.44609   0.64494   0.00000  Uiso   1.00
H128   H     0.17822   0.90523   0.02804   0.00000  Uiso   1.00
H129   H     0.08525   0.45130   0.39626   0.00000  Uiso   1.00
O130   O     0.27085   0.50130   0.38056   0.00000  Uiso   1.00
O131   O     0.14644   0.79171   0.88318   0.00000  Uiso   1.00
O132   O     0.02446   0.50815   0.36628   0.00000  Uiso   1.00
N133   N     0.21832   0.43378   0.44438   0.00000  Uiso   1.00
N134   N     0.12968   0.92810   0.80253   0.00000  Uiso   1.00
N135   N     0.04275   0.43861   0.14680   0.00000  Uiso   1.00
N136   N     0.25232   0.43428   0.60194   0.00000  Uiso   1.00
N137   N     0.16367   0.92860   0.96008   0.00000  Uiso   1.00
N138   N     0.07674   0.43911   0.30436   0.00000  Uiso   1.00
C139   C     0.62726   0.76684   0.78402   0.00000  Uiso   1.00
C140   C     0.66066   0.81298   0.72893   0.00000  Uiso   1.00
C141   C     0.66981   0.85149   0.59483   0.00000  Uiso   1.00
C142   C     0.70148   0.89037   0.56490   0.00000  Uiso   1.00
C143   C     0.75005   0.96193   0.46402   0.00000  Uiso   1.00
C144   C     0.63624   0.67361   0.82762   0.00000  Uiso   1.00
C145   C     0.62484   0.59494   0.77651   0.00000  Uiso   1.00
C146   C     0.63595   0.51650   0.82967   0.00000  Uiso   1.00
C147   C     0.64658   0.37168   0.88209   0.00000  Uiso   1.00
C148   C     0.61228   0.81432   0.92248   0.00000  Uiso   1.00
C149   C     0.58074   0.85393   0.95117   0.00000  Uiso   1.00
C150   C     0.57168   0.89395   0.08422   0.00000  Uiso   1.00
C151   C     0.54511   0.96760   0.28393   0.00000  Uiso   1.00
C152   C     0.66724   0.76742   0.96931   0.00000  Uiso   1.00
C153   C     0.68238   0.81329   0.82957   0.00000  Uiso   1.00
C154   C     0.71404   0.85213   0.79984   0.00000  Uiso   1.00
C155   C     0.72324   0.89069   0.66572   0.00000  Uiso   1.00
C156   C     0.65795   0.67392   0.92826   0.00000  Uiso   1.00
C157   C     0.66908   0.59558   0.98151   0.00000  Uiso   1.00
C158   C     0.65771   0.51681   0.93050   0.00000  Uiso   1.00
C159   C     0.63400   0.81463   0.02313   0.00000  Uiso   1.00
C160   C     0.62498   0.85458   0.15616   0.00000  Uiso   1.00
C161   C     0.59343   0.89426   0.18504   0.00000  Uiso   1.00
H162   H     0.61036   0.76658   0.70567   0.00000  Uiso   1.00
H163   H     0.65300   0.85122   0.51697   0.00000  Uiso   1.00
H164   H     0.60804   0.59471   0.69864   0.00000  Uiso   1.00
H165   H     0.56395   0.85368   0.87326   0.00000  Uiso   1.00
H166   H     0.70986   0.94517   0.35213   0.00000  Uiso   1.00
H167   H     0.61505   0.40430   0.73522   0.00000  Uiso   1.00
H168   H     0.52207   0.95038   0.10345   0.00000  Uiso   1.00
H169   H     0.68415   0.76766   0.04767   0.00000  Uiso   1.00
H170   H     0.73084   0.85237   0.87774   0.00000  Uiso   1.00
H171   H     0.68588   0.59585   0.05940   0.00000  Uiso   1.00
H172   H     0.64179   0.85482   0.23402   0.00000  Uiso   1.00
H173   H     0.77304   0.94609   0.64494   0.00000  Uiso   1.00
H174   H     0.67822   0.40523   0.02804   0.00000  Uiso   1.00
H175   H     0.58525   0.95130   0.39626   0.00000  Uiso   1.00
O176   O     0.77085   0.00130   0.38056   0.00000  Uiso   1.00
O177   O     0.64644   0.29171   0.88318   0.00000  Uiso   1.00
O178   O     0.52446   0.00815   0.36628   0.00000  Uiso   1.00
N179   N     0.71832   0.93378   0.44438   0.00000  Uiso   1.00
N180   N     0.62968   0.42810   0.80253   0.00000  Uiso   1.00
N181   N     0.54275   0.93861   0.14680   0.00000  Uiso   1.00
N182   N     0.75232   0.93428   0.60194   0.00000  Uiso   1.00
N183   N     0.66367   0.42860   0.96008   0.00000  Uiso   1.00
N184   N     0.57674   0.93911   0.30436   0.00000  Uiso   1.00
C185   C     0.12726   0.73316   0.28402   0.00000  Uiso   1.00
C186   C     0.16066   0.68702   0.22893   0.00000  Uiso   1.00
C187   C     0.16981   0.64851   0.09483   0.00000  Uiso   1.00
C188   C     0.20148   0.60963   0.06490   0.00000  Uiso   1.00
C189   C     0.25005   0.53807   0.96402   0.00000  Uiso   1.00
C190   C     0.13624   0.82639   0.32762   0.00000  Uiso   1.00
C191   C     0.12484   0.90506   0.27651   0.00000  Uiso   1.00
C192   C     0.13595   0.98350   0.32967   0.00000  Uiso   1.00
C193   C     0.14658   0.12832   0.38209   0.00000  Uiso   1.00
C194   C     0.11228   0.68568   0.42248   0.00000  Uiso   1.00
C195   C     0.08074   0.64607   0.45117   0.00000  Uiso   1.00
C196   C     0.07168   0.60605   0.58422   0.00000  Uiso   1.00
C197   C     0.04511   0.53240   0.78393   0.00000  Uiso   1.00
C198   C     0.16724   0.73258   0.46931   0.00000  Uiso   1.00
C199   C     0.18238   0.68671   0.32957   0.00000  Uiso   1.00
C200   C     0.21404   0.64787   0.29984   0.00000  Uiso   1.00
C201   C     0.22324   0.60931   0.16572   0.00000  Uiso   1.00
C202   C     0.15795   0.82608   0.42826   0.00000  Uiso   1.00
C203   C     0.16908   0.90442   0.48151   0.00000  Uiso   1.00
C204   C     0.15771   0.98319   0.43050   0.00000  Uiso   1.00
C205   C     0.13400   0.68537   0.52313   0.00000  Uiso   1.00
C206   C     0.12498   0.64542   0.65616   0.00000  Uiso   1.00
C207   C     0.09343   0.60574   0.68504   0.00000  Uiso   1.00
H208   H     0.11036   0.73342   0.20567   0.00000  Uiso   1.00
H209   H     0.15300   0.64878   0.01697   0.00000  Uiso   1.00
H210   H     0.10804   0.90529   0.19864   0.00000  Uiso   1.00
H211   H     0.06395   0.64632   0.37326   0.00000  Uiso   1.00
H212   H     0.20986   0.55483   0.85213   0.00000  Uiso   1.00
H213   H     0.11505   0.09570   0.23522   0.00000  Uiso   1.00
H214   H     0.02207   0.54962   0.60345   0.00000  Uiso   1.00
H215   H     0.18415   0.73234   0.54767   0.00000  Uiso   1.00
H216   H     0.23084   0.64763   0.37774   0.00000  Uiso   1.00
H217   H     0.18588   0.90415   0.55940   0.00000  Uiso   1.00
H218   H     0.14179   0.64518   0.73402   0.00000  Uiso   1.00
H219   H     0.27304   0.55391   0.14494   0.00000  Uiso   1.00
H220   H     0.17822   0.09477   0.52804   0.00000  Uiso   1.00
H221   H     0.08525   0.54870   0.89626   0.00000  Uiso   1.00
O222   O     0.27085   0.49870   0.88056   0.00000  Uiso   1.00
O223   O     0.14644   0.20829   0.38318   0.00000  Uiso   1.00
O224   O     0.02446   0.49185   0.86628   0.00000  Uiso   1.00
N225   N     0.21832   0.56622   0.94438   0.00000  Uiso   1.00
N226   N     0.12968   0.07190   0.30253   0.00000  Uiso   1.00
N227   N     0.04275   0.56139   0.64680   0.00000  Uiso   1.00
N228   N     0.25232   0.56572   0.10194   0.00000  Uiso   1.00
N229   N     0.16367   0.07140   0.46008   0.00000  Uiso   1.00
N230   N     0.07674   0.56089   0.80436   0.00000  Uiso   1.00
C231   C     0.62726   0.23316   0.28402   0.00000  Uiso   1.00
C232   C     0.66066   0.18702   0.22893   0.00000  Uiso   1.00
C233   C     0.66981   0.14851   0.09483   0.00000  Uiso   1.00
C234   C     0.70148   0.10963   0.06490   0.00000  Uiso   1.00
C235   C     0.75005   0.03807   0.96402   0.00000  Uiso   1.00
C236   C     0.63624   0.32639   0.32762   0.00000  Uiso   1.00
C237   C     0.62484   0.40506   0.27651   0.00000  Uiso   1.00
C238   C     0.63595   0.48350   0.32967   0.00000  Uiso   1.00
C239   C     0.64658   0.62832   0.38209   0.00000  Uiso   1.00
C240   C     0.61228   0.18568   0.42248   0.00000  Uiso   1.00
C241   C     0.58074   0.14607   0.45117   0.00000  Uiso   1.00
C242   C     0.57168   0.10605   0.58422   0.00000  Uiso   1.00
C243   C     0.54511   0.03240   0.78393   0.00000  Uiso   1.00
C244   C     0.66724   0.23258   0.46931   0.00000  Uiso   1.00
C245   C     0.68238   0.18671   0.32957   0.00000  Uiso   1.00
C246   C     0.71404   0.14787   0.29984   0.00000  Uiso   1.00
C247   C     0.72324   0.10931   0.16572   0.00000  Uiso   1.00
C248   C     0.65795   0.32608   0.42826   0.00000  Uiso   1.00
C249   C     0.66908   0.40442   0.48151   0.00000  Uiso   1.00
C250   C     0.65771   0.48319   0.43050   0.00000  Uiso   1.00
C251   C     0.63400   0.18537   0.52313   0.00000  Uiso   1.00
C252   C     0.62498   0.14542   0.65616   0.00000  Uiso   1.00
C253   C     0.59343   0.10574   0.68504   0.00000  Uiso   1.00
H254   H     0.61036   0.23342   0.20567   0.00000  Uiso   1.00
H255   H     0.65300   0.14878   0.01697   0.00000  Uiso   1.00
H256   H     0.60804   0.40529   0.19864   0.00000  Uiso   1.00
H257   H     0.56395   0.14632   0.37326   0.00000  Uiso   1.00
H258   H     0.70986   0.05483   0.85213   0.00000  Uiso   1.00
H259   H     0.61505   0.59570   0.23522   0.00000  Uiso   1.00
H260   H     0.52207   0.04962   0.60345   0.00000  Uiso   1.00
H261   H     0.68415   0.23234   0.54767   0.00000  Uiso   1.00
H262   H     0.73084   0.14763   0.37774   0.00000  Uiso   1.00
H263   H     0.68588   0.40415   0.55940   0.00000  Uiso   1.00
H264   H     0.64179   0.14518   0.73402   0.00000  Uiso   1.00
H265   H     0.77304   0.05391   0.14494   0.00000  Uiso   1.00
H266   H     0.67822   0.59477   0.52804   0.00000  Uiso   1.00
H267   H     0.58525   0.04870   0.89626   0.00000  Uiso   1.00
O268   O     0.77085   0.99870   0.88056   0.00000  Uiso   1.00
O269   O     0.64644   0.70829   0.38318   0.00000  Uiso   1.00
O270   O     0.52446   0.99185   0.86628   0.00000  Uiso   1.00
N271   N     0.71832   0.06622   0.94438   0.00000  Uiso   1.00
N272   N     0.62968   0.57190   0.30253   0.00000  Uiso   1.00
N273   N     0.54275   0.06139   0.64680   0.00000  Uiso   1.00
N274   N     0.75232   0.06572   0.10194   0.00000  Uiso   1.00
N275   N     0.66367   0.57140   0.46008   0.00000  Uiso   1.00
N276   N     0.57674   0.06089   0.80436   0.00000  Uiso   1.00
C277   C     0.87274   0.73316   0.21598   0.00000  Uiso   1.00
C278   C     0.83934   0.68702   0.27107   0.00000  Uiso   1.00
C279   C     0.83019   0.64851   0.40517   0.00000  Uiso   1.00
C280   C     0.79852   0.60963   0.43510   0.00000  Uiso   1.00
C281   C     0.74995   0.53807   0.53598   0.00000  Uiso   1.00
C282   C     0.86376   0.82639   0.17238   0.00000  Uiso   1.00
C283   C     0.87516   0.90506   0.22349   0.00000  Uiso   1.00
C284   C     0.86405   0.98350   0.17033   0.00000  Uiso   1.00
C285   C     0.85342   0.12832   0.11791   0.00000  Uiso   1.00
C286   C     0.88772   0.68568   0.07752   0.00000  Uiso   1.00
C287   C     0.91926   0.64607   0.04883   0.00000  Uiso   1.00
C288   C     0.92832   0.60605   0.91578   0.00000  Uiso   1.00
C289   C     0.95489   0.53240   0.71607   0.00000  Uiso   1.00
C290   C     0.83276   0.73258   0.03069   0.00000  Uiso   1.00
C291   C     0.81762   0.68671   0.17043   0.00000  Uiso   1.00
C292   C     0.78596   0.64787   0.20016   0.00000  Uiso   1.00
C293   C     0.77676   0.60931   0.33428   0.00000  Uiso   1.00
C294   C     0.84205   0.82608   0.07174   0.00000  Uiso   1.00
C295   C     0.83092   0.90442   0.01849   0.00000  Uiso   1.00
C296   C     0.84229   0.98319   0.06950   0.00000  Uiso   1.00
C297   C     0.86600   0.68537   0.97687   0.00000  Uiso   1.00
C298   C     0.87502   0.64542   0.84384   0.00000  Uiso   1.00
C299   C     0.90657   0.60574   0.81496   0.00000  Uiso   1.00
H300   H     0.88964   0.73342   0.29433   0.00000  Uiso   1.00
H301   H     0.84700   0.64878   0.48303   0.00000  Uiso   1.00
H302   H     0.89196   0.90529   0.30136   0.00000  Uiso   1.00
H303   H     0.93605   0.64632   0.12674   0.00000  Uiso   1.00
H304   H     0.79014   0.55483   0.64787   0.00000  Uiso   1.00
H305   H     0.88495   0.09570   0.26478   0.00000  Uiso   1.00
H306   H     0.97793   0.54962   0.89655   0.00000  Uiso   1.00
H307   H     0.81585   0.73234   0.95233   0.00000  Uiso   1.00
H308   H     0.76916   0.64763   0.12226   0.00000  Uiso   1.00
H309   H     0.81412   0.90415   0.94060   0.00000  Uiso   1.00
H310   H     0.85821   0.64518   0.76598   0.00000  Uiso   1.00
H311   H     0.72696   0.55391   0.35506   0.00000  Uiso   1.00
H312   H     0.82178   0.09477   0.97196   0.00000  Uiso   1.00
H313   H     0.91475   0.54870   0.60374   0.00000  Uiso   1.00
O314   O     0.72915   0.49870   0.61944   0.00000  Uiso   1.00
O315   O     0.85356   0.20829   0.11682   0.00000  Uiso   1.00
O316   O     0.97554   0.49185   0.63372   0.00000  Uiso   1.00
N317   N     0.78168   0.56622   0.55562   0.00000  Uiso   1.00
N318   N     0.87032   0.07190   0.19747   0.00000  Uiso   1.00
N319   N     0.95725   0.56139   0.85320   0.00000  Uiso   1.00
N320   N     0.74768   0.56572   0.39806   0.00000  Uiso   1.00
N321   N     0.83633   0.07140   0.03992   0.00000  Uiso   1.00
N322   N     0.92326   0.56089   0.69564   0.00000  Uiso   1.00
C323   C     0.37274   0.23316   0.21598   0.00000  Uiso   1.00
C324   C     0.33934   0.18702   0.27107   0.00000  Uiso   1.00
C325   C     0.33019   0.14851   0.40517   0.00000  Uiso   1.00
C326   C     0.29852   0.10963   0.43510   0.00000  Uiso   1.00
C327   C     0.24995   0.03807   0.53598   0.00000  Uiso   1.00
C328   C     0.36376   0.32639   0.17238   0.00000  Uiso   1.00
C329   C     0.37516   0.40506   0.22349   0.00000  Uiso   1.00
C330   C     0.36405   0.48350   0.17033   0.00000  Uiso   1.00
C331   C     0.35342   0.62832   0.11791   0.00000  Uiso   1.00
C332   C     0.38772   0.18568   0.07752   0.00000  Uiso   1.00
C333   C     0.41926   0.14607   0.04883   0.00000  Uiso   1.00
C334   C     0.42832   0.10605   0.91578   0.00000  Uiso   1.00
C335   C     0.45489   0.03240   0.71607   0.00000  Uiso   1.00
C336   C     0.33276   0.23258   0.03069   0.00000  Uiso   1.00
C337   C     0.31762   0.18671   0.17043   0.00000  Uiso   1.00
C338   C     0.28596   0.14787   0.20016   0.00000  Uiso   1.00
C339   C     0.27676   0.10931   0.33428   0.00000  Uiso   1.00
C340   C     0.34205   0.32608   0.07174   0.00000  Uiso   1.00
C341   C     0.33092   0.40442   0.01849   0.00000  Uiso   1.00
C342   C     0.34229   0.48319   0.06950   0.00000  Uiso   1.00
C343   C     0.36600   0.18537   0.97687   0.00000  Uiso   1.00
C344   C     0.37502   0.14542   0.84384   0.00000  Uiso   1.00
C345   C     0.40657   0.10574   0.81496   0.00000  Uiso   1.00
H346   H     0.38964   0.23342   0.29433   0.00000  Uiso   1.00
H347   H     0.34700   0.14878   0.48303   0.00000  Uiso   1.00
H348   H     0.39196   0.40529   0.30136   0.00000  Uiso   1.00
H349   H     0.43605   0.14632   0.12674   0.00000  Uiso   1.00
H350   H     0.29014   0.05483   0.64787   0.00000  Uiso   1.00
H351   H     0.38495   0.59570   0.26478   0.00000  Uiso   1.00
H352   H     0.47793   0.04962   0.89655   0.00000  Uiso   1.00
H353   H     0.31585   0.23234   0.95233   0.00000  Uiso   1.00
H354   H     0.26916   0.14763   0.12226   0.00000  Uiso   1.00
H355   H     0.31412   0.40415   0.94060   0.00000  Uiso   1.00
H356   H     0.35821   0.14518   0.76598   0.00000  Uiso   1.00
H357   H     0.22696   0.05391   0.35506   0.00000  Uiso   1.00
H358   H     0.32178   0.59477   0.97196   0.00000  Uiso   1.00
H359   H     0.41475   0.04870   0.60374   0.00000  Uiso   1.00
O360   O     0.22915   0.99870   0.61944   0.00000  Uiso   1.00
O361   O     0.35356   0.70829   0.11682   0.00000  Uiso   1.00
O362   O     0.47554   0.99185   0.63372   0.00000  Uiso   1.00
N363   N     0.28168   0.06622   0.55562   0.00000  Uiso   1.00
N364   N     0.37032   0.57190   0.19747   0.00000  Uiso   1.00
N365   N     0.45725   0.06139   0.85320   0.00000  Uiso   1.00
N366   N     0.24768   0.06572   0.39806   0.00000  Uiso   1.00
N367   N     0.33633   0.57140   0.03992   0.00000  Uiso   1.00
N368   N     0.42326   0.06089   0.69564   0.00000  Uiso   1.00
