data_job_00518
_audit_creation_date              2018-12-19
_audit_creation_method            'Materials Studio'
_symmetry_space_group_name_H-M    'P1'
_symmetry_Int_Tables_number       1
_symmetry_cell_setting            triclinic
loop_
_symmetry_equiv_pos_as_xyz
  x,y,z
_cell_length_a                    14.8136
_cell_length_b                    31.3653
_cell_length_c                    9.9370
_cell_angle_alpha                 90.0000
_cell_angle_beta                  141.3920
_cell_angle_gamma                 90.0000
loop_
_atom_site_label
_atom_site_type_symbol
_atom_site_fract_x
_atom_site_fract_y
_atom_site_fract_z
_atom_site_U_iso_or_equiv
_atom_site_adp_type
_atom_site_occupancy
C1     C     0.69349   0.66856   0.94771   0.00000  Uiso   1.00
C2     C     0.54403   0.68375   0.72972   0.00000  Uiso   1.00
C3     C     0.51607   0.71746   0.61054   0.00000  Uiso   1.00
C4     C     0.37194   0.72631   0.41498   0.00000  Uiso   1.00
C5     C     0.15692   0.75353   0.08764   0.00000  Uiso   1.00
C6     C     0.70148   0.62149   0.91942   0.00000  Uiso   1.00
C7     C     0.80592   0.60286   0.95977   0.00000  Uiso   1.00
C8     C     0.79432   0.55929   0.92394   0.00000  Uiso   1.00
C9     C     0.82381   0.48984   0.89126   0.00000  Uiso   1.00
C10    C     0.69360   0.67014   0.10122   0.00000  Uiso   1.00
C11    C     0.79144   0.69241   0.29445   0.00000  Uiso   1.00
C12    C     0.77323   0.68980   0.41170   0.00000  Uiso   1.00
C13    C     0.79048   0.69589   0.66128   0.00000  Uiso   1.00
C14    C     0.48723   0.62432   0.81236   0.00000  Uiso   1.00
C15    C     0.43200   0.65971   0.65621   0.00000  Uiso   1.00
C16    C     0.28787   0.66851   0.46079   0.00000  Uiso   1.00
C17    C     0.25970   0.70224   0.34134   0.00000  Uiso   1.00
C18    C     0.58946   0.59746   0.84591   0.00000  Uiso   1.00
C19    C     0.57771   0.55391   0.81002   0.00000  Uiso   1.00
C20    C     0.68209   0.53522   0.85029   0.00000  Uiso   1.00
C21    C     0.58157   0.64611   0.02770   0.00000  Uiso   1.00
C22    C     0.56322   0.64346   0.14469   0.00000  Uiso   1.00
C23    C     0.66100   0.66572   0.33805   0.00000  Uiso   1.00
H24    H     0.78071   0.68727   0.00495   0.00000  Uiso   1.00
H25    H     0.60280   0.73605   0.66748   0.00000  Uiso   1.00
H26    H     0.89261   0.62146   0.01668   0.00000  Uiso   1.00
H27    H     0.87812   0.71100   0.35129   0.00000  Uiso   1.00
H28    H     0.35615   0.77952   0.26087   0.00000  Uiso   1.00
H29    H     0.96725   0.53790   0.99726   0.00000  Uiso   1.00
H30    H     0.93670   0.72671   0.70286   0.00000  Uiso   1.00
H31    H     0.40001   0.60561   0.75513   0.00000  Uiso   1.00
H32    H     0.20120   0.64991   0.40394   0.00000  Uiso   1.00
H33    H     0.49101   0.53532   0.75314   0.00000  Uiso   1.00
H34    H     0.47652   0.62486   0.08775   0.00000  Uiso   1.00
H35    H     0.03020   0.70961   0.04697   0.00000  Uiso   1.00
H36    H     0.64130   0.46799   0.78337   0.00000  Uiso   1.00
H37    H     0.61075   0.65680   0.48895   0.00000  Uiso   1.00
O38    O     0.06926   0.77517   0.92737   0.00000  Uiso   1.00
O39    O     0.87102   0.45818   0.89353   0.00000  Uiso   1.00
O40    O     0.83093   0.70589   0.81924   0.00000  Uiso   1.00
N41    N     0.30672   0.75699   0.25875   0.00000  Uiso   1.00
N42    N     0.87805   0.53110   0.94719   0.00000  Uiso   1.00
N43    N     0.84951   0.70761   0.60689   0.00000  Uiso   1.00
N44    N     0.13133   0.71937   0.14365   0.00000  Uiso   1.00
N45    N     0.70265   0.49348   0.83209   0.00000  Uiso   1.00
N46    N     0.67412   0.66999   0.49179   0.00000  Uiso   1.00
C47    C     0.30651   0.16856   0.55229   0.00000  Uiso   1.00
C48    C     0.45597   0.18375   0.77028   0.00000  Uiso   1.00
C49    C     0.48393   0.21746   0.88946   0.00000  Uiso   1.00
C50    C     0.62806   0.22631   0.08502   0.00000  Uiso   1.00
C51    C     0.84308   0.25353   0.41236   0.00000  Uiso   1.00
C52    C     0.29852   0.12149   0.58058   0.00000  Uiso   1.00
C53    C     0.19408   0.10286   0.54023   0.00000  Uiso   1.00
C54    C     0.20568   0.05929   0.57606   0.00000  Uiso   1.00
C55    C     0.17619   0.98984   0.60874   0.00000  Uiso   1.00
C56    C     0.30640   0.17014   0.39878   0.00000  Uiso   1.00
C57    C     0.20856   0.19241   0.20555   0.00000  Uiso   1.00
C58    C     0.22677   0.18980   0.08830   0.00000  Uiso   1.00
C59    C     0.20952   0.19589   0.83872   0.00000  Uiso   1.00
C60    C     0.51277   0.12432   0.68764   0.00000  Uiso   1.00
C61    C     0.56800   0.15971   0.84379   0.00000  Uiso   1.00
C62    C     0.71213   0.16851   0.03921   0.00000  Uiso   1.00
C63    C     0.74030   0.20224   0.15866   0.00000  Uiso   1.00
C64    C     0.41054   0.09746   0.65409   0.00000  Uiso   1.00
C65    C     0.42229   0.05391   0.68998   0.00000  Uiso   1.00
C66    C     0.31791   0.03522   0.64971   0.00000  Uiso   1.00
C67    C     0.41843   0.14611   0.47230   0.00000  Uiso   1.00
C68    C     0.43678   0.14346   0.35531   0.00000  Uiso   1.00
C69    C     0.33900   0.16572   0.16195   0.00000  Uiso   1.00
H70    H     0.21929   0.18727   0.49505   0.00000  Uiso   1.00
H71    H     0.39720   0.23605   0.83252   0.00000  Uiso   1.00
H72    H     0.10739   0.12146   0.48332   0.00000  Uiso   1.00
H73    H     0.12188   0.21100   0.14871   0.00000  Uiso   1.00
H74    H     0.64385   0.27952   0.23913   0.00000  Uiso   1.00
H75    H     0.03275   0.03790   0.50274   0.00000  Uiso   1.00
H76    H     0.06330   0.22671   0.79714   0.00000  Uiso   1.00
H77    H     0.59999   0.10561   0.74487   0.00000  Uiso   1.00
H78    H     0.79880   0.14991   0.09606   0.00000  Uiso   1.00
H79    H     0.50899   0.03532   0.74686   0.00000  Uiso   1.00
H80    H     0.52348   0.12486   0.41225   0.00000  Uiso   1.00
H81    H     0.96980   0.20961   0.45303   0.00000  Uiso   1.00
H82    H     0.35870   0.96799   0.71663   0.00000  Uiso   1.00
H83    H     0.38925   0.15680   0.01105   0.00000  Uiso   1.00
O84    O     0.93074   0.27517   0.57263   0.00000  Uiso   1.00
O85    O     0.12898   0.95818   0.60647   0.00000  Uiso   1.00
O86    O     0.16907   0.20589   0.68076   0.00000  Uiso   1.00
N87    N     0.69328   0.25699   0.24125   0.00000  Uiso   1.00
N88    N     0.12195   0.03110   0.55281   0.00000  Uiso   1.00
N89    N     0.15049   0.20761   0.89311   0.00000  Uiso   1.00
N90    N     0.86867   0.21937   0.35635   0.00000  Uiso   1.00
N91    N     0.29735   0.99348   0.66791   0.00000  Uiso   1.00
N92    N     0.32588   0.16999   0.00821   0.00000  Uiso   1.00
C93    C     0.30651   0.33144   0.05229   0.00000  Uiso   1.00
C94    C     0.45597   0.31625   0.27028   0.00000  Uiso   1.00
C95    C     0.48393   0.28254   0.38946   0.00000  Uiso   1.00
C96    C     0.62806   0.27369   0.58502   0.00000  Uiso   1.00
C97    C     0.84308   0.24647   0.91236   0.00000  Uiso   1.00
C98    C     0.29852   0.37851   0.08058   0.00000  Uiso   1.00
C99    C     0.19408   0.39714   0.04023   0.00000  Uiso   1.00
C100   C     0.20568   0.44071   0.07606   0.00000  Uiso   1.00
C101   C     0.17619   0.51016   0.10874   0.00000  Uiso   1.00
C102   C     0.30640   0.32986   0.89878   0.00000  Uiso   1.00
C103   C     0.20856   0.30759   0.70555   0.00000  Uiso   1.00
C104   C     0.22677   0.31020   0.58830   0.00000  Uiso   1.00
C105   C     0.20952   0.30411   0.33872   0.00000  Uiso   1.00
C106   C     0.51277   0.37568   0.18764   0.00000  Uiso   1.00
C107   C     0.56800   0.34029   0.34379   0.00000  Uiso   1.00
C108   C     0.71213   0.33149   0.53921   0.00000  Uiso   1.00
C109   C     0.74030   0.29776   0.65866   0.00000  Uiso   1.00
C110   C     0.41054   0.40254   0.15409   0.00000  Uiso   1.00
C111   C     0.42229   0.44609   0.18998   0.00000  Uiso   1.00
C112   C     0.31791   0.46478   0.14971   0.00000  Uiso   1.00
C113   C     0.41843   0.35389   0.97230   0.00000  Uiso   1.00
C114   C     0.43678   0.35654   0.85531   0.00000  Uiso   1.00
C115   C     0.33900   0.33428   0.66195   0.00000  Uiso   1.00
H116   H     0.21929   0.31273   0.99505   0.00000  Uiso   1.00
H117   H     0.39720   0.26395   0.33252   0.00000  Uiso   1.00
H118   H     0.10739   0.37854   0.98332   0.00000  Uiso   1.00
H119   H     0.12188   0.28900   0.64871   0.00000  Uiso   1.00
H120   H     0.64385   0.22048   0.73913   0.00000  Uiso   1.00
H121   H     0.03275   0.46210   0.00274   0.00000  Uiso   1.00
H122   H     0.06330   0.27329   0.29714   0.00000  Uiso   1.00
H123   H     0.59999   0.39439   0.24487   0.00000  Uiso   1.00
H124   H     0.79880   0.35009   0.59606   0.00000  Uiso   1.00
H125   H     0.50899   0.46468   0.24686   0.00000  Uiso   1.00
H126   H     0.52348   0.37514   0.91225   0.00000  Uiso   1.00
H127   H     0.96980   0.29039   0.95303   0.00000  Uiso   1.00
H128   H     0.35870   0.53201   0.21663   0.00000  Uiso   1.00
H129   H     0.38925   0.34320   0.51105   0.00000  Uiso   1.00
O130   O     0.93074   0.22483   0.07263   0.00000  Uiso   1.00
O131   O     0.12898   0.54182   0.10647   0.00000  Uiso   1.00
O132   O     0.16907   0.29411   0.18076   0.00000  Uiso   1.00
N133   N     0.69328   0.24301   0.74125   0.00000  Uiso   1.00
N134   N     0.12195   0.46890   0.05281   0.00000  Uiso   1.00
N135   N     0.15049   0.29239   0.39311   0.00000  Uiso   1.00
N136   N     0.86867   0.28063   0.85635   0.00000  Uiso   1.00
N137   N     0.29735   0.50652   0.16791   0.00000  Uiso   1.00
N138   N     0.32588   0.33001   0.50821   0.00000  Uiso   1.00
C139   C     0.69349   0.83144   0.44771   0.00000  Uiso   1.00
C140   C     0.54403   0.81625   0.22972   0.00000  Uiso   1.00
C141   C     0.51607   0.78254   0.11054   0.00000  Uiso   1.00
C142   C     0.37194   0.77369   0.91498   0.00000  Uiso   1.00
C143   C     0.15692   0.74647   0.58764   0.00000  Uiso   1.00
C144   C     0.70148   0.87851   0.41942   0.00000  Uiso   1.00
C145   C     0.80592   0.89714   0.45977   0.00000  Uiso   1.00
C146   C     0.79432   0.94071   0.42394   0.00000  Uiso   1.00
C147   C     0.82381   0.01016   0.39126   0.00000  Uiso   1.00
C148   C     0.69360   0.82986   0.60122   0.00000  Uiso   1.00
C149   C     0.79144   0.80759   0.79445   0.00000  Uiso   1.00
C150   C     0.77323   0.81020   0.91170   0.00000  Uiso   1.00
C151   C     0.79048   0.80411   0.16128   0.00000  Uiso   1.00
C152   C     0.48723   0.87568   0.31236   0.00000  Uiso   1.00
C153   C     0.43200   0.84029   0.15621   0.00000  Uiso   1.00
C154   C     0.28787   0.83149   0.96079   0.00000  Uiso   1.00
C155   C     0.25970   0.79776   0.84134   0.00000  Uiso   1.00
C156   C     0.58946   0.90254   0.34591   0.00000  Uiso   1.00
C157   C     0.57771   0.94609   0.31002   0.00000  Uiso   1.00
C158   C     0.68209   0.96478   0.35029   0.00000  Uiso   1.00
C159   C     0.58157   0.85389   0.52770   0.00000  Uiso   1.00
C160   C     0.56322   0.85654   0.64469   0.00000  Uiso   1.00
C161   C     0.66100   0.83428   0.83805   0.00000  Uiso   1.00
H162   H     0.78071   0.81273   0.50495   0.00000  Uiso   1.00
H163   H     0.60280   0.76395   0.16748   0.00000  Uiso   1.00
H164   H     0.89261   0.87854   0.51668   0.00000  Uiso   1.00
H165   H     0.87812   0.78900   0.85129   0.00000  Uiso   1.00
H166   H     0.35615   0.72048   0.76087   0.00000  Uiso   1.00
H167   H     0.96725   0.96210   0.49726   0.00000  Uiso   1.00
H168   H     0.93670   0.77329   0.20286   0.00000  Uiso   1.00
H169   H     0.40001   0.89439   0.25513   0.00000  Uiso   1.00
H170   H     0.20120   0.85009   0.90394   0.00000  Uiso   1.00
H171   H     0.49101   0.96468   0.25314   0.00000  Uiso   1.00
H172   H     0.47652   0.87514   0.58775   0.00000  Uiso   1.00
H173   H     0.03020   0.79039   0.54697   0.00000  Uiso   1.00
H174   H     0.64130   0.03201   0.28337   0.00000  Uiso   1.00
H175   H     0.61075   0.84320   0.98895   0.00000  Uiso   1.00
O176   O     0.06926   0.72483   0.42737   0.00000  Uiso   1.00
O177   O     0.87102   0.04182   0.39353   0.00000  Uiso   1.00
O178   O     0.83093   0.79411   0.31924   0.00000  Uiso   1.00
N179   N     0.30672   0.74301   0.75875   0.00000  Uiso   1.00
N180   N     0.87805   0.96890   0.44719   0.00000  Uiso   1.00
N181   N     0.84951   0.79239   0.10689   0.00000  Uiso   1.00
N182   N     0.13133   0.78063   0.64365   0.00000  Uiso   1.00
N183   N     0.70265   0.00652   0.33209   0.00000  Uiso   1.00
N184   N     0.67412   0.83001   0.99179   0.00000  Uiso   1.00
