data_job_02035
_audit_creation_date              2018-12-19
_audit_creation_method            'Materials Studio'
_symmetry_space_group_name_H-M    'P1'
_symmetry_Int_Tables_number       1
_symmetry_cell_setting            triclinic
loop_
_symmetry_equiv_pos_as_xyz
  x,y,z
_cell_length_a                    11.1225
_cell_length_b                    22.9133
_cell_length_c                    18.9835
_cell_angle_alpha                 90.0000
_cell_angle_beta                  90.0000
_cell_angle_gamma                 90.0000
loop_
_atom_site_label
_atom_site_type_symbol
_atom_site_fract_x
_atom_site_fract_y
_atom_site_fract_z
_atom_site_U_iso_or_equiv
_atom_site_adp_type
_atom_site_occupancy
C1     C     0.79950   0.67115   0.01353   0.00000  Uiso   1.00
C2     C     0.90528   0.66900   0.06457   0.00000  Uiso   1.00
C3     C     0.94926   0.71570   0.10334   0.00000  Uiso   1.00
C4     C     0.04675   0.70480   0.14707   0.00000  Uiso   1.00
C5     C     0.20320   0.70992   0.22558   0.00000  Uiso   1.00
C6     C     0.84755   0.64928   0.94308   0.00000  Uiso   1.00
C7     C     0.84297   0.67940   0.87970   0.00000  Uiso   1.00
C8     C     0.89186   0.65189   0.82117   0.00000  Uiso   1.00
C9     C     0.95860   0.62639   0.71104   0.00000  Uiso   1.00
C10    C     0.71073   0.62500   0.03891   0.00000  Uiso   1.00
C11    C     0.59111   0.63470   0.05610   0.00000  Uiso   1.00
C12    C     0.52479   0.58674   0.07824   0.00000  Uiso   1.00
C13    C     0.37910   0.52354   0.11691   0.00000  Uiso   1.00
C14    C     0.89443   0.56875   0.02225   0.00000  Uiso   1.00
C15    C     0.95684   0.61338   0.06930   0.00000  Uiso   1.00
C16    C     0.05429   0.60241   0.11299   0.00000  Uiso   1.00
C17    C     0.09841   0.64908   0.15183   0.00000  Uiso   1.00
C18    C     0.89911   0.59367   0.94781   0.00000  Uiso   1.00
C19    C     0.94801   0.56611   0.88936   0.00000  Uiso   1.00
C20    C     0.94352   0.59617   0.82591   0.00000  Uiso   1.00
C21    C     0.76229   0.56938   0.04365   0.00000  Uiso   1.00
C22    C     0.69615   0.52140   0.06576   0.00000  Uiso   1.00
C23    C     0.57645   0.53102   0.08298   0.00000  Uiso   1.00
H24    H     0.75935   0.71446   0.00984   0.00000  Uiso   1.00
H25    H     0.90933   0.75874   0.09965   0.00000  Uiso   1.00
H26    H     0.80305   0.72244   0.87605   0.00000  Uiso   1.00
H27    H     0.55123   0.67774   0.05243   0.00000  Uiso   1.00
H28    H     0.09839   0.78331   0.20131   0.00000  Uiso   1.00
H29    H     0.87425   0.70677   0.72982   0.00000  Uiso   1.00
H30    H     0.34323   0.61251   0.10174   0.00000  Uiso   1.00
H31    H     0.93458   0.52545   0.02594   0.00000  Uiso   1.00
H32    H     0.09418   0.55936   0.11665   0.00000  Uiso   1.00
H33    H     0.98790   0.52306   0.89304   0.00000  Uiso   1.00
H34    H     0.73608   0.47837   0.06942   0.00000  Uiso   1.00
H35    H     0.24842   0.62149   0.21509   0.00000  Uiso   1.00
H36    H     0.02428   0.54494   0.74361   0.00000  Uiso   1.00
H37    H     0.49327   0.45069   0.11553   0.00000  Uiso   1.00
O38    O     0.27526   0.72812   0.26756   0.00000  Uiso   1.00
O39    O     0.98118   0.62770   0.64899   0.00000  Uiso   1.00
O40    O     0.28450   0.50404   0.13695   0.00000  Uiso   1.00
N41    N     0.11178   0.74057   0.19211   0.00000  Uiso   1.00
N42    N     0.90224   0.66901   0.75131   0.00000  Uiso   1.00
N43    N     0.40578   0.58089   0.09900   0.00000  Uiso   1.00
N44    N     0.19251   0.65349   0.19953   0.00000  Uiso   1.00
N45    N     0.98297   0.58193   0.75873   0.00000  Uiso   1.00
N46    N     0.48651   0.49381   0.10642   0.00000  Uiso   1.00
C47    C     0.70050   0.32885   0.51353   0.00000  Uiso   1.00
C48    C     0.59472   0.33100   0.56457   0.00000  Uiso   1.00
C49    C     0.55074   0.28430   0.60334   0.00000  Uiso   1.00
C50    C     0.45325   0.29520   0.64707   0.00000  Uiso   1.00
C51    C     0.29680   0.29008   0.72558   0.00000  Uiso   1.00
C52    C     0.65245   0.35072   0.44308   0.00000  Uiso   1.00
C53    C     0.65703   0.32060   0.37970   0.00000  Uiso   1.00
C54    C     0.60814   0.34811   0.32117   0.00000  Uiso   1.00
C55    C     0.54140   0.37361   0.21104   0.00000  Uiso   1.00
C56    C     0.78927   0.37500   0.53891   0.00000  Uiso   1.00
C57    C     0.90889   0.36530   0.55610   0.00000  Uiso   1.00
C58    C     0.97521   0.41326   0.57824   0.00000  Uiso   1.00
C59    C     0.12090   0.47646   0.61691   0.00000  Uiso   1.00
C60    C     0.60557   0.43125   0.52225   0.00000  Uiso   1.00
C61    C     0.54316   0.38662   0.56930   0.00000  Uiso   1.00
C62    C     0.44571   0.39759   0.61299   0.00000  Uiso   1.00
C63    C     0.40159   0.35092   0.65183   0.00000  Uiso   1.00
C64    C     0.60089   0.40633   0.44781   0.00000  Uiso   1.00
C65    C     0.55199   0.43389   0.38936   0.00000  Uiso   1.00
C66    C     0.55648   0.40383   0.32591   0.00000  Uiso   1.00
C67    C     0.73771   0.43062   0.54365   0.00000  Uiso   1.00
C68    C     0.80385   0.47860   0.56576   0.00000  Uiso   1.00
C69    C     0.92355   0.46898   0.58298   0.00000  Uiso   1.00
H70    H     0.74065   0.28554   0.50984   0.00000  Uiso   1.00
H71    H     0.59067   0.24126   0.59965   0.00000  Uiso   1.00
H72    H     0.69695   0.27756   0.37605   0.00000  Uiso   1.00
H73    H     0.94877   0.32226   0.55243   0.00000  Uiso   1.00
H74    H     0.40161   0.21669   0.70131   0.00000  Uiso   1.00
H75    H     0.62575   0.29323   0.22982   0.00000  Uiso   1.00
H76    H     0.15677   0.38749   0.60174   0.00000  Uiso   1.00
H77    H     0.56542   0.47455   0.52594   0.00000  Uiso   1.00
H78    H     0.40582   0.44064   0.61665   0.00000  Uiso   1.00
H79    H     0.51210   0.47694   0.39304   0.00000  Uiso   1.00
H80    H     0.76392   0.52163   0.56942   0.00000  Uiso   1.00
H81    H     0.25158   0.37851   0.71509   0.00000  Uiso   1.00
H82    H     0.47572   0.45506   0.24361   0.00000  Uiso   1.00
H83    H     0.00673   0.54931   0.61553   0.00000  Uiso   1.00
O84    O     0.22474   0.27188   0.76756   0.00000  Uiso   1.00
O85    O     0.51882   0.37230   0.14899   0.00000  Uiso   1.00
O86    O     0.21550   0.49596   0.63695   0.00000  Uiso   1.00
N87    N     0.38822   0.25943   0.69211   0.00000  Uiso   1.00
N88    N     0.59776   0.33099   0.25131   0.00000  Uiso   1.00
N89    N     0.09422   0.41911   0.59900   0.00000  Uiso   1.00
N90    N     0.30749   0.34651   0.69953   0.00000  Uiso   1.00
N91    N     0.51703   0.41807   0.25873   0.00000  Uiso   1.00
N92    N     0.01349   0.50619   0.60642   0.00000  Uiso   1.00
C93    C     0.20050   0.17115   0.48647   0.00000  Uiso   1.00
C94    C     0.09472   0.16900   0.43543   0.00000  Uiso   1.00
C95    C     0.05074   0.21570   0.39666   0.00000  Uiso   1.00
C96    C     0.95325   0.20480   0.35293   0.00000  Uiso   1.00
C97    C     0.79680   0.20992   0.27442   0.00000  Uiso   1.00
C98    C     0.15245   0.14928   0.55692   0.00000  Uiso   1.00
C99    C     0.15703   0.17940   0.62030   0.00000  Uiso   1.00
C100   C     0.10814   0.15189   0.67883   0.00000  Uiso   1.00
C101   C     0.04140   0.12639   0.78896   0.00000  Uiso   1.00
C102   C     0.28927   0.12500   0.46109   0.00000  Uiso   1.00
C103   C     0.40889   0.13470   0.44390   0.00000  Uiso   1.00
C104   C     0.47521   0.08674   0.42176   0.00000  Uiso   1.00
C105   C     0.62090   0.02354   0.38309   0.00000  Uiso   1.00
C106   C     0.10557   0.06875   0.47775   0.00000  Uiso   1.00
C107   C     0.04316   0.11338   0.43070   0.00000  Uiso   1.00
C108   C     0.94571   0.10241   0.38701   0.00000  Uiso   1.00
C109   C     0.90159   0.14908   0.34817   0.00000  Uiso   1.00
C110   C     0.10089   0.09367   0.55219   0.00000  Uiso   1.00
C111   C     0.05199   0.06611   0.61064   0.00000  Uiso   1.00
C112   C     0.05648   0.09617   0.67409   0.00000  Uiso   1.00
C113   C     0.23771   0.06938   0.45635   0.00000  Uiso   1.00
C114   C     0.30385   0.02140   0.43424   0.00000  Uiso   1.00
C115   C     0.42355   0.03102   0.41702   0.00000  Uiso   1.00
H116   H     0.24065   0.21446   0.49016   0.00000  Uiso   1.00
H117   H     0.09067   0.25874   0.40035   0.00000  Uiso   1.00
H118   H     0.19695   0.22244   0.62395   0.00000  Uiso   1.00
H119   H     0.44877   0.17774   0.44757   0.00000  Uiso   1.00
H120   H     0.90161   0.28331   0.29869   0.00000  Uiso   1.00
H121   H     0.12575   0.20677   0.77018   0.00000  Uiso   1.00
H122   H     0.65677   0.11251   0.39826   0.00000  Uiso   1.00
H123   H     0.06542   0.02545   0.47406   0.00000  Uiso   1.00
H124   H     0.90582   0.05936   0.38335   0.00000  Uiso   1.00
H125   H     0.01210   0.02306   0.60696   0.00000  Uiso   1.00
H126   H     0.26392   0.97837   0.43058   0.00000  Uiso   1.00
H127   H     0.75158   0.12149   0.28491   0.00000  Uiso   1.00
H128   H     0.97572   0.04494   0.75639   0.00000  Uiso   1.00
H129   H     0.50673   0.95069   0.38447   0.00000  Uiso   1.00
O130   O     0.72474   0.22812   0.23244   0.00000  Uiso   1.00
O131   O     0.01882   0.12770   0.85101   0.00000  Uiso   1.00
O132   O     0.71550   0.00404   0.36305   0.00000  Uiso   1.00
N133   N     0.88822   0.24057   0.30789   0.00000  Uiso   1.00
N134   N     0.09776   0.16901   0.74869   0.00000  Uiso   1.00
N135   N     0.59422   0.08089   0.40100   0.00000  Uiso   1.00
N136   N     0.80749   0.15349   0.30047   0.00000  Uiso   1.00
N137   N     0.01703   0.08193   0.74127   0.00000  Uiso   1.00
N138   N     0.51349   0.99381   0.39358   0.00000  Uiso   1.00
C139   C     0.29950   0.82885   0.98647   0.00000  Uiso   1.00
C140   C     0.40528   0.83100   0.93543   0.00000  Uiso   1.00
C141   C     0.44926   0.78430   0.89666   0.00000  Uiso   1.00
C142   C     0.54675   0.79520   0.85293   0.00000  Uiso   1.00
C143   C     0.70320   0.79008   0.77442   0.00000  Uiso   1.00
C144   C     0.34755   0.85072   0.05692   0.00000  Uiso   1.00
C145   C     0.34297   0.82060   0.12030   0.00000  Uiso   1.00
C146   C     0.39186   0.84811   0.17883   0.00000  Uiso   1.00
C147   C     0.45860   0.87361   0.28896   0.00000  Uiso   1.00
C148   C     0.21073   0.87500   0.96109   0.00000  Uiso   1.00
C149   C     0.09111   0.86530   0.94390   0.00000  Uiso   1.00
C150   C     0.02479   0.91326   0.92176   0.00000  Uiso   1.00
C151   C     0.87910   0.97646   0.88309   0.00000  Uiso   1.00
C152   C     0.39443   0.93125   0.97775   0.00000  Uiso   1.00
C153   C     0.45684   0.88662   0.93070   0.00000  Uiso   1.00
C154   C     0.55429   0.89759   0.88701   0.00000  Uiso   1.00
C155   C     0.59841   0.85092   0.84817   0.00000  Uiso   1.00
C156   C     0.39911   0.90633   0.05219   0.00000  Uiso   1.00
C157   C     0.44801   0.93389   0.11064   0.00000  Uiso   1.00
C158   C     0.44352   0.90383   0.17409   0.00000  Uiso   1.00
C159   C     0.26229   0.93062   0.95635   0.00000  Uiso   1.00
C160   C     0.19615   0.97860   0.93424   0.00000  Uiso   1.00
C161   C     0.07645   0.96898   0.91702   0.00000  Uiso   1.00
H162   H     0.25935   0.78554   0.99016   0.00000  Uiso   1.00
H163   H     0.40933   0.74126   0.90035   0.00000  Uiso   1.00
H164   H     0.30305   0.77756   0.12395   0.00000  Uiso   1.00
H165   H     0.05123   0.82226   0.94757   0.00000  Uiso   1.00
H166   H     0.59839   0.71669   0.79869   0.00000  Uiso   1.00
H167   H     0.37425   0.79323   0.27018   0.00000  Uiso   1.00
H168   H     0.84323   0.88749   0.89826   0.00000  Uiso   1.00
H169   H     0.43458   0.97455   0.97406   0.00000  Uiso   1.00
H170   H     0.59418   0.94064   0.88335   0.00000  Uiso   1.00
H171   H     0.48790   0.97694   0.10696   0.00000  Uiso   1.00
H172   H     0.23608   0.02163   0.93058   0.00000  Uiso   1.00
H173   H     0.74842   0.87851   0.78491   0.00000  Uiso   1.00
H174   H     0.52428   0.95506   0.25639   0.00000  Uiso   1.00
H175   H     0.99327   0.04931   0.88447   0.00000  Uiso   1.00
O176   O     0.77526   0.77188   0.73244   0.00000  Uiso   1.00
O177   O     0.48118   0.87230   0.35101   0.00000  Uiso   1.00
O178   O     0.78450   0.99596   0.86305   0.00000  Uiso   1.00
N179   N     0.61178   0.75943   0.80789   0.00000  Uiso   1.00
N180   N     0.40224   0.83099   0.24869   0.00000  Uiso   1.00
N181   N     0.90578   0.91911   0.90100   0.00000  Uiso   1.00
N182   N     0.69251   0.84651   0.80047   0.00000  Uiso   1.00
N183   N     0.48297   0.91807   0.24127   0.00000  Uiso   1.00
N184   N     0.98651   0.00619   0.89358   0.00000  Uiso   1.00
C185   C     0.20050   0.32885   0.98647   0.00000  Uiso   1.00
C186   C     0.09472   0.33100   0.93543   0.00000  Uiso   1.00
C187   C     0.05074   0.28430   0.89666   0.00000  Uiso   1.00
C188   C     0.95325   0.29520   0.85293   0.00000  Uiso   1.00
C189   C     0.79680   0.29008   0.77442   0.00000  Uiso   1.00
C190   C     0.15245   0.35072   0.05692   0.00000  Uiso   1.00
C191   C     0.15703   0.32060   0.12030   0.00000  Uiso   1.00
C192   C     0.10814   0.34811   0.17883   0.00000  Uiso   1.00
C193   C     0.04140   0.37361   0.28896   0.00000  Uiso   1.00
C194   C     0.28927   0.37500   0.96109   0.00000  Uiso   1.00
C195   C     0.40889   0.36530   0.94390   0.00000  Uiso   1.00
C196   C     0.47521   0.41326   0.92176   0.00000  Uiso   1.00
C197   C     0.62090   0.47646   0.88309   0.00000  Uiso   1.00
C198   C     0.10557   0.43125   0.97775   0.00000  Uiso   1.00
C199   C     0.04316   0.38662   0.93070   0.00000  Uiso   1.00
C200   C     0.94571   0.39759   0.88701   0.00000  Uiso   1.00
C201   C     0.90159   0.35092   0.84817   0.00000  Uiso   1.00
C202   C     0.10089   0.40633   0.05219   0.00000  Uiso   1.00
C203   C     0.05199   0.43389   0.11064   0.00000  Uiso   1.00
C204   C     0.05648   0.40383   0.17409   0.00000  Uiso   1.00
C205   C     0.23771   0.43062   0.95635   0.00000  Uiso   1.00
C206   C     0.30385   0.47860   0.93424   0.00000  Uiso   1.00
C207   C     0.42355   0.46898   0.91702   0.00000  Uiso   1.00
H208   H     0.24065   0.28554   0.99016   0.00000  Uiso   1.00
H209   H     0.09067   0.24126   0.90035   0.00000  Uiso   1.00
H210   H     0.19695   0.27756   0.12395   0.00000  Uiso   1.00
H211   H     0.44877   0.32226   0.94757   0.00000  Uiso   1.00
H212   H     0.90161   0.21669   0.79869   0.00000  Uiso   1.00
H213   H     0.12575   0.29323   0.27018   0.00000  Uiso   1.00
H214   H     0.65677   0.38749   0.89826   0.00000  Uiso   1.00
H215   H     0.06542   0.47455   0.97406   0.00000  Uiso   1.00
H216   H     0.90582   0.44064   0.88335   0.00000  Uiso   1.00
H217   H     0.01210   0.47694   0.10696   0.00000  Uiso   1.00
H218   H     0.26392   0.52163   0.93058   0.00000  Uiso   1.00
H219   H     0.75158   0.37851   0.78491   0.00000  Uiso   1.00
H220   H     0.97572   0.45506   0.25639   0.00000  Uiso   1.00
H221   H     0.50673   0.54931   0.88447   0.00000  Uiso   1.00
O222   O     0.72474   0.27188   0.73244   0.00000  Uiso   1.00
O223   O     0.01882   0.37230   0.35101   0.00000  Uiso   1.00
O224   O     0.71550   0.49596   0.86305   0.00000  Uiso   1.00
N225   N     0.88822   0.25943   0.80789   0.00000  Uiso   1.00
N226   N     0.09776   0.33099   0.24869   0.00000  Uiso   1.00
N227   N     0.59422   0.41911   0.90100   0.00000  Uiso   1.00
N228   N     0.80749   0.34651   0.80047   0.00000  Uiso   1.00
N229   N     0.01703   0.41807   0.24127   0.00000  Uiso   1.00
N230   N     0.51349   0.50619   0.89358   0.00000  Uiso   1.00
C231   C     0.29950   0.67115   0.48647   0.00000  Uiso   1.00
C232   C     0.40528   0.66900   0.43543   0.00000  Uiso   1.00
C233   C     0.44926   0.71570   0.39666   0.00000  Uiso   1.00
C234   C     0.54675   0.70480   0.35293   0.00000  Uiso   1.00
C235   C     0.70320   0.70992   0.27442   0.00000  Uiso   1.00
C236   C     0.34755   0.64928   0.55692   0.00000  Uiso   1.00
C237   C     0.34297   0.67940   0.62030   0.00000  Uiso   1.00
C238   C     0.39186   0.65189   0.67883   0.00000  Uiso   1.00
C239   C     0.45860   0.62639   0.78896   0.00000  Uiso   1.00
C240   C     0.21073   0.62500   0.46109   0.00000  Uiso   1.00
C241   C     0.09111   0.63470   0.44390   0.00000  Uiso   1.00
C242   C     0.02479   0.58674   0.42176   0.00000  Uiso   1.00
C243   C     0.87910   0.52354   0.38309   0.00000  Uiso   1.00
C244   C     0.39443   0.56875   0.47775   0.00000  Uiso   1.00
C245   C     0.45684   0.61338   0.43070   0.00000  Uiso   1.00
C246   C     0.55429   0.60241   0.38701   0.00000  Uiso   1.00
C247   C     0.59841   0.64908   0.34817   0.00000  Uiso   1.00
C248   C     0.39911   0.59367   0.55219   0.00000  Uiso   1.00
C249   C     0.44801   0.56611   0.61064   0.00000  Uiso   1.00
C250   C     0.44352   0.59617   0.67409   0.00000  Uiso   1.00
C251   C     0.26229   0.56938   0.45635   0.00000  Uiso   1.00
C252   C     0.19615   0.52140   0.43424   0.00000  Uiso   1.00
C253   C     0.07645   0.53102   0.41702   0.00000  Uiso   1.00
H254   H     0.25935   0.71446   0.49016   0.00000  Uiso   1.00
H255   H     0.40933   0.75874   0.40035   0.00000  Uiso   1.00
H256   H     0.30305   0.72244   0.62395   0.00000  Uiso   1.00
H257   H     0.05123   0.67774   0.44757   0.00000  Uiso   1.00
H258   H     0.59839   0.78331   0.29869   0.00000  Uiso   1.00
H259   H     0.37425   0.70677   0.77018   0.00000  Uiso   1.00
H260   H     0.84323   0.61251   0.39826   0.00000  Uiso   1.00
H261   H     0.43458   0.52545   0.47406   0.00000  Uiso   1.00
H262   H     0.59418   0.55936   0.38335   0.00000  Uiso   1.00
H263   H     0.48790   0.52306   0.60696   0.00000  Uiso   1.00
H264   H     0.23608   0.47837   0.43058   0.00000  Uiso   1.00
H265   H     0.74842   0.62149   0.28491   0.00000  Uiso   1.00
H266   H     0.52428   0.54494   0.75639   0.00000  Uiso   1.00
H267   H     0.99327   0.45069   0.38447   0.00000  Uiso   1.00
O268   O     0.77526   0.72812   0.23244   0.00000  Uiso   1.00
O269   O     0.48118   0.62770   0.85101   0.00000  Uiso   1.00
O270   O     0.78450   0.50404   0.36305   0.00000  Uiso   1.00
N271   N     0.61178   0.74057   0.30789   0.00000  Uiso   1.00
N272   N     0.40224   0.66901   0.74869   0.00000  Uiso   1.00
N273   N     0.90578   0.58089   0.40100   0.00000  Uiso   1.00
N274   N     0.69251   0.65349   0.30047   0.00000  Uiso   1.00
N275   N     0.48297   0.58193   0.74127   0.00000  Uiso   1.00
N276   N     0.98651   0.49381   0.39358   0.00000  Uiso   1.00
C277   C     0.79950   0.82885   0.51353   0.00000  Uiso   1.00
C278   C     0.90528   0.83100   0.56457   0.00000  Uiso   1.00
C279   C     0.94926   0.78430   0.60334   0.00000  Uiso   1.00
C280   C     0.04675   0.79520   0.64707   0.00000  Uiso   1.00
C281   C     0.20320   0.79008   0.72558   0.00000  Uiso   1.00
C282   C     0.84755   0.85072   0.44308   0.00000  Uiso   1.00
C283   C     0.84297   0.82060   0.37970   0.00000  Uiso   1.00
C284   C     0.89186   0.84811   0.32117   0.00000  Uiso   1.00
C285   C     0.95860   0.87361   0.21104   0.00000  Uiso   1.00
C286   C     0.71073   0.87500   0.53891   0.00000  Uiso   1.00
C287   C     0.59111   0.86530   0.55610   0.00000  Uiso   1.00
C288   C     0.52479   0.91326   0.57824   0.00000  Uiso   1.00
C289   C     0.37910   0.97646   0.61691   0.00000  Uiso   1.00
C290   C     0.89443   0.93125   0.52225   0.00000  Uiso   1.00
C291   C     0.95684   0.88662   0.56930   0.00000  Uiso   1.00
C292   C     0.05429   0.89759   0.61299   0.00000  Uiso   1.00
C293   C     0.09841   0.85092   0.65183   0.00000  Uiso   1.00
C294   C     0.89911   0.90633   0.44781   0.00000  Uiso   1.00
C295   C     0.94801   0.93389   0.38936   0.00000  Uiso   1.00
C296   C     0.94352   0.90383   0.32591   0.00000  Uiso   1.00
C297   C     0.76229   0.93062   0.54365   0.00000  Uiso   1.00
C298   C     0.69615   0.97860   0.56576   0.00000  Uiso   1.00
C299   C     0.57645   0.96898   0.58298   0.00000  Uiso   1.00
H300   H     0.75935   0.78554   0.50984   0.00000  Uiso   1.00
H301   H     0.90933   0.74126   0.59965   0.00000  Uiso   1.00
H302   H     0.80305   0.77756   0.37605   0.00000  Uiso   1.00
H303   H     0.55123   0.82226   0.55243   0.00000  Uiso   1.00
H304   H     0.09839   0.71669   0.70131   0.00000  Uiso   1.00
H305   H     0.87425   0.79323   0.22982   0.00000  Uiso   1.00
H306   H     0.34323   0.88749   0.60174   0.00000  Uiso   1.00
H307   H     0.93458   0.97455   0.52594   0.00000  Uiso   1.00
H308   H     0.09418   0.94064   0.61665   0.00000  Uiso   1.00
H309   H     0.98790   0.97694   0.39304   0.00000  Uiso   1.00
H310   H     0.73608   0.02163   0.56942   0.00000  Uiso   1.00
H311   H     0.24842   0.87851   0.71509   0.00000  Uiso   1.00
H312   H     0.02428   0.95506   0.24361   0.00000  Uiso   1.00
H313   H     0.49327   0.04931   0.61553   0.00000  Uiso   1.00
O314   O     0.27526   0.77188   0.76756   0.00000  Uiso   1.00
O315   O     0.98118   0.87230   0.14899   0.00000  Uiso   1.00
O316   O     0.28450   0.99596   0.63695   0.00000  Uiso   1.00
N317   N     0.11178   0.75943   0.69211   0.00000  Uiso   1.00
N318   N     0.90224   0.83099   0.25131   0.00000  Uiso   1.00
N319   N     0.40578   0.91911   0.59900   0.00000  Uiso   1.00
N320   N     0.19251   0.84651   0.69953   0.00000  Uiso   1.00
N321   N     0.98297   0.91807   0.25873   0.00000  Uiso   1.00
N322   N     0.48651   0.00619   0.60642   0.00000  Uiso   1.00
C323   C     0.70050   0.17115   0.01353   0.00000  Uiso   1.00
C324   C     0.59472   0.16900   0.06457   0.00000  Uiso   1.00
C325   C     0.55074   0.21570   0.10334   0.00000  Uiso   1.00
C326   C     0.45325   0.20480   0.14707   0.00000  Uiso   1.00
C327   C     0.29680   0.20992   0.22558   0.00000  Uiso   1.00
C328   C     0.65245   0.14928   0.94308   0.00000  Uiso   1.00
C329   C     0.65703   0.17940   0.87970   0.00000  Uiso   1.00
C330   C     0.60814   0.15189   0.82117   0.00000  Uiso   1.00
C331   C     0.54140   0.12639   0.71104   0.00000  Uiso   1.00
C332   C     0.78927   0.12500   0.03891   0.00000  Uiso   1.00
C333   C     0.90889   0.13470   0.05610   0.00000  Uiso   1.00
C334   C     0.97521   0.08674   0.07824   0.00000  Uiso   1.00
C335   C     0.12090   0.02354   0.11691   0.00000  Uiso   1.00
C336   C     0.60557   0.06875   0.02225   0.00000  Uiso   1.00
C337   C     0.54316   0.11338   0.06930   0.00000  Uiso   1.00
C338   C     0.44571   0.10241   0.11299   0.00000  Uiso   1.00
C339   C     0.40159   0.14908   0.15183   0.00000  Uiso   1.00
C340   C     0.60089   0.09367   0.94781   0.00000  Uiso   1.00
C341   C     0.55199   0.06611   0.88936   0.00000  Uiso   1.00
C342   C     0.55648   0.09617   0.82591   0.00000  Uiso   1.00
C343   C     0.73771   0.06938   0.04365   0.00000  Uiso   1.00
C344   C     0.80385   0.02140   0.06576   0.00000  Uiso   1.00
C345   C     0.92355   0.03102   0.08298   0.00000  Uiso   1.00
H346   H     0.74065   0.21446   0.00984   0.00000  Uiso   1.00
H347   H     0.59067   0.25874   0.09965   0.00000  Uiso   1.00
H348   H     0.69695   0.22244   0.87605   0.00000  Uiso   1.00
H349   H     0.94877   0.17774   0.05243   0.00000  Uiso   1.00
H350   H     0.40161   0.28331   0.20131   0.00000  Uiso   1.00
H351   H     0.62575   0.20677   0.72982   0.00000  Uiso   1.00
H352   H     0.15677   0.11251   0.10174   0.00000  Uiso   1.00
H353   H     0.56542   0.02545   0.02594   0.00000  Uiso   1.00
H354   H     0.40582   0.05936   0.11665   0.00000  Uiso   1.00
H355   H     0.51210   0.02306   0.89304   0.00000  Uiso   1.00
H356   H     0.76392   0.97837   0.06942   0.00000  Uiso   1.00
H357   H     0.25158   0.12149   0.21509   0.00000  Uiso   1.00
H358   H     0.47572   0.04494   0.74361   0.00000  Uiso   1.00
H359   H     0.00673   0.95069   0.11553   0.00000  Uiso   1.00
O360   O     0.22474   0.22812   0.26756   0.00000  Uiso   1.00
O361   O     0.51882   0.12770   0.64899   0.00000  Uiso   1.00
O362   O     0.21550   0.00404   0.13695   0.00000  Uiso   1.00
N363   N     0.38822   0.24057   0.19211   0.00000  Uiso   1.00
N364   N     0.59776   0.16901   0.75131   0.00000  Uiso   1.00
N365   N     0.09422   0.08089   0.09900   0.00000  Uiso   1.00
N366   N     0.30749   0.15349   0.19953   0.00000  Uiso   1.00
N367   N     0.51703   0.08193   0.75873   0.00000  Uiso   1.00
N368   N     0.01349   0.99381   0.10642   0.00000  Uiso   1.00
