data_job_00736
_audit_creation_date              2018-12-19
_audit_creation_method            'Materials Studio'
_symmetry_space_group_name_H-M    'P1'
_symmetry_Int_Tables_number       1
_symmetry_cell_setting            triclinic
loop_
_symmetry_equiv_pos_as_xyz
  x,y,z
_cell_length_a                    29.8236
_cell_length_b                    8.5236
_cell_length_c                    25.1607
_cell_angle_alpha                 90.0000
_cell_angle_beta                  126.6634
_cell_angle_gamma                 90.0000
loop_
_atom_site_label
_atom_site_type_symbol
_atom_site_fract_x
_atom_site_fract_y
_atom_site_fract_z
_atom_site_U_iso_or_equiv
_atom_site_adp_type
_atom_site_occupancy
C1     C     0.36806   0.71669   0.18469   0.00000  Uiso   1.00
C2     C     0.30573   0.73912   0.15071   0.00000  Uiso   1.00
C3     C     0.27334   0.86235   0.10904   0.00000  Uiso   1.00
C4     C     0.21711   0.86169   0.08290   0.00000  Uiso   1.00
C5     C     0.12382   0.91477   0.02788   0.00000  Uiso   1.00
C6     C     0.39536   0.70496   0.25863   0.00000  Uiso   1.00
C7     C     0.43834   0.79945   0.30770   0.00000  Uiso   1.00
C8     C     0.45756   0.77002   0.37241   0.00000  Uiso   1.00
C9     C     0.50345   0.76999   0.48495   0.00000  Uiso   1.00
C10    C     0.37413   0.55501   0.16369   0.00000  Uiso   1.00
C11    C     0.39928   0.52341   0.13294   0.00000  Uiso   1.00
C12    C     0.40065   0.36772   0.11773   0.00000  Uiso   1.00
C13    C     0.41359   0.13488   0.08286   0.00000  Uiso   1.00
C14    C     0.32579   0.49639   0.21235   0.00000  Uiso   1.00
C15    C     0.28277   0.61947   0.16574   0.00000  Uiso   1.00
C16    C     0.22657   0.61862   0.13965   0.00000  Uiso   1.00
C17    C     0.19411   0.74182   0.09795   0.00000  Uiso   1.00
C18    C     0.37240   0.58531   0.27366   0.00000  Uiso   1.00
C19    C     0.39157   0.55572   0.33831   0.00000  Uiso   1.00
C20    C     0.43456   0.65015   0.38747   0.00000  Uiso   1.00
C21    C     0.35117   0.43535   0.17871   0.00000  Uiso   1.00
C22    C     0.35251   0.27968   0.16355   0.00000  Uiso   1.00
C23    C     0.37765   0.24785   0.13279   0.00000  Uiso   1.00
H24    H     0.38594   0.80984   0.17299   0.00000  Uiso   1.00
H25    H     0.29113   0.95494   0.09743   0.00000  Uiso   1.00
H26    H     0.45610   0.89203   0.29606   0.00000  Uiso   1.00
H27    H     0.41704   0.61604   0.12132   0.00000  Uiso   1.00
H28    H     0.17589   0.06306   0.02030   0.00000  Uiso   1.00
H29    H     0.52375   0.93039   0.43913   0.00000  Uiso   1.00
H30    H     0.44141   0.34840   0.07066   0.00000  Uiso   1.00
H31    H     0.30792   0.40323   0.22406   0.00000  Uiso   1.00
H32    H     0.20882   0.52600   0.15129   0.00000  Uiso   1.00
H33    H     0.37379   0.46311   0.34992   0.00000  Uiso   1.00
H34    H     0.33474   0.18711   0.17519   0.00000  Uiso   1.00
H35    H     0.10908   0.71493   0.06402   0.00000  Uiso   1.00
H36    H     0.45696   0.58226   0.48285   0.00000  Uiso   1.00
H37    H     0.37460   0.00027   0.11438   0.00000  Uiso   1.00
O38    O     0.07871   0.97712   0.99339   0.00000  Uiso   1.00
O39    O     0.53510   0.80305   0.54288   0.00000  Uiso   1.00
O40    O     0.42706   0.03950   0.05946   0.00000  Uiso   1.00
N41    N     0.17376   0.96426   0.04056   0.00000  Uiso   1.00
N42    N     0.49899   0.84024   0.43214   0.00000  Uiso   1.00
N43    N     0.42202   0.29612   0.08768   0.00000  Uiso   1.00
N44    N     0.13782   0.77693   0.06409   0.00000  Uiso   1.00
N45    N     0.46305   0.65291   0.45567   0.00000  Uiso   1.00
N46    N     0.38607   0.10880   0.11120   0.00000  Uiso   1.00
C47    C     0.86806   0.21669   0.18469   0.00000  Uiso   1.00
C48    C     0.80573   0.23912   0.15071   0.00000  Uiso   1.00
C49    C     0.77334   0.36235   0.10904   0.00000  Uiso   1.00
C50    C     0.71711   0.36169   0.08290   0.00000  Uiso   1.00
C51    C     0.62382   0.41477   0.02788   0.00000  Uiso   1.00
C52    C     0.89536   0.20496   0.25863   0.00000  Uiso   1.00
C53    C     0.93834   0.29945   0.30770   0.00000  Uiso   1.00
C54    C     0.95756   0.27002   0.37241   0.00000  Uiso   1.00
C55    C     0.00345   0.26999   0.48495   0.00000  Uiso   1.00
C56    C     0.87413   0.05501   0.16369   0.00000  Uiso   1.00
C57    C     0.89928   0.02341   0.13294   0.00000  Uiso   1.00
C58    C     0.90065   0.86772   0.11773   0.00000  Uiso   1.00
C59    C     0.91359   0.63488   0.08286   0.00000  Uiso   1.00
C60    C     0.82579   0.99639   0.21235   0.00000  Uiso   1.00
C61    C     0.78277   0.11947   0.16574   0.00000  Uiso   1.00
C62    C     0.72657   0.11862   0.13965   0.00000  Uiso   1.00
C63    C     0.69411   0.24182   0.09795   0.00000  Uiso   1.00
C64    C     0.87240   0.08531   0.27366   0.00000  Uiso   1.00
C65    C     0.89157   0.05572   0.33831   0.00000  Uiso   1.00
C66    C     0.93456   0.15015   0.38747   0.00000  Uiso   1.00
C67    C     0.85117   0.93535   0.17871   0.00000  Uiso   1.00
C68    C     0.85251   0.77968   0.16355   0.00000  Uiso   1.00
C69    C     0.87765   0.74785   0.13279   0.00000  Uiso   1.00
H70    H     0.88594   0.30984   0.17299   0.00000  Uiso   1.00
H71    H     0.79113   0.45494   0.09743   0.00000  Uiso   1.00
H72    H     0.95610   0.39203   0.29606   0.00000  Uiso   1.00
H73    H     0.91704   0.11604   0.12132   0.00000  Uiso   1.00
H74    H     0.67589   0.56306   0.02030   0.00000  Uiso   1.00
H75    H     0.02375   0.43039   0.43913   0.00000  Uiso   1.00
H76    H     0.94141   0.84840   0.07066   0.00000  Uiso   1.00
H77    H     0.80792   0.90323   0.22406   0.00000  Uiso   1.00
H78    H     0.70882   0.02600   0.15129   0.00000  Uiso   1.00
H79    H     0.87379   0.96311   0.34992   0.00000  Uiso   1.00
H80    H     0.83474   0.68711   0.17519   0.00000  Uiso   1.00
H81    H     0.60908   0.21493   0.06402   0.00000  Uiso   1.00
H82    H     0.95696   0.08226   0.48285   0.00000  Uiso   1.00
H83    H     0.87460   0.50027   0.11438   0.00000  Uiso   1.00
O84    O     0.57871   0.47712   0.99339   0.00000  Uiso   1.00
O85    O     0.03510   0.30305   0.54288   0.00000  Uiso   1.00
O86    O     0.92706   0.53950   0.05946   0.00000  Uiso   1.00
N87    N     0.67376   0.46426   0.04056   0.00000  Uiso   1.00
N88    N     0.99899   0.34024   0.43214   0.00000  Uiso   1.00
N89    N     0.92202   0.79612   0.08768   0.00000  Uiso   1.00
N90    N     0.63782   0.27693   0.06409   0.00000  Uiso   1.00
N91    N     0.96305   0.15291   0.45567   0.00000  Uiso   1.00
N92    N     0.88607   0.60880   0.11120   0.00000  Uiso   1.00
C93    C     0.63194   0.71669   0.31531   0.00000  Uiso   1.00
C94    C     0.69427   0.73912   0.34929   0.00000  Uiso   1.00
C95    C     0.72666   0.86235   0.39096   0.00000  Uiso   1.00
C96    C     0.78289   0.86169   0.41710   0.00000  Uiso   1.00
C97    C     0.87618   0.91477   0.47212   0.00000  Uiso   1.00
C98    C     0.60464   0.70496   0.24137   0.00000  Uiso   1.00
C99    C     0.56166   0.79945   0.19230   0.00000  Uiso   1.00
C100   C     0.54244   0.77002   0.12759   0.00000  Uiso   1.00
C101   C     0.49655   0.76999   0.01505   0.00000  Uiso   1.00
C102   C     0.62587   0.55501   0.33631   0.00000  Uiso   1.00
C103   C     0.60072   0.52341   0.36706   0.00000  Uiso   1.00
C104   C     0.59935   0.36772   0.38227   0.00000  Uiso   1.00
C105   C     0.58641   0.13488   0.41714   0.00000  Uiso   1.00
C106   C     0.67421   0.49639   0.28765   0.00000  Uiso   1.00
C107   C     0.71723   0.61947   0.33426   0.00000  Uiso   1.00
C108   C     0.77343   0.61862   0.36035   0.00000  Uiso   1.00
C109   C     0.80589   0.74182   0.40205   0.00000  Uiso   1.00
C110   C     0.62760   0.58531   0.22634   0.00000  Uiso   1.00
C111   C     0.60843   0.55572   0.16169   0.00000  Uiso   1.00
C112   C     0.56544   0.65015   0.11253   0.00000  Uiso   1.00
C113   C     0.64883   0.43535   0.32129   0.00000  Uiso   1.00
C114   C     0.64749   0.27968   0.33645   0.00000  Uiso   1.00
C115   C     0.62235   0.24785   0.36721   0.00000  Uiso   1.00
H116   H     0.61406   0.80984   0.32701   0.00000  Uiso   1.00
H117   H     0.70887   0.95494   0.40257   0.00000  Uiso   1.00
H118   H     0.54390   0.89203   0.20394   0.00000  Uiso   1.00
H119   H     0.58296   0.61604   0.37868   0.00000  Uiso   1.00
H120   H     0.82411   0.06306   0.47970   0.00000  Uiso   1.00
H121   H     0.47625   0.93039   0.06087   0.00000  Uiso   1.00
H122   H     0.55859   0.34840   0.42934   0.00000  Uiso   1.00
H123   H     0.69208   0.40323   0.27594   0.00000  Uiso   1.00
H124   H     0.79118   0.52600   0.34871   0.00000  Uiso   1.00
H125   H     0.62621   0.46311   0.15008   0.00000  Uiso   1.00
H126   H     0.66526   0.18711   0.32481   0.00000  Uiso   1.00
H127   H     0.89092   0.71493   0.43598   0.00000  Uiso   1.00
H128   H     0.54304   0.58226   0.01715   0.00000  Uiso   1.00
H129   H     0.62540   0.00027   0.38562   0.00000  Uiso   1.00
O130   O     0.92129   0.97712   0.50661   0.00000  Uiso   1.00
O131   O     0.46490   0.80305   0.95712   0.00000  Uiso   1.00
O132   O     0.57294   0.03950   0.44054   0.00000  Uiso   1.00
N133   N     0.82624   0.96426   0.45944   0.00000  Uiso   1.00
N134   N     0.50101   0.84024   0.06786   0.00000  Uiso   1.00
N135   N     0.57798   0.29612   0.41232   0.00000  Uiso   1.00
N136   N     0.86218   0.77693   0.43591   0.00000  Uiso   1.00
N137   N     0.53695   0.65291   0.04433   0.00000  Uiso   1.00
N138   N     0.61393   0.10880   0.38880   0.00000  Uiso   1.00
C139   C     0.13194   0.21669   0.31531   0.00000  Uiso   1.00
C140   C     0.19427   0.23912   0.34929   0.00000  Uiso   1.00
C141   C     0.22666   0.36235   0.39096   0.00000  Uiso   1.00
C142   C     0.28289   0.36169   0.41710   0.00000  Uiso   1.00
C143   C     0.37618   0.41477   0.47212   0.00000  Uiso   1.00
C144   C     0.10464   0.20496   0.24137   0.00000  Uiso   1.00
C145   C     0.06166   0.29945   0.19230   0.00000  Uiso   1.00
C146   C     0.04244   0.27002   0.12759   0.00000  Uiso   1.00
C147   C     0.99655   0.26999   0.01505   0.00000  Uiso   1.00
C148   C     0.12587   0.05501   0.33631   0.00000  Uiso   1.00
C149   C     0.10072   0.02341   0.36706   0.00000  Uiso   1.00
C150   C     0.09935   0.86772   0.38227   0.00000  Uiso   1.00
C151   C     0.08641   0.63488   0.41714   0.00000  Uiso   1.00
C152   C     0.17421   0.99639   0.28765   0.00000  Uiso   1.00
C153   C     0.21723   0.11947   0.33426   0.00000  Uiso   1.00
C154   C     0.27343   0.11862   0.36035   0.00000  Uiso   1.00
C155   C     0.30589   0.24182   0.40205   0.00000  Uiso   1.00
C156   C     0.12760   0.08531   0.22634   0.00000  Uiso   1.00
C157   C     0.10843   0.05572   0.16169   0.00000  Uiso   1.00
C158   C     0.06544   0.15015   0.11253   0.00000  Uiso   1.00
C159   C     0.14883   0.93535   0.32129   0.00000  Uiso   1.00
C160   C     0.14749   0.77968   0.33645   0.00000  Uiso   1.00
C161   C     0.12235   0.74785   0.36721   0.00000  Uiso   1.00
H162   H     0.11406   0.30984   0.32701   0.00000  Uiso   1.00
H163   H     0.20887   0.45494   0.40257   0.00000  Uiso   1.00
H164   H     0.04390   0.39203   0.20394   0.00000  Uiso   1.00
H165   H     0.08296   0.11604   0.37868   0.00000  Uiso   1.00
H166   H     0.32411   0.56306   0.47970   0.00000  Uiso   1.00
H167   H     0.97625   0.43039   0.06087   0.00000  Uiso   1.00
H168   H     0.05859   0.84840   0.42934   0.00000  Uiso   1.00
H169   H     0.19208   0.90323   0.27594   0.00000  Uiso   1.00
H170   H     0.29118   0.02600   0.34871   0.00000  Uiso   1.00
H171   H     0.12621   0.96311   0.15008   0.00000  Uiso   1.00
H172   H     0.16526   0.68711   0.32481   0.00000  Uiso   1.00
H173   H     0.39092   0.21493   0.43598   0.00000  Uiso   1.00
H174   H     0.04304   0.08226   0.01715   0.00000  Uiso   1.00
H175   H     0.12540   0.50027   0.38562   0.00000  Uiso   1.00
O176   O     0.42129   0.47712   0.50661   0.00000  Uiso   1.00
O177   O     0.96490   0.30305   0.95712   0.00000  Uiso   1.00
O178   O     0.07294   0.53950   0.44054   0.00000  Uiso   1.00
N179   N     0.32624   0.46426   0.45944   0.00000  Uiso   1.00
N180   N     0.00101   0.34024   0.06786   0.00000  Uiso   1.00
N181   N     0.07798   0.79612   0.41232   0.00000  Uiso   1.00
N182   N     0.36218   0.27693   0.43591   0.00000  Uiso   1.00
N183   N     0.03695   0.15291   0.04433   0.00000  Uiso   1.00
N184   N     0.11393   0.60880   0.38880   0.00000  Uiso   1.00
C185   C     0.63194   0.28331   0.81531   0.00000  Uiso   1.00
C186   C     0.69427   0.26088   0.84929   0.00000  Uiso   1.00
C187   C     0.72666   0.13765   0.89096   0.00000  Uiso   1.00
C188   C     0.78289   0.13831   0.91710   0.00000  Uiso   1.00
C189   C     0.87618   0.08523   0.97212   0.00000  Uiso   1.00
C190   C     0.60464   0.29504   0.74137   0.00000  Uiso   1.00
C191   C     0.56166   0.20055   0.69230   0.00000  Uiso   1.00
C192   C     0.54244   0.22998   0.62759   0.00000  Uiso   1.00
C193   C     0.49655   0.23001   0.51505   0.00000  Uiso   1.00
C194   C     0.62587   0.44499   0.83631   0.00000  Uiso   1.00
C195   C     0.60072   0.47659   0.86706   0.00000  Uiso   1.00
C196   C     0.59935   0.63228   0.88227   0.00000  Uiso   1.00
C197   C     0.58641   0.86512   0.91714   0.00000  Uiso   1.00
C198   C     0.67421   0.50361   0.78765   0.00000  Uiso   1.00
C199   C     0.71723   0.38053   0.83426   0.00000  Uiso   1.00
C200   C     0.77343   0.38138   0.86035   0.00000  Uiso   1.00
C201   C     0.80589   0.25818   0.90205   0.00000  Uiso   1.00
C202   C     0.62760   0.41469   0.72634   0.00000  Uiso   1.00
C203   C     0.60843   0.44428   0.66169   0.00000  Uiso   1.00
C204   C     0.56544   0.34985   0.61253   0.00000  Uiso   1.00
C205   C     0.64883   0.56465   0.82129   0.00000  Uiso   1.00
C206   C     0.64749   0.72032   0.83645   0.00000  Uiso   1.00
C207   C     0.62235   0.75215   0.86721   0.00000  Uiso   1.00
H208   H     0.61406   0.19016   0.82701   0.00000  Uiso   1.00
H209   H     0.70887   0.04506   0.90257   0.00000  Uiso   1.00
H210   H     0.54390   0.10797   0.70394   0.00000  Uiso   1.00
H211   H     0.58296   0.38396   0.87868   0.00000  Uiso   1.00
H212   H     0.82411   0.93694   0.97970   0.00000  Uiso   1.00
H213   H     0.47625   0.06961   0.56087   0.00000  Uiso   1.00
H214   H     0.55859   0.65160   0.92934   0.00000  Uiso   1.00
H215   H     0.69208   0.59677   0.77594   0.00000  Uiso   1.00
H216   H     0.79118   0.47400   0.84871   0.00000  Uiso   1.00
H217   H     0.62621   0.53689   0.65008   0.00000  Uiso   1.00
H218   H     0.66526   0.81289   0.82481   0.00000  Uiso   1.00
H219   H     0.89092   0.28507   0.93598   0.00000  Uiso   1.00
H220   H     0.54304   0.41774   0.51715   0.00000  Uiso   1.00
H221   H     0.62540   0.99973   0.88562   0.00000  Uiso   1.00
O222   O     0.92129   0.02288   0.00661   0.00000  Uiso   1.00
O223   O     0.46490   0.19695   0.45712   0.00000  Uiso   1.00
O224   O     0.57294   0.96050   0.94054   0.00000  Uiso   1.00
N225   N     0.82624   0.03574   0.95944   0.00000  Uiso   1.00
N226   N     0.50101   0.15976   0.56786   0.00000  Uiso   1.00
N227   N     0.57798   0.70388   0.91232   0.00000  Uiso   1.00
N228   N     0.86218   0.22307   0.93591   0.00000  Uiso   1.00
N229   N     0.53695   0.34709   0.54433   0.00000  Uiso   1.00
N230   N     0.61393   0.89120   0.88880   0.00000  Uiso   1.00
C231   C     0.13194   0.78331   0.81531   0.00000  Uiso   1.00
C232   C     0.19427   0.76088   0.84929   0.00000  Uiso   1.00
C233   C     0.22666   0.63765   0.89096   0.00000  Uiso   1.00
C234   C     0.28289   0.63831   0.91710   0.00000  Uiso   1.00
C235   C     0.37618   0.58523   0.97212   0.00000  Uiso   1.00
C236   C     0.10464   0.79504   0.74137   0.00000  Uiso   1.00
C237   C     0.06166   0.70055   0.69230   0.00000  Uiso   1.00
C238   C     0.04244   0.72998   0.62759   0.00000  Uiso   1.00
C239   C     0.99655   0.73001   0.51505   0.00000  Uiso   1.00
C240   C     0.12587   0.94499   0.83631   0.00000  Uiso   1.00
C241   C     0.10072   0.97659   0.86706   0.00000  Uiso   1.00
C242   C     0.09935   0.13228   0.88227   0.00000  Uiso   1.00
C243   C     0.08641   0.36512   0.91714   0.00000  Uiso   1.00
C244   C     0.17421   0.00361   0.78765   0.00000  Uiso   1.00
C245   C     0.21723   0.88053   0.83426   0.00000  Uiso   1.00
C246   C     0.27343   0.88138   0.86035   0.00000  Uiso   1.00
C247   C     0.30589   0.75818   0.90205   0.00000  Uiso   1.00
C248   C     0.12760   0.91469   0.72634   0.00000  Uiso   1.00
C249   C     0.10843   0.94428   0.66169   0.00000  Uiso   1.00
C250   C     0.06544   0.84985   0.61253   0.00000  Uiso   1.00
C251   C     0.14883   0.06465   0.82129   0.00000  Uiso   1.00
C252   C     0.14749   0.22032   0.83645   0.00000  Uiso   1.00
C253   C     0.12235   0.25215   0.86721   0.00000  Uiso   1.00
H254   H     0.11406   0.69016   0.82701   0.00000  Uiso   1.00
H255   H     0.20887   0.54506   0.90257   0.00000  Uiso   1.00
H256   H     0.04390   0.60797   0.70394   0.00000  Uiso   1.00
H257   H     0.08296   0.88396   0.87868   0.00000  Uiso   1.00
H258   H     0.32411   0.43694   0.97970   0.00000  Uiso   1.00
H259   H     0.97625   0.56961   0.56087   0.00000  Uiso   1.00
H260   H     0.05859   0.15160   0.92934   0.00000  Uiso   1.00
H261   H     0.19208   0.09677   0.77594   0.00000  Uiso   1.00
H262   H     0.29118   0.97400   0.84871   0.00000  Uiso   1.00
H263   H     0.12621   0.03689   0.65008   0.00000  Uiso   1.00
H264   H     0.16526   0.31289   0.82481   0.00000  Uiso   1.00
H265   H     0.39092   0.78507   0.93598   0.00000  Uiso   1.00
H266   H     0.04304   0.91774   0.51715   0.00000  Uiso   1.00
H267   H     0.12540   0.49973   0.88562   0.00000  Uiso   1.00
O268   O     0.42129   0.52288   0.00661   0.00000  Uiso   1.00
O269   O     0.96490   0.69695   0.45712   0.00000  Uiso   1.00
O270   O     0.07294   0.46050   0.94054   0.00000  Uiso   1.00
N271   N     0.32624   0.53574   0.95944   0.00000  Uiso   1.00
N272   N     0.00101   0.65976   0.56786   0.00000  Uiso   1.00
N273   N     0.07798   0.20388   0.91232   0.00000  Uiso   1.00
N274   N     0.36218   0.72307   0.93591   0.00000  Uiso   1.00
N275   N     0.03695   0.84709   0.54433   0.00000  Uiso   1.00
N276   N     0.11393   0.39120   0.88880   0.00000  Uiso   1.00
C277   C     0.36806   0.28331   0.68469   0.00000  Uiso   1.00
C278   C     0.30573   0.26088   0.65071   0.00000  Uiso   1.00
C279   C     0.27334   0.13765   0.60904   0.00000  Uiso   1.00
C280   C     0.21711   0.13831   0.58290   0.00000  Uiso   1.00
C281   C     0.12382   0.08523   0.52788   0.00000  Uiso   1.00
C282   C     0.39536   0.29504   0.75863   0.00000  Uiso   1.00
C283   C     0.43834   0.20055   0.80770   0.00000  Uiso   1.00
C284   C     0.45756   0.22998   0.87241   0.00000  Uiso   1.00
C285   C     0.50345   0.23001   0.98495   0.00000  Uiso   1.00
C286   C     0.37413   0.44499   0.66369   0.00000  Uiso   1.00
C287   C     0.39928   0.47659   0.63294   0.00000  Uiso   1.00
C288   C     0.40065   0.63228   0.61773   0.00000  Uiso   1.00
C289   C     0.41359   0.86512   0.58286   0.00000  Uiso   1.00
C290   C     0.32579   0.50361   0.71235   0.00000  Uiso   1.00
C291   C     0.28277   0.38053   0.66574   0.00000  Uiso   1.00
C292   C     0.22657   0.38138   0.63965   0.00000  Uiso   1.00
C293   C     0.19411   0.25818   0.59795   0.00000  Uiso   1.00
C294   C     0.37240   0.41469   0.77366   0.00000  Uiso   1.00
C295   C     0.39157   0.44428   0.83831   0.00000  Uiso   1.00
C296   C     0.43456   0.34985   0.88747   0.00000  Uiso   1.00
C297   C     0.35117   0.56465   0.67871   0.00000  Uiso   1.00
C298   C     0.35251   0.72032   0.66355   0.00000  Uiso   1.00
C299   C     0.37765   0.75215   0.63279   0.00000  Uiso   1.00
H300   H     0.38594   0.19016   0.67299   0.00000  Uiso   1.00
H301   H     0.29113   0.04506   0.59743   0.00000  Uiso   1.00
H302   H     0.45610   0.10797   0.79606   0.00000  Uiso   1.00
H303   H     0.41704   0.38396   0.62132   0.00000  Uiso   1.00
H304   H     0.17589   0.93694   0.52030   0.00000  Uiso   1.00
H305   H     0.52375   0.06961   0.93913   0.00000  Uiso   1.00
H306   H     0.44141   0.65160   0.57066   0.00000  Uiso   1.00
H307   H     0.30792   0.59677   0.72406   0.00000  Uiso   1.00
H308   H     0.20882   0.47400   0.65129   0.00000  Uiso   1.00
H309   H     0.37379   0.53689   0.84992   0.00000  Uiso   1.00
H310   H     0.33474   0.81289   0.67519   0.00000  Uiso   1.00
H311   H     0.10908   0.28507   0.56402   0.00000  Uiso   1.00
H312   H     0.45696   0.41774   0.98285   0.00000  Uiso   1.00
H313   H     0.37460   0.99973   0.61438   0.00000  Uiso   1.00
O314   O     0.07871   0.02288   0.49339   0.00000  Uiso   1.00
O315   O     0.53510   0.19695   0.04288   0.00000  Uiso   1.00
O316   O     0.42706   0.96050   0.55946   0.00000  Uiso   1.00
N317   N     0.17376   0.03574   0.54056   0.00000  Uiso   1.00
N318   N     0.49899   0.15976   0.93214   0.00000  Uiso   1.00
N319   N     0.42202   0.70388   0.58768   0.00000  Uiso   1.00
N320   N     0.13782   0.22307   0.56409   0.00000  Uiso   1.00
N321   N     0.46305   0.34709   0.95567   0.00000  Uiso   1.00
N322   N     0.38607   0.89120   0.61120   0.00000  Uiso   1.00
C323   C     0.86806   0.78331   0.68469   0.00000  Uiso   1.00
C324   C     0.80573   0.76088   0.65071   0.00000  Uiso   1.00
C325   C     0.77334   0.63765   0.60904   0.00000  Uiso   1.00
C326   C     0.71711   0.63831   0.58290   0.00000  Uiso   1.00
C327   C     0.62382   0.58523   0.52788   0.00000  Uiso   1.00
C328   C     0.89536   0.79504   0.75863   0.00000  Uiso   1.00
C329   C     0.93834   0.70055   0.80770   0.00000  Uiso   1.00
C330   C     0.95756   0.72998   0.87241   0.00000  Uiso   1.00
C331   C     0.00345   0.73001   0.98495   0.00000  Uiso   1.00
C332   C     0.87413   0.94499   0.66369   0.00000  Uiso   1.00
C333   C     0.89928   0.97659   0.63294   0.00000  Uiso   1.00
C334   C     0.90065   0.13228   0.61773   0.00000  Uiso   1.00
C335   C     0.91359   0.36512   0.58286   0.00000  Uiso   1.00
C336   C     0.82579   0.00361   0.71235   0.00000  Uiso   1.00
C337   C     0.78277   0.88053   0.66574   0.00000  Uiso   1.00
C338   C     0.72657   0.88138   0.63965   0.00000  Uiso   1.00
C339   C     0.69411   0.75818   0.59795   0.00000  Uiso   1.00
C340   C     0.87240   0.91469   0.77366   0.00000  Uiso   1.00
C341   C     0.89157   0.94428   0.83831   0.00000  Uiso   1.00
C342   C     0.93456   0.84985   0.88747   0.00000  Uiso   1.00
C343   C     0.85117   0.06465   0.67871   0.00000  Uiso   1.00
C344   C     0.85251   0.22032   0.66355   0.00000  Uiso   1.00
C345   C     0.87765   0.25215   0.63279   0.00000  Uiso   1.00
H346   H     0.88594   0.69016   0.67299   0.00000  Uiso   1.00
H347   H     0.79113   0.54506   0.59743   0.00000  Uiso   1.00
H348   H     0.95610   0.60797   0.79606   0.00000  Uiso   1.00
H349   H     0.91704   0.88396   0.62132   0.00000  Uiso   1.00
H350   H     0.67589   0.43694   0.52030   0.00000  Uiso   1.00
H351   H     0.02375   0.56961   0.93913   0.00000  Uiso   1.00
H352   H     0.94141   0.15160   0.57066   0.00000  Uiso   1.00
H353   H     0.80792   0.09677   0.72406   0.00000  Uiso   1.00
H354   H     0.70882   0.97400   0.65129   0.00000  Uiso   1.00
H355   H     0.87379   0.03689   0.84992   0.00000  Uiso   1.00
H356   H     0.83474   0.31289   0.67519   0.00000  Uiso   1.00
H357   H     0.60908   0.78507   0.56402   0.00000  Uiso   1.00
H358   H     0.95696   0.91774   0.98285   0.00000  Uiso   1.00
H359   H     0.87460   0.49973   0.61438   0.00000  Uiso   1.00
O360   O     0.57871   0.52288   0.49339   0.00000  Uiso   1.00
O361   O     0.03510   0.69695   0.04288   0.00000  Uiso   1.00
O362   O     0.92706   0.46050   0.55946   0.00000  Uiso   1.00
N363   N     0.67376   0.53574   0.54056   0.00000  Uiso   1.00
N364   N     0.99899   0.65976   0.93214   0.00000  Uiso   1.00
N365   N     0.92202   0.20388   0.58768   0.00000  Uiso   1.00
N366   N     0.63782   0.72307   0.56409   0.00000  Uiso   1.00
N367   N     0.96305   0.84709   0.95567   0.00000  Uiso   1.00
N368   N     0.88607   0.39120   0.61120   0.00000  Uiso   1.00
