data_job_02487
_audit_creation_date              2018-12-19
_audit_creation_method            'Materials Studio'
_symmetry_space_group_name_H-M    'P1'
_symmetry_Int_Tables_number       1
_symmetry_cell_setting            triclinic
loop_
_symmetry_equiv_pos_as_xyz
  x,y,z
_cell_length_a                    10.4706
_cell_length_b                    32.4614
_cell_length_c                    9.5075
_cell_angle_alpha                 90.0000
_cell_angle_beta                  77.7092
_cell_angle_gamma                 90.0000
loop_
_atom_site_label
_atom_site_type_symbol
_atom_site_fract_x
_atom_site_fract_y
_atom_site_fract_z
_atom_site_U_iso_or_equiv
_atom_site_adp_type
_atom_site_occupancy
C1     C     0.73392   0.33189   0.11163   0.00000  Uiso   1.00
C2     C     0.86981   0.31610   0.11770   0.00000  Uiso   1.00
C3     C     0.89697   0.28383   0.20249   0.00000  Uiso   1.00
C4     C     0.02769   0.27409   0.19269   0.00000  Uiso   1.00
C5     C     0.22349   0.24627   0.21607   0.00000  Uiso   1.00
C6     C     0.73360   0.37766   0.14789   0.00000  Uiso   1.00
C7     C     0.64622   0.39715   0.25805   0.00000  Uiso   1.00
C8     C     0.66228   0.43924   0.27364   0.00000  Uiso   1.00
C9     C     0.64655   0.50699   0.34382   0.00000  Uiso   1.00
C10    C     0.72436   0.32941   0.95404   0.00000  Uiso   1.00
C11    C     0.62921   0.30834   0.90120   0.00000  Uiso   1.00
C12    C     0.63747   0.30981   0.75359   0.00000  Uiso   1.00
C13    C     0.60741   0.30265   0.52279   0.00000  Uiso   1.00
C14    C     0.91778   0.37200   0.94342   0.00000  Uiso   1.00
C15    C     0.96967   0.33788   0.02634   0.00000  Uiso   1.00
C16    C     0.10038   0.32820   0.01639   0.00000  Uiso   1.00
C17    C     0.12773   0.29592   0.10116   0.00000  Uiso   1.00
C18    C     0.83346   0.39944   0.05653   0.00000  Uiso   1.00
C19    C     0.84964   0.44152   0.07195   0.00000  Uiso   1.00
C20    C     0.76232   0.46106   0.18211   0.00000  Uiso   1.00
C21    C     0.82423   0.35119   0.86267   0.00000  Uiso   1.00
C22    C     0.83263   0.35270   0.71511   0.00000  Uiso   1.00
C23    C     0.73751   0.33164   0.66206   0.00000  Uiso   1.00
H24    H     0.65617   0.31494   0.18276   0.00000  Uiso   1.00
H25    H     0.81966   0.26698   0.27319   0.00000  Uiso   1.00
H26    H     0.56895   0.38028   0.32872   0.00000  Uiso   1.00
H27    H     0.55194   0.29148   0.97194   0.00000  Uiso   1.00
H28    H     0.04495   0.22342   0.33321   0.00000  Uiso   1.00
H29    H     0.51629   0.46233   0.45027   0.00000  Uiso   1.00
H30    H     0.48042   0.27508   0.69791   0.00000  Uiso   1.00
H31    H     0.99553   0.38896   0.87229   0.00000  Uiso   1.00
H32    H     0.17764   0.34506   0.94568   0.00000  Uiso   1.00
H33    H     0.92693   0.45836   0.00122   0.00000  Uiso   1.00
H34    H     0.90992   0.36957   0.64444   0.00000  Uiso   1.00
H35    H     0.33550   0.28680   0.06739   0.00000  Uiso   1.00
H36    H     0.80683   0.52571   0.18445   0.00000  Uiso   1.00
H37    H     0.77098   0.33846   0.43210   0.00000  Uiso   1.00
O38    O     0.30390   0.22491   0.25422   0.00000  Uiso   1.00
O39    O     0.61030   0.53834   0.40778   0.00000  Uiso   1.00
O40    O     0.56325   0.29268   0.42072   0.00000  Uiso   1.00
N41    N     0.08834   0.24436   0.26055   0.00000  Uiso   1.00
N42    N     0.59408   0.46772   0.37001   0.00000  Uiso   1.00
N43    N     0.56053   0.29267   0.66663   0.00000  Uiso   1.00
N44    N     0.24468   0.27846   0.11752   0.00000  Uiso   1.00
N45    N     0.75043   0.50182   0.22698   0.00000  Uiso   1.00
N46    N     0.71688   0.32677   0.52360   0.00000  Uiso   1.00
C47    C     0.26608   0.83189   0.38837   0.00000  Uiso   1.00
C48    C     0.13019   0.81610   0.38230   0.00000  Uiso   1.00
C49    C     0.10303   0.78383   0.29751   0.00000  Uiso   1.00
C50    C     0.97231   0.77409   0.30731   0.00000  Uiso   1.00
C51    C     0.77651   0.74627   0.28393   0.00000  Uiso   1.00
C52    C     0.26640   0.87766   0.35211   0.00000  Uiso   1.00
C53    C     0.35378   0.89715   0.24195   0.00000  Uiso   1.00
C54    C     0.33772   0.93924   0.22636   0.00000  Uiso   1.00
C55    C     0.35345   0.00699   0.15618   0.00000  Uiso   1.00
C56    C     0.27564   0.82941   0.54596   0.00000  Uiso   1.00
C57    C     0.37079   0.80834   0.59880   0.00000  Uiso   1.00
C58    C     0.36253   0.80981   0.74641   0.00000  Uiso   1.00
C59    C     0.39259   0.80265   0.97721   0.00000  Uiso   1.00
C60    C     0.08222   0.87200   0.55658   0.00000  Uiso   1.00
C61    C     0.03033   0.83788   0.47366   0.00000  Uiso   1.00
C62    C     0.89962   0.82820   0.48361   0.00000  Uiso   1.00
C63    C     0.87227   0.79592   0.39884   0.00000  Uiso   1.00
C64    C     0.16654   0.89944   0.44347   0.00000  Uiso   1.00
C65    C     0.15036   0.94152   0.42805   0.00000  Uiso   1.00
C66    C     0.23768   0.96106   0.31789   0.00000  Uiso   1.00
C67    C     0.17577   0.85119   0.63733   0.00000  Uiso   1.00
C68    C     0.16737   0.85270   0.78489   0.00000  Uiso   1.00
C69    C     0.26249   0.83164   0.83794   0.00000  Uiso   1.00
H70    H     0.34383   0.81494   0.31724   0.00000  Uiso   1.00
H71    H     0.18034   0.76698   0.22681   0.00000  Uiso   1.00
H72    H     0.43105   0.88028   0.17128   0.00000  Uiso   1.00
H73    H     0.44806   0.79148   0.52806   0.00000  Uiso   1.00
H74    H     0.95505   0.72342   0.16679   0.00000  Uiso   1.00
H75    H     0.48371   0.96233   0.04973   0.00000  Uiso   1.00
H76    H     0.51958   0.77508   0.80209   0.00000  Uiso   1.00
H77    H     0.00447   0.88896   0.62771   0.00000  Uiso   1.00
H78    H     0.82236   0.84506   0.55432   0.00000  Uiso   1.00
H79    H     0.07307   0.95836   0.49878   0.00000  Uiso   1.00
H80    H     0.09008   0.86957   0.85556   0.00000  Uiso   1.00
H81    H     0.66450   0.78680   0.43261   0.00000  Uiso   1.00
H82    H     0.19317   0.02571   0.31555   0.00000  Uiso   1.00
H83    H     0.22902   0.83846   0.06790   0.00000  Uiso   1.00
O84    O     0.69610   0.72491   0.24578   0.00000  Uiso   1.00
O85    O     0.38970   0.03834   0.09222   0.00000  Uiso   1.00
O86    O     0.43675   0.79268   0.07928   0.00000  Uiso   1.00
N87    N     0.91166   0.74436   0.23945   0.00000  Uiso   1.00
N88    N     0.40592   0.96772   0.12999   0.00000  Uiso   1.00
N89    N     0.43947   0.79267   0.83337   0.00000  Uiso   1.00
N90    N     0.75532   0.77846   0.38248   0.00000  Uiso   1.00
N91    N     0.24957   0.00182   0.27302   0.00000  Uiso   1.00
N92    N     0.28312   0.82677   0.97640   0.00000  Uiso   1.00
C93    C     0.26608   0.66811   0.88837   0.00000  Uiso   1.00
C94    C     0.13019   0.68390   0.88230   0.00000  Uiso   1.00
C95    C     0.10303   0.71617   0.79751   0.00000  Uiso   1.00
C96    C     0.97231   0.72591   0.80731   0.00000  Uiso   1.00
C97    C     0.77651   0.75373   0.78393   0.00000  Uiso   1.00
C98    C     0.26640   0.62234   0.85211   0.00000  Uiso   1.00
C99    C     0.35378   0.60285   0.74195   0.00000  Uiso   1.00
C100   C     0.33772   0.56076   0.72636   0.00000  Uiso   1.00
C101   C     0.35345   0.49301   0.65618   0.00000  Uiso   1.00
C102   C     0.27564   0.67059   0.04596   0.00000  Uiso   1.00
C103   C     0.37079   0.69166   0.09880   0.00000  Uiso   1.00
C104   C     0.36253   0.69019   0.24641   0.00000  Uiso   1.00
C105   C     0.39259   0.69735   0.47721   0.00000  Uiso   1.00
C106   C     0.08222   0.62800   0.05658   0.00000  Uiso   1.00
C107   C     0.03033   0.66212   0.97366   0.00000  Uiso   1.00
C108   C     0.89962   0.67180   0.98361   0.00000  Uiso   1.00
C109   C     0.87227   0.70408   0.89884   0.00000  Uiso   1.00
C110   C     0.16654   0.60056   0.94347   0.00000  Uiso   1.00
C111   C     0.15036   0.55848   0.92805   0.00000  Uiso   1.00
C112   C     0.23768   0.53894   0.81789   0.00000  Uiso   1.00
C113   C     0.17577   0.64881   0.13733   0.00000  Uiso   1.00
C114   C     0.16737   0.64730   0.28489   0.00000  Uiso   1.00
C115   C     0.26249   0.66836   0.33794   0.00000  Uiso   1.00
H116   H     0.34383   0.68506   0.81724   0.00000  Uiso   1.00
H117   H     0.18034   0.73302   0.72681   0.00000  Uiso   1.00
H118   H     0.43105   0.61972   0.67128   0.00000  Uiso   1.00
H119   H     0.44806   0.70852   0.02806   0.00000  Uiso   1.00
H120   H     0.95505   0.77658   0.66679   0.00000  Uiso   1.00
H121   H     0.48371   0.53767   0.54973   0.00000  Uiso   1.00
H122   H     0.51958   0.72492   0.30209   0.00000  Uiso   1.00
H123   H     0.00447   0.61104   0.12771   0.00000  Uiso   1.00
H124   H     0.82236   0.65494   0.05432   0.00000  Uiso   1.00
H125   H     0.07307   0.54164   0.99878   0.00000  Uiso   1.00
H126   H     0.09008   0.63043   0.35556   0.00000  Uiso   1.00
H127   H     0.66450   0.71320   0.93261   0.00000  Uiso   1.00
H128   H     0.19317   0.47429   0.81555   0.00000  Uiso   1.00
H129   H     0.22902   0.66154   0.56790   0.00000  Uiso   1.00
O130   O     0.69610   0.77509   0.74578   0.00000  Uiso   1.00
O131   O     0.38970   0.46166   0.59222   0.00000  Uiso   1.00
O132   O     0.43675   0.70732   0.57928   0.00000  Uiso   1.00
N133   N     0.91166   0.75564   0.73945   0.00000  Uiso   1.00
N134   N     0.40592   0.53228   0.62999   0.00000  Uiso   1.00
N135   N     0.43947   0.70733   0.33337   0.00000  Uiso   1.00
N136   N     0.75532   0.72154   0.88248   0.00000  Uiso   1.00
N137   N     0.24957   0.49818   0.77302   0.00000  Uiso   1.00
N138   N     0.28312   0.67323   0.47640   0.00000  Uiso   1.00
C139   C     0.73392   0.16811   0.61163   0.00000  Uiso   1.00
C140   C     0.86981   0.18390   0.61770   0.00000  Uiso   1.00
C141   C     0.89697   0.21617   0.70249   0.00000  Uiso   1.00
C142   C     0.02769   0.22591   0.69269   0.00000  Uiso   1.00
C143   C     0.22349   0.25373   0.71607   0.00000  Uiso   1.00
C144   C     0.73360   0.12234   0.64789   0.00000  Uiso   1.00
C145   C     0.64622   0.10285   0.75805   0.00000  Uiso   1.00
C146   C     0.66228   0.06076   0.77364   0.00000  Uiso   1.00
C147   C     0.64655   0.99301   0.84382   0.00000  Uiso   1.00
C148   C     0.72436   0.17059   0.45404   0.00000  Uiso   1.00
C149   C     0.62921   0.19166   0.40120   0.00000  Uiso   1.00
C150   C     0.63747   0.19019   0.25359   0.00000  Uiso   1.00
C151   C     0.60741   0.19735   0.02279   0.00000  Uiso   1.00
C152   C     0.91778   0.12800   0.44342   0.00000  Uiso   1.00
C153   C     0.96967   0.16212   0.52634   0.00000  Uiso   1.00
C154   C     0.10038   0.17180   0.51639   0.00000  Uiso   1.00
C155   C     0.12773   0.20408   0.60116   0.00000  Uiso   1.00
C156   C     0.83346   0.10056   0.55653   0.00000  Uiso   1.00
C157   C     0.84964   0.05848   0.57195   0.00000  Uiso   1.00
C158   C     0.76232   0.03894   0.68211   0.00000  Uiso   1.00
C159   C     0.82423   0.14881   0.36267   0.00000  Uiso   1.00
C160   C     0.83263   0.14730   0.21511   0.00000  Uiso   1.00
C161   C     0.73751   0.16836   0.16206   0.00000  Uiso   1.00
H162   H     0.65617   0.18506   0.68276   0.00000  Uiso   1.00
H163   H     0.81966   0.23302   0.77319   0.00000  Uiso   1.00
H164   H     0.56895   0.11972   0.82872   0.00000  Uiso   1.00
H165   H     0.55194   0.20852   0.47194   0.00000  Uiso   1.00
H166   H     0.04495   0.27658   0.83321   0.00000  Uiso   1.00
H167   H     0.51629   0.03767   0.95027   0.00000  Uiso   1.00
H168   H     0.48042   0.22492   0.19791   0.00000  Uiso   1.00
H169   H     0.99553   0.11104   0.37229   0.00000  Uiso   1.00
H170   H     0.17764   0.15494   0.44568   0.00000  Uiso   1.00
H171   H     0.92693   0.04164   0.50122   0.00000  Uiso   1.00
H172   H     0.90992   0.13043   0.14444   0.00000  Uiso   1.00
H173   H     0.33550   0.21320   0.56739   0.00000  Uiso   1.00
H174   H     0.80683   0.97429   0.68445   0.00000  Uiso   1.00
H175   H     0.77098   0.16154   0.93210   0.00000  Uiso   1.00
O176   O     0.30390   0.27509   0.75422   0.00000  Uiso   1.00
O177   O     0.61030   0.96166   0.90778   0.00000  Uiso   1.00
O178   O     0.56325   0.20732   0.92072   0.00000  Uiso   1.00
N179   N     0.08834   0.25564   0.76055   0.00000  Uiso   1.00
N180   N     0.59408   0.03228   0.87001   0.00000  Uiso   1.00
N181   N     0.56053   0.20733   0.16663   0.00000  Uiso   1.00
N182   N     0.24468   0.22154   0.61752   0.00000  Uiso   1.00
N183   N     0.75043   0.99818   0.72698   0.00000  Uiso   1.00
N184   N     0.71688   0.17323   0.02360   0.00000  Uiso   1.00
