data_job_03306
_audit_creation_date              2018-12-19
_audit_creation_method            'Materials Studio'
_symmetry_space_group_name_H-M    'P1'
_symmetry_Int_Tables_number       1
_symmetry_cell_setting            triclinic
loop_
_symmetry_equiv_pos_as_xyz
  x,y,z
_cell_length_a                    22.0565
_cell_length_b                    8.1601
_cell_length_c                    19.6829
_cell_angle_alpha                 90.0000
_cell_angle_beta                  104.3860
_cell_angle_gamma                 90.0000
loop_
_atom_site_label
_atom_site_type_symbol
_atom_site_fract_x
_atom_site_fract_y
_atom_site_fract_z
_atom_site_U_iso_or_equiv
_atom_site_adp_type
_atom_site_occupancy
C1     C     0.71989   0.33514   0.56532   0.00000  Uiso   1.00
C2     C     0.76566   0.44280   0.53879   0.00000  Uiso   1.00
C3     C     0.82703   0.40252   0.53994   0.00000  Uiso   1.00
C4     C     0.86128   0.51768   0.51323   0.00000  Uiso   1.00
C5     C     0.93635   0.66206   0.47616   0.00000  Uiso   1.00
C6     C     0.69803   0.43736   0.61960   0.00000  Uiso   1.00
C7     C     0.70254   0.39248   0.68869   0.00000  Uiso   1.00
C8     C     0.67985   0.50306   0.72999   0.00000  Uiso   1.00
C9     C     0.64989   0.63894   0.81837   0.00000  Uiso   1.00
C10    C     0.66286   0.31453   0.50365   0.00000  Uiso   1.00
C11    C     0.63778   0.16638   0.47526   0.00000  Uiso   1.00
C12    C     0.58546   0.17355   0.41895   0.00000  Uiso   1.00
C13    C     0.50089   0.11872   0.32730   0.00000  Uiso   1.00
C14    C     0.67156   0.61130   0.51582   0.00000  Uiso   1.00
C15    C     0.73941   0.59280   0.51191   0.00000  Uiso   1.00
C16    C     0.77357   0.70805   0.48517   0.00000  Uiso   1.00
C17    C     0.83498   0.66795   0.48629   0.00000  Uiso   1.00
C18    C     0.67179   0.58735   0.59272   0.00000  Uiso   1.00
C19    C     0.64908   0.69802   0.63392   0.00000  Uiso   1.00
C20    C     0.65356   0.65333   0.70306   0.00000  Uiso   1.00
C21    C     0.63661   0.46453   0.47676   0.00000  Uiso   1.00
C22    C     0.58432   0.47193   0.42049   0.00000  Uiso   1.00
C23    C     0.55917   0.32382   0.39202   0.00000  Uiso   1.00
H24    H     0.74032   0.21837   0.58626   0.00000  Uiso   1.00
H25    H     0.84733   0.28643   0.56076   0.00000  Uiso   1.00
H26    H     0.72285   0.27639   0.70948   0.00000  Uiso   1.00
H27    H     0.65811   0.05033   0.49608   0.00000  Uiso   1.00
H28    H     0.95440   0.42806   0.52066   0.00000  Uiso   1.00
H29    H     0.69192   0.40687   0.83424   0.00000  Uiso   1.00
H30    H     0.55538   0.93018   0.38425   0.00000  Uiso   1.00
H31    H     0.65112   0.72809   0.49488   0.00000  Uiso   1.00
H32    H     0.75324   0.82412   0.46437   0.00000  Uiso   1.00
H33    H     0.62876   0.81408   0.61310   0.00000  Uiso   1.00
H34    H     0.56402   0.58802   0.39970   0.00000  Uiso   1.00
H35    H     0.87804   0.86448   0.44243   0.00000  Uiso   1.00
H36    H     0.61555   0.84328   0.75601   0.00000  Uiso   1.00
H37    H     0.47901   0.36659   0.30602   0.00000  Uiso   1.00
O38    O     0.98501   0.70027   0.46315   0.00000  Uiso   1.00
O39    O     0.64063   0.67245   0.87454   0.00000  Uiso   1.00
O40    O     0.46150   0.04704   0.28416   0.00000  Uiso   1.00
N41    N     0.92241   0.51758   0.50643   0.00000  Uiso   1.00
N42    N     0.67701   0.49778   0.79961   0.00000  Uiso   1.00
N43    N     0.54935   0.05211   0.37891   0.00000  Uiso   1.00
N44    N     0.88132   0.75241   0.46433   0.00000  Uiso   1.00
N45    N     0.63592   0.73261   0.75751   0.00000  Uiso   1.00
N46    N     0.50826   0.28694   0.33682   0.00000  Uiso   1.00
C47    C     0.28011   0.83514   0.93468   0.00000  Uiso   1.00
C48    C     0.23434   0.94280   0.96121   0.00000  Uiso   1.00
C49    C     0.17297   0.90252   0.96006   0.00000  Uiso   1.00
C50    C     0.13872   0.01768   0.98677   0.00000  Uiso   1.00
C51    C     0.06365   0.16206   0.02384   0.00000  Uiso   1.00
C52    C     0.30197   0.93736   0.88040   0.00000  Uiso   1.00
C53    C     0.29746   0.89248   0.81131   0.00000  Uiso   1.00
C54    C     0.32015   0.00306   0.77001   0.00000  Uiso   1.00
C55    C     0.35011   0.13894   0.68163   0.00000  Uiso   1.00
C56    C     0.33714   0.81453   0.99635   0.00000  Uiso   1.00
C57    C     0.36222   0.66638   0.02474   0.00000  Uiso   1.00
C58    C     0.41454   0.67355   0.08105   0.00000  Uiso   1.00
C59    C     0.49911   0.61872   0.17270   0.00000  Uiso   1.00
C60    C     0.32844   0.11130   0.98418   0.00000  Uiso   1.00
C61    C     0.26059   0.09280   0.98809   0.00000  Uiso   1.00
C62    C     0.22643   0.20805   0.01483   0.00000  Uiso   1.00
C63    C     0.16502   0.16795   0.01371   0.00000  Uiso   1.00
C64    C     0.32821   0.08735   0.90728   0.00000  Uiso   1.00
C65    C     0.35092   0.19802   0.86608   0.00000  Uiso   1.00
C66    C     0.34644   0.15333   0.79694   0.00000  Uiso   1.00
C67    C     0.36339   0.96453   0.02324   0.00000  Uiso   1.00
C68    C     0.41568   0.97193   0.07951   0.00000  Uiso   1.00
C69    C     0.44083   0.82382   0.10798   0.00000  Uiso   1.00
H70    H     0.25968   0.71837   0.91374   0.00000  Uiso   1.00
H71    H     0.15267   0.78643   0.93924   0.00000  Uiso   1.00
H72    H     0.27715   0.77639   0.79052   0.00000  Uiso   1.00
H73    H     0.34189   0.55033   0.00392   0.00000  Uiso   1.00
H74    H     0.04560   0.92806   0.97934   0.00000  Uiso   1.00
H75    H     0.30808   0.90687   0.66576   0.00000  Uiso   1.00
H76    H     0.44462   0.43018   0.11575   0.00000  Uiso   1.00
H77    H     0.34888   0.22809   0.00512   0.00000  Uiso   1.00
H78    H     0.24676   0.32412   0.03563   0.00000  Uiso   1.00
H79    H     0.37124   0.31408   0.88690   0.00000  Uiso   1.00
H80    H     0.43598   0.08802   0.10030   0.00000  Uiso   1.00
H81    H     0.12196   0.36448   0.05757   0.00000  Uiso   1.00
H82    H     0.38445   0.34328   0.74399   0.00000  Uiso   1.00
H83    H     0.52099   0.86659   0.19398   0.00000  Uiso   1.00
O84    O     0.01499   0.20027   0.03685   0.00000  Uiso   1.00
O85    O     0.35937   0.17245   0.62546   0.00000  Uiso   1.00
O86    O     0.53850   0.54704   0.21584   0.00000  Uiso   1.00
N87    N     0.07759   0.01758   0.99357   0.00000  Uiso   1.00
N88    N     0.32299   0.99778   0.70039   0.00000  Uiso   1.00
N89    N     0.45065   0.55211   0.12109   0.00000  Uiso   1.00
N90    N     0.11868   0.25241   0.03567   0.00000  Uiso   1.00
N91    N     0.36408   0.23261   0.74249   0.00000  Uiso   1.00
N92    N     0.49174   0.78694   0.16318   0.00000  Uiso   1.00
C93    C     0.28011   0.66486   0.43468   0.00000  Uiso   1.00
C94    C     0.23434   0.55720   0.46121   0.00000  Uiso   1.00
C95    C     0.17297   0.59748   0.46006   0.00000  Uiso   1.00
C96    C     0.13872   0.48232   0.48677   0.00000  Uiso   1.00
C97    C     0.06365   0.33794   0.52384   0.00000  Uiso   1.00
C98    C     0.30197   0.56264   0.38040   0.00000  Uiso   1.00
C99    C     0.29746   0.60752   0.31131   0.00000  Uiso   1.00
C100   C     0.32015   0.49694   0.27001   0.00000  Uiso   1.00
C101   C     0.35011   0.36106   0.18163   0.00000  Uiso   1.00
C102   C     0.33714   0.68547   0.49635   0.00000  Uiso   1.00
C103   C     0.36222   0.83362   0.52474   0.00000  Uiso   1.00
C104   C     0.41454   0.82645   0.58105   0.00000  Uiso   1.00
C105   C     0.49911   0.88128   0.67270   0.00000  Uiso   1.00
C106   C     0.32844   0.38870   0.48418   0.00000  Uiso   1.00
C107   C     0.26059   0.40720   0.48809   0.00000  Uiso   1.00
C108   C     0.22643   0.29195   0.51483   0.00000  Uiso   1.00
C109   C     0.16502   0.33205   0.51371   0.00000  Uiso   1.00
C110   C     0.32821   0.41265   0.40728   0.00000  Uiso   1.00
C111   C     0.35092   0.30198   0.36608   0.00000  Uiso   1.00
C112   C     0.34644   0.34667   0.29694   0.00000  Uiso   1.00
C113   C     0.36339   0.53547   0.52324   0.00000  Uiso   1.00
C114   C     0.41568   0.52807   0.57951   0.00000  Uiso   1.00
C115   C     0.44083   0.67618   0.60798   0.00000  Uiso   1.00
H116   H     0.25968   0.78163   0.41374   0.00000  Uiso   1.00
H117   H     0.15267   0.71357   0.43924   0.00000  Uiso   1.00
H118   H     0.27715   0.72361   0.29052   0.00000  Uiso   1.00
H119   H     0.34189   0.94967   0.50392   0.00000  Uiso   1.00
H120   H     0.04560   0.57194   0.47934   0.00000  Uiso   1.00
H121   H     0.30808   0.59313   0.16576   0.00000  Uiso   1.00
H122   H     0.44462   0.06982   0.61575   0.00000  Uiso   1.00
H123   H     0.34888   0.27191   0.50512   0.00000  Uiso   1.00
H124   H     0.24676   0.17588   0.53563   0.00000  Uiso   1.00
H125   H     0.37124   0.18592   0.38690   0.00000  Uiso   1.00
H126   H     0.43598   0.41198   0.60030   0.00000  Uiso   1.00
H127   H     0.12196   0.13552   0.55757   0.00000  Uiso   1.00
H128   H     0.38445   0.15672   0.24399   0.00000  Uiso   1.00
H129   H     0.52099   0.63341   0.69398   0.00000  Uiso   1.00
O130   O     0.01499   0.29973   0.53685   0.00000  Uiso   1.00
O131   O     0.35937   0.32755   0.12546   0.00000  Uiso   1.00
O132   O     0.53850   0.95296   0.71584   0.00000  Uiso   1.00
N133   N     0.07759   0.48242   0.49357   0.00000  Uiso   1.00
N134   N     0.32299   0.50222   0.20039   0.00000  Uiso   1.00
N135   N     0.45065   0.94789   0.62109   0.00000  Uiso   1.00
N136   N     0.11868   0.24759   0.53567   0.00000  Uiso   1.00
N137   N     0.36408   0.26739   0.24249   0.00000  Uiso   1.00
N138   N     0.49174   0.71306   0.66318   0.00000  Uiso   1.00
C139   C     0.71989   0.16486   0.06532   0.00000  Uiso   1.00
C140   C     0.76566   0.05720   0.03879   0.00000  Uiso   1.00
C141   C     0.82703   0.09748   0.03994   0.00000  Uiso   1.00
C142   C     0.86128   0.98232   0.01323   0.00000  Uiso   1.00
C143   C     0.93635   0.83794   0.97616   0.00000  Uiso   1.00
C144   C     0.69803   0.06264   0.11960   0.00000  Uiso   1.00
C145   C     0.70254   0.10752   0.18869   0.00000  Uiso   1.00
C146   C     0.67985   0.99694   0.22999   0.00000  Uiso   1.00
C147   C     0.64989   0.86106   0.31837   0.00000  Uiso   1.00
C148   C     0.66286   0.18547   0.00365   0.00000  Uiso   1.00
C149   C     0.63778   0.33362   0.97526   0.00000  Uiso   1.00
C150   C     0.58546   0.32645   0.91895   0.00000  Uiso   1.00
C151   C     0.50089   0.38128   0.82730   0.00000  Uiso   1.00
C152   C     0.67156   0.88870   0.01582   0.00000  Uiso   1.00
C153   C     0.73941   0.90720   0.01191   0.00000  Uiso   1.00
C154   C     0.77357   0.79195   0.98517   0.00000  Uiso   1.00
C155   C     0.83498   0.83205   0.98629   0.00000  Uiso   1.00
C156   C     0.67179   0.91265   0.09272   0.00000  Uiso   1.00
C157   C     0.64908   0.80198   0.13392   0.00000  Uiso   1.00
C158   C     0.65356   0.84667   0.20306   0.00000  Uiso   1.00
C159   C     0.63661   0.03547   0.97676   0.00000  Uiso   1.00
C160   C     0.58432   0.02807   0.92049   0.00000  Uiso   1.00
C161   C     0.55917   0.17618   0.89202   0.00000  Uiso   1.00
H162   H     0.74032   0.28163   0.08626   0.00000  Uiso   1.00
H163   H     0.84733   0.21357   0.06076   0.00000  Uiso   1.00
H164   H     0.72285   0.22361   0.20948   0.00000  Uiso   1.00
H165   H     0.65811   0.44967   0.99608   0.00000  Uiso   1.00
H166   H     0.95440   0.07194   0.02066   0.00000  Uiso   1.00
H167   H     0.69192   0.09313   0.33424   0.00000  Uiso   1.00
H168   H     0.55538   0.56982   0.88425   0.00000  Uiso   1.00
H169   H     0.65112   0.77191   0.99488   0.00000  Uiso   1.00
H170   H     0.75324   0.67588   0.96437   0.00000  Uiso   1.00
H171   H     0.62876   0.68592   0.11310   0.00000  Uiso   1.00
H172   H     0.56402   0.91198   0.89970   0.00000  Uiso   1.00
H173   H     0.87804   0.63552   0.94243   0.00000  Uiso   1.00
H174   H     0.61555   0.65672   0.25601   0.00000  Uiso   1.00
H175   H     0.47901   0.13341   0.80602   0.00000  Uiso   1.00
O176   O     0.98501   0.79973   0.96315   0.00000  Uiso   1.00
O177   O     0.64063   0.82755   0.37454   0.00000  Uiso   1.00
O178   O     0.46150   0.45296   0.78416   0.00000  Uiso   1.00
N179   N     0.92241   0.98242   0.00643   0.00000  Uiso   1.00
N180   N     0.67701   0.00222   0.29961   0.00000  Uiso   1.00
N181   N     0.54935   0.44789   0.87891   0.00000  Uiso   1.00
N182   N     0.88132   0.74759   0.96433   0.00000  Uiso   1.00
N183   N     0.63592   0.76739   0.25751   0.00000  Uiso   1.00
N184   N     0.50826   0.21306   0.83682   0.00000  Uiso   1.00
