data_job_04030
_audit_creation_date              2018-12-19
_audit_creation_method            'Materials Studio'
_symmetry_space_group_name_H-M    'P1'
_symmetry_Int_Tables_number       1
_symmetry_cell_setting            triclinic
loop_
_symmetry_equiv_pos_as_xyz
  x,y,z
_cell_length_a                    16.0201
_cell_length_b                    10.8374
_cell_length_c                    28.1362
_cell_angle_alpha                 90.0000
_cell_angle_beta                  133.1488
_cell_angle_gamma                 90.0000
loop_
_atom_site_label
_atom_site_type_symbol
_atom_site_fract_x
_atom_site_fract_y
_atom_site_fract_z
_atom_site_U_iso_or_equiv
_atom_site_adp_type
_atom_site_occupancy
C1     C     0.51457   0.67746   0.83953   0.00000  Uiso   1.00
C2     C     0.61858   0.74727   0.89867   0.00000  Uiso   1.00
C3     C     0.70239   0.80260   0.90363   0.00000  Uiso   1.00
C4     C     0.79065   0.86198   0.96182   0.00000  Uiso   1.00
C5     C     0.95155   0.96973   0.04586   0.00000  Uiso   1.00
C6     C     0.52004   0.54940   0.86400   0.00000  Uiso   1.00
C7     C     0.52100   0.43837   0.83980   0.00000  Uiso   1.00
C8     C     0.52629   0.33118   0.86880   0.00000  Uiso   1.00
C9     C     0.53413   0.13174   0.89899   0.00000  Uiso   1.00
C10    C     0.41036   0.74055   0.82069   0.00000  Uiso   1.00
C11    C     0.31906   0.79021   0.76006   0.00000  Uiso   1.00
C12    C     0.23199   0.84393   0.75260   0.00000  Uiso   1.00
C13    C     0.06952   0.94128   0.71553   0.00000  Uiso   1.00
C14    C     0.52226   0.68453   0.93406   0.00000  Uiso   1.00
C15    C     0.62276   0.75110   0.95002   0.00000  Uiso   1.00
C16    C     0.71091   0.81042   0.00822   0.00000  Uiso   1.00
C17    C     0.79484   0.86583   0.01326   0.00000  Uiso   1.00
C18    C     0.52422   0.55324   0.91535   0.00000  Uiso   1.00
C19    C     0.52951   0.44619   0.94439   0.00000  Uiso   1.00
C20    C     0.53048   0.33503   0.92024   0.00000  Uiso   1.00
C21    C     0.41453   0.74439   0.87204   0.00000  Uiso   1.00
C22    C     0.32758   0.79804   0.86466   0.00000  Uiso   1.00
C23    C     0.23618   0.84777   0.80404   0.00000  Uiso   1.00
H24    H     0.51131   0.67446   0.79955   0.00000  Uiso   1.00
H25    H     0.69914   0.79959   0.86388   0.00000  Uiso   1.00
H26    H     0.51775   0.43543   0.80006   0.00000  Uiso   1.00
H27    H     0.31586   0.78722   0.72034   0.00000  Uiso   1.00
H28    H     0.90924   0.93998   0.95786   0.00000  Uiso   1.00
H29    H     0.52674   0.17211   0.82327   0.00000  Uiso   1.00
H30    H     0.10100   0.91393   0.65516   0.00000  Uiso   1.00
H31    H     0.52551   0.68752   0.97404   0.00000  Uiso   1.00
H32    H     0.71412   0.81338   0.04795   0.00000  Uiso   1.00
H33    H     0.53274   0.44920   0.98413   0.00000  Uiso   1.00
H34    H     0.33084   0.80099   0.90441   0.00000  Uiso   1.00
H35    H     0.92141   0.95116   0.10726   0.00000  Uiso   1.00
H36    H     0.53890   0.18328   0.97267   0.00000  Uiso   1.00
H37    H     0.11317   0.92511   0.80456   0.00000  Uiso   1.00
O38    O     0.03916   0.02809   0.07803   0.00000  Uiso   1.00
O39    O     0.53731   0.02067   0.90145   0.00000  Uiso   1.00
O40    O     0.97876   0.99393   0.68090   0.00000  Uiso   1.00
N41    N     0.88621   0.92536   0.98287   0.00000  Uiso   1.00
N42    N     0.52861   0.20744   0.85705   0.00000  Uiso   1.00
N43    N     0.13057   0.90096   0.69987   0.00000  Uiso   1.00
N44    N     0.89275   0.93138   0.06326   0.00000  Uiso   1.00
N45    N     0.53516   0.21346   0.93744   0.00000  Uiso   1.00
N46    N     0.13711   0.90697   0.78026   0.00000  Uiso   1.00
C47    C     0.48543   0.67746   0.66047   0.00000  Uiso   1.00
C48    C     0.38142   0.74727   0.60133   0.00000  Uiso   1.00
C49    C     0.29761   0.80260   0.59637   0.00000  Uiso   1.00
C50    C     0.20935   0.86198   0.53818   0.00000  Uiso   1.00
C51    C     0.04845   0.96973   0.45414   0.00000  Uiso   1.00
C52    C     0.47996   0.54940   0.63600   0.00000  Uiso   1.00
C53    C     0.47900   0.43837   0.66020   0.00000  Uiso   1.00
C54    C     0.47371   0.33118   0.63120   0.00000  Uiso   1.00
C55    C     0.46587   0.13174   0.60101   0.00000  Uiso   1.00
C56    C     0.58964   0.74055   0.67931   0.00000  Uiso   1.00
C57    C     0.68094   0.79021   0.73994   0.00000  Uiso   1.00
C58    C     0.76801   0.84393   0.74740   0.00000  Uiso   1.00
C59    C     0.93048   0.94128   0.78447   0.00000  Uiso   1.00
C60    C     0.47774   0.68453   0.56594   0.00000  Uiso   1.00
C61    C     0.37724   0.75110   0.54998   0.00000  Uiso   1.00
C62    C     0.28909   0.81042   0.49178   0.00000  Uiso   1.00
C63    C     0.20516   0.86583   0.48674   0.00000  Uiso   1.00
C64    C     0.47578   0.55324   0.58465   0.00000  Uiso   1.00
C65    C     0.47049   0.44619   0.55561   0.00000  Uiso   1.00
C66    C     0.46952   0.33503   0.57976   0.00000  Uiso   1.00
C67    C     0.58547   0.74439   0.62796   0.00000  Uiso   1.00
C68    C     0.67242   0.79804   0.63534   0.00000  Uiso   1.00
C69    C     0.76382   0.84777   0.69596   0.00000  Uiso   1.00
H70    H     0.48869   0.67446   0.70045   0.00000  Uiso   1.00
H71    H     0.30086   0.79959   0.63612   0.00000  Uiso   1.00
H72    H     0.48225   0.43543   0.69994   0.00000  Uiso   1.00
H73    H     0.68414   0.78722   0.77966   0.00000  Uiso   1.00
H74    H     0.09076   0.93998   0.54214   0.00000  Uiso   1.00
H75    H     0.47326   0.17211   0.67673   0.00000  Uiso   1.00
H76    H     0.89900   0.91393   0.84484   0.00000  Uiso   1.00
H77    H     0.47449   0.68752   0.52596   0.00000  Uiso   1.00
H78    H     0.28588   0.81338   0.45205   0.00000  Uiso   1.00
H79    H     0.46726   0.44920   0.51587   0.00000  Uiso   1.00
H80    H     0.66916   0.80099   0.59559   0.00000  Uiso   1.00
H81    H     0.07859   0.95116   0.39274   0.00000  Uiso   1.00
H82    H     0.46110   0.18328   0.52733   0.00000  Uiso   1.00
H83    H     0.88683   0.92511   0.69544   0.00000  Uiso   1.00
O84    O     0.96084   0.02809   0.42197   0.00000  Uiso   1.00
O85    O     0.46269   0.02067   0.59855   0.00000  Uiso   1.00
O86    O     0.02124   0.99393   0.81910   0.00000  Uiso   1.00
N87    N     0.11379   0.92536   0.51713   0.00000  Uiso   1.00
N88    N     0.47139   0.20744   0.64295   0.00000  Uiso   1.00
N89    N     0.86943   0.90096   0.80013   0.00000  Uiso   1.00
N90    N     0.10725   0.93138   0.43674   0.00000  Uiso   1.00
N91    N     0.46484   0.21346   0.56256   0.00000  Uiso   1.00
N92    N     0.86289   0.90697   0.71974   0.00000  Uiso   1.00
C93    C     0.48543   0.32254   0.16047   0.00000  Uiso   1.00
C94    C     0.38142   0.25273   0.10133   0.00000  Uiso   1.00
C95    C     0.29761   0.19740   0.09637   0.00000  Uiso   1.00
C96    C     0.20935   0.13802   0.03818   0.00000  Uiso   1.00
C97    C     0.04845   0.03027   0.95414   0.00000  Uiso   1.00
C98    C     0.47996   0.45060   0.13600   0.00000  Uiso   1.00
C99    C     0.47900   0.56163   0.16020   0.00000  Uiso   1.00
C100   C     0.47371   0.66882   0.13120   0.00000  Uiso   1.00
C101   C     0.46587   0.86826   0.10101   0.00000  Uiso   1.00
C102   C     0.58964   0.25945   0.17931   0.00000  Uiso   1.00
C103   C     0.68094   0.20979   0.23994   0.00000  Uiso   1.00
C104   C     0.76801   0.15607   0.24740   0.00000  Uiso   1.00
C105   C     0.93048   0.05872   0.28447   0.00000  Uiso   1.00
C106   C     0.47774   0.31547   0.06594   0.00000  Uiso   1.00
C107   C     0.37724   0.24890   0.04998   0.00000  Uiso   1.00
C108   C     0.28909   0.18958   0.99178   0.00000  Uiso   1.00
C109   C     0.20516   0.13417   0.98674   0.00000  Uiso   1.00
C110   C     0.47578   0.44676   0.08465   0.00000  Uiso   1.00
C111   C     0.47049   0.55381   0.05561   0.00000  Uiso   1.00
C112   C     0.46952   0.66497   0.07976   0.00000  Uiso   1.00
C113   C     0.58547   0.25561   0.12796   0.00000  Uiso   1.00
C114   C     0.67242   0.20196   0.13534   0.00000  Uiso   1.00
C115   C     0.76382   0.15223   0.19596   0.00000  Uiso   1.00
H116   H     0.48869   0.32554   0.20045   0.00000  Uiso   1.00
H117   H     0.30086   0.20041   0.13612   0.00000  Uiso   1.00
H118   H     0.48225   0.56457   0.19994   0.00000  Uiso   1.00
H119   H     0.68414   0.21278   0.27966   0.00000  Uiso   1.00
H120   H     0.09076   0.06002   0.04214   0.00000  Uiso   1.00
H121   H     0.47326   0.82789   0.17673   0.00000  Uiso   1.00
H122   H     0.89900   0.08607   0.34484   0.00000  Uiso   1.00
H123   H     0.47449   0.31248   0.02596   0.00000  Uiso   1.00
H124   H     0.28588   0.18662   0.95205   0.00000  Uiso   1.00
H125   H     0.46726   0.55080   0.01587   0.00000  Uiso   1.00
H126   H     0.66916   0.19901   0.09559   0.00000  Uiso   1.00
H127   H     0.07859   0.04884   0.89274   0.00000  Uiso   1.00
H128   H     0.46110   0.81672   0.02733   0.00000  Uiso   1.00
H129   H     0.88683   0.07489   0.19544   0.00000  Uiso   1.00
O130   O     0.96084   0.97191   0.92197   0.00000  Uiso   1.00
O131   O     0.46269   0.97933   0.09855   0.00000  Uiso   1.00
O132   O     0.02124   0.00607   0.31910   0.00000  Uiso   1.00
N133   N     0.11379   0.07464   0.01713   0.00000  Uiso   1.00
N134   N     0.47139   0.79256   0.14295   0.00000  Uiso   1.00
N135   N     0.86943   0.09904   0.30013   0.00000  Uiso   1.00
N136   N     0.10725   0.06862   0.93674   0.00000  Uiso   1.00
N137   N     0.46484   0.78654   0.06256   0.00000  Uiso   1.00
N138   N     0.86289   0.09303   0.21974   0.00000  Uiso   1.00
C139   C     0.51457   0.32254   0.33953   0.00000  Uiso   1.00
C140   C     0.61858   0.25273   0.39867   0.00000  Uiso   1.00
C141   C     0.70239   0.19740   0.40363   0.00000  Uiso   1.00
C142   C     0.79065   0.13802   0.46182   0.00000  Uiso   1.00
C143   C     0.95155   0.03027   0.54586   0.00000  Uiso   1.00
C144   C     0.52004   0.45060   0.36400   0.00000  Uiso   1.00
C145   C     0.52100   0.56163   0.33980   0.00000  Uiso   1.00
C146   C     0.52629   0.66882   0.36880   0.00000  Uiso   1.00
C147   C     0.53413   0.86826   0.39899   0.00000  Uiso   1.00
C148   C     0.41036   0.25945   0.32069   0.00000  Uiso   1.00
C149   C     0.31906   0.20979   0.26006   0.00000  Uiso   1.00
C150   C     0.23199   0.15607   0.25260   0.00000  Uiso   1.00
C151   C     0.06952   0.05872   0.21553   0.00000  Uiso   1.00
C152   C     0.52226   0.31547   0.43406   0.00000  Uiso   1.00
C153   C     0.62276   0.24890   0.45002   0.00000  Uiso   1.00
C154   C     0.71091   0.18958   0.50822   0.00000  Uiso   1.00
C155   C     0.79484   0.13417   0.51326   0.00000  Uiso   1.00
C156   C     0.52422   0.44676   0.41535   0.00000  Uiso   1.00
C157   C     0.52951   0.55381   0.44439   0.00000  Uiso   1.00
C158   C     0.53048   0.66497   0.42024   0.00000  Uiso   1.00
C159   C     0.41453   0.25561   0.37204   0.00000  Uiso   1.00
C160   C     0.32758   0.20196   0.36466   0.00000  Uiso   1.00
C161   C     0.23618   0.15223   0.30404   0.00000  Uiso   1.00
H162   H     0.51131   0.32554   0.29955   0.00000  Uiso   1.00
H163   H     0.69914   0.20041   0.36388   0.00000  Uiso   1.00
H164   H     0.51775   0.56457   0.30006   0.00000  Uiso   1.00
H165   H     0.31586   0.21278   0.22034   0.00000  Uiso   1.00
H166   H     0.90924   0.06002   0.45786   0.00000  Uiso   1.00
H167   H     0.52674   0.82789   0.32327   0.00000  Uiso   1.00
H168   H     0.10100   0.08607   0.15516   0.00000  Uiso   1.00
H169   H     0.52551   0.31248   0.47404   0.00000  Uiso   1.00
H170   H     0.71412   0.18662   0.54795   0.00000  Uiso   1.00
H171   H     0.53274   0.55080   0.48413   0.00000  Uiso   1.00
H172   H     0.33084   0.19901   0.40441   0.00000  Uiso   1.00
H173   H     0.92141   0.04884   0.60726   0.00000  Uiso   1.00
H174   H     0.53890   0.81672   0.47267   0.00000  Uiso   1.00
H175   H     0.11317   0.07489   0.30456   0.00000  Uiso   1.00
O176   O     0.03916   0.97191   0.57803   0.00000  Uiso   1.00
O177   O     0.53731   0.97933   0.40145   0.00000  Uiso   1.00
O178   O     0.97876   0.00607   0.18090   0.00000  Uiso   1.00
N179   N     0.88621   0.07464   0.48287   0.00000  Uiso   1.00
N180   N     0.52861   0.79256   0.35705   0.00000  Uiso   1.00
N181   N     0.13057   0.09904   0.19987   0.00000  Uiso   1.00
N182   N     0.89275   0.06862   0.56326   0.00000  Uiso   1.00
N183   N     0.53516   0.78654   0.43744   0.00000  Uiso   1.00
N184   N     0.13711   0.09303   0.28026   0.00000  Uiso   1.00
