data_job_01415
_audit_creation_date              2018-12-19
_audit_creation_method            'Materials Studio'
_symmetry_space_group_name_H-M    'P1'
_symmetry_Int_Tables_number       1
_symmetry_cell_setting            triclinic
loop_
_symmetry_equiv_pos_as_xyz
  x,y,z
_cell_length_a                    12.6025
_cell_length_b                    26.9166
_cell_length_c                    9.5929
_cell_angle_alpha                 90.0000
_cell_angle_beta                  124.5010
_cell_angle_gamma                 90.0000
loop_
_atom_site_label
_atom_site_type_symbol
_atom_site_fract_x
_atom_site_fract_y
_atom_site_fract_z
_atom_site_U_iso_or_equiv
_atom_site_adp_type
_atom_site_occupancy
C1     C     0.25937   0.41678   0.99617   0.00000  Uiso   1.00
C2     C     0.17190   0.38625   0.83639   0.00000  Uiso   1.00
C3     C     0.04115   0.39408   0.71896   0.00000  Uiso   1.00
C4     C     0.97823   0.36210   0.58130   0.00000  Uiso   1.00
C5     C     0.83243   0.32052   0.33619   0.00000  Uiso   1.00
C6     C     0.32057   0.37994   0.14267   0.00000  Uiso   1.00
C7     C     0.31482   0.38246   0.28276   0.00000  Uiso   1.00
C8     C     0.37707   0.34516   0.40293   0.00000  Uiso   1.00
C9     C     0.46216   0.29380   0.63338   0.00000  Uiso   1.00
C10    C     0.36841   0.43568   0.98502   0.00000  Uiso   1.00
C11    C     0.40291   0.48508   0.99260   0.00000  Uiso   1.00
C12    C     0.50546   0.49471   0.98007   0.00000  Uiso   1.00
C13    C     0.66481   0.52991   0.96575   0.00000  Uiso   1.00
C14    C     0.38016   0.34606   0.96050   0.00000  Uiso   1.00
C15    C     0.23752   0.34784   0.81703   0.00000  Uiso   1.00
C16    C     0.17479   0.31584   0.67949   0.00000  Uiso   1.00
C17    C     0.04396   0.32362   0.56188   0.00000  Uiso   1.00
C18    C     0.38618   0.34153   0.12330   0.00000  Uiso   1.00
C19    C     0.44846   0.30422   0.24329   0.00000  Uiso   1.00
C20    C     0.44280   0.30668   0.38352   0.00000  Uiso   1.00
C21    C     0.43402   0.39727   0.96564   0.00000  Uiso   1.00
C22    C     0.53654   0.40684   0.95312   0.00000  Uiso   1.00
C23    C     0.57119   0.45623   0.96067   0.00000  Uiso   1.00
H24    H     0.20829   0.44668   0.01127   0.00000  Uiso   1.00
H25    H     0.99040   0.42381   0.73401   0.00000  Uiso   1.00
H26    H     0.26405   0.41219   0.29773   0.00000  Uiso   1.00
H27    H     0.35211   0.51479   0.00759   0.00000  Uiso   1.00
H28    H     0.77776   0.38149   0.41811   0.00000  Uiso   1.00
H29    H     0.35479   0.35700   0.60676   0.00000  Uiso   1.00
H30    H     0.54049   0.57337   0.99497   0.00000  Uiso   1.00
H31    H     0.43125   0.31616   0.94542   0.00000  Uiso   1.00
H32    H     0.22559   0.28612   0.66454   0.00000  Uiso   1.00
H33    H     0.49923   0.27450   0.22826   0.00000  Uiso   1.00
H34    H     0.58729   0.37710   0.93813   0.00000  Uiso   1.00
H35    H     0.96864   0.26974   0.36173   0.00000  Uiso   1.00
H36    H     0.54568   0.24525   0.55039   0.00000  Uiso   1.00
H37    H     0.73137   0.46161   0.93859   0.00000  Uiso   1.00
O38    O     0.73388   0.30820   0.20636   0.00000  Uiso   1.00
O39    O     0.49095   0.27608   0.76585   0.00000  Uiso   1.00
O40    O     0.73457   0.55994   0.96318   0.00000  Uiso   1.00
N41    N     0.85091   0.35932   0.44337   0.00000  Uiso   1.00
N42    N     0.39039   0.33642   0.55468   0.00000  Uiso   1.00
N43    N     0.56402   0.53870   0.98275   0.00000  Uiso   1.00
N44    N     0.95363   0.29919   0.41303   0.00000  Uiso   1.00
N45    N     0.49310   0.27629   0.52434   0.00000  Uiso   1.00
N46    N     0.66673   0.47857   0.95241   0.00000  Uiso   1.00
C47    C     0.75937   0.91678   0.99617   0.00000  Uiso   1.00
C48    C     0.67190   0.88625   0.83639   0.00000  Uiso   1.00
C49    C     0.54115   0.89408   0.71896   0.00000  Uiso   1.00
C50    C     0.47823   0.86210   0.58130   0.00000  Uiso   1.00
C51    C     0.33243   0.82052   0.33619   0.00000  Uiso   1.00
C52    C     0.82057   0.87994   0.14267   0.00000  Uiso   1.00
C53    C     0.81482   0.88246   0.28276   0.00000  Uiso   1.00
C54    C     0.87707   0.84516   0.40293   0.00000  Uiso   1.00
C55    C     0.96216   0.79380   0.63338   0.00000  Uiso   1.00
C56    C     0.86841   0.93568   0.98502   0.00000  Uiso   1.00
C57    C     0.90291   0.98508   0.99260   0.00000  Uiso   1.00
C58    C     0.00546   0.99471   0.98007   0.00000  Uiso   1.00
C59    C     0.16481   0.02991   0.96575   0.00000  Uiso   1.00
C60    C     0.88016   0.84606   0.96050   0.00000  Uiso   1.00
C61    C     0.73752   0.84784   0.81703   0.00000  Uiso   1.00
C62    C     0.67479   0.81584   0.67949   0.00000  Uiso   1.00
C63    C     0.54396   0.82362   0.56188   0.00000  Uiso   1.00
C64    C     0.88618   0.84153   0.12330   0.00000  Uiso   1.00
C65    C     0.94846   0.80422   0.24329   0.00000  Uiso   1.00
C66    C     0.94280   0.80668   0.38352   0.00000  Uiso   1.00
C67    C     0.93402   0.89727   0.96564   0.00000  Uiso   1.00
C68    C     0.03654   0.90684   0.95312   0.00000  Uiso   1.00
C69    C     0.07119   0.95623   0.96067   0.00000  Uiso   1.00
H70    H     0.70829   0.94668   0.01127   0.00000  Uiso   1.00
H71    H     0.49040   0.92381   0.73401   0.00000  Uiso   1.00
H72    H     0.76405   0.91219   0.29773   0.00000  Uiso   1.00
H73    H     0.85211   0.01479   0.00759   0.00000  Uiso   1.00
H74    H     0.27776   0.88149   0.41811   0.00000  Uiso   1.00
H75    H     0.85479   0.85700   0.60676   0.00000  Uiso   1.00
H76    H     0.04049   0.07337   0.99497   0.00000  Uiso   1.00
H77    H     0.93125   0.81616   0.94542   0.00000  Uiso   1.00
H78    H     0.72559   0.78612   0.66454   0.00000  Uiso   1.00
H79    H     0.99923   0.77450   0.22826   0.00000  Uiso   1.00
H80    H     0.08729   0.87710   0.93813   0.00000  Uiso   1.00
H81    H     0.46864   0.76974   0.36173   0.00000  Uiso   1.00
H82    H     0.04568   0.74525   0.55039   0.00000  Uiso   1.00
H83    H     0.23137   0.96161   0.93859   0.00000  Uiso   1.00
O84    O     0.23388   0.80820   0.20636   0.00000  Uiso   1.00
O85    O     0.99095   0.77608   0.76585   0.00000  Uiso   1.00
O86    O     0.23457   0.05994   0.96318   0.00000  Uiso   1.00
N87    N     0.35091   0.85932   0.44337   0.00000  Uiso   1.00
N88    N     0.89039   0.83642   0.55468   0.00000  Uiso   1.00
N89    N     0.06402   0.03870   0.98275   0.00000  Uiso   1.00
N90    N     0.45363   0.79919   0.41303   0.00000  Uiso   1.00
N91    N     0.99310   0.77629   0.52434   0.00000  Uiso   1.00
N92    N     0.16673   0.97857   0.95241   0.00000  Uiso   1.00
C93    C     0.25937   0.58322   0.49617   0.00000  Uiso   1.00
C94    C     0.17190   0.61375   0.33639   0.00000  Uiso   1.00
C95    C     0.04115   0.60592   0.21896   0.00000  Uiso   1.00
C96    C     0.97823   0.63790   0.08130   0.00000  Uiso   1.00
C97    C     0.83243   0.67948   0.83619   0.00000  Uiso   1.00
C98    C     0.32057   0.62006   0.64267   0.00000  Uiso   1.00
C99    C     0.31482   0.61754   0.78276   0.00000  Uiso   1.00
C100   C     0.37707   0.65484   0.90293   0.00000  Uiso   1.00
C101   C     0.46216   0.70620   0.13338   0.00000  Uiso   1.00
C102   C     0.36841   0.56432   0.48502   0.00000  Uiso   1.00
C103   C     0.40291   0.51492   0.49260   0.00000  Uiso   1.00
C104   C     0.50546   0.50529   0.48007   0.00000  Uiso   1.00
C105   C     0.66481   0.47009   0.46575   0.00000  Uiso   1.00
C106   C     0.38016   0.65394   0.46050   0.00000  Uiso   1.00
C107   C     0.23752   0.65216   0.31703   0.00000  Uiso   1.00
C108   C     0.17479   0.68416   0.17949   0.00000  Uiso   1.00
C109   C     0.04396   0.67638   0.06188   0.00000  Uiso   1.00
C110   C     0.38618   0.65847   0.62330   0.00000  Uiso   1.00
C111   C     0.44846   0.69578   0.74329   0.00000  Uiso   1.00
C112   C     0.44280   0.69332   0.88352   0.00000  Uiso   1.00
C113   C     0.43402   0.60273   0.46564   0.00000  Uiso   1.00
C114   C     0.53654   0.59316   0.45312   0.00000  Uiso   1.00
C115   C     0.57119   0.54377   0.46067   0.00000  Uiso   1.00
H116   H     0.20829   0.55332   0.51127   0.00000  Uiso   1.00
H117   H     0.99040   0.57619   0.23401   0.00000  Uiso   1.00
H118   H     0.26405   0.58781   0.79773   0.00000  Uiso   1.00
H119   H     0.35211   0.48521   0.50759   0.00000  Uiso   1.00
H120   H     0.77776   0.61851   0.91811   0.00000  Uiso   1.00
H121   H     0.35479   0.64300   0.10676   0.00000  Uiso   1.00
H122   H     0.54049   0.42663   0.49497   0.00000  Uiso   1.00
H123   H     0.43125   0.68384   0.44542   0.00000  Uiso   1.00
H124   H     0.22559   0.71388   0.16454   0.00000  Uiso   1.00
H125   H     0.49923   0.72550   0.72826   0.00000  Uiso   1.00
H126   H     0.58729   0.62290   0.43813   0.00000  Uiso   1.00
H127   H     0.96864   0.73026   0.86173   0.00000  Uiso   1.00
H128   H     0.54568   0.75475   0.05039   0.00000  Uiso   1.00
H129   H     0.73137   0.53839   0.43859   0.00000  Uiso   1.00
O130   O     0.73388   0.69180   0.70636   0.00000  Uiso   1.00
O131   O     0.49095   0.72392   0.26585   0.00000  Uiso   1.00
O132   O     0.73457   0.44006   0.46318   0.00000  Uiso   1.00
N133   N     0.85091   0.64068   0.94337   0.00000  Uiso   1.00
N134   N     0.39039   0.66358   0.05468   0.00000  Uiso   1.00
N135   N     0.56402   0.46130   0.48275   0.00000  Uiso   1.00
N136   N     0.95363   0.70081   0.91303   0.00000  Uiso   1.00
N137   N     0.49310   0.72371   0.02434   0.00000  Uiso   1.00
N138   N     0.66673   0.52143   0.45241   0.00000  Uiso   1.00
C139   C     0.75937   0.08322   0.49617   0.00000  Uiso   1.00
C140   C     0.67190   0.11375   0.33639   0.00000  Uiso   1.00
C141   C     0.54115   0.10592   0.21896   0.00000  Uiso   1.00
C142   C     0.47823   0.13790   0.08130   0.00000  Uiso   1.00
C143   C     0.33243   0.17948   0.83619   0.00000  Uiso   1.00
C144   C     0.82057   0.12006   0.64267   0.00000  Uiso   1.00
C145   C     0.81482   0.11754   0.78276   0.00000  Uiso   1.00
C146   C     0.87707   0.15484   0.90293   0.00000  Uiso   1.00
C147   C     0.96216   0.20620   0.13338   0.00000  Uiso   1.00
C148   C     0.86841   0.06432   0.48502   0.00000  Uiso   1.00
C149   C     0.90291   0.01492   0.49260   0.00000  Uiso   1.00
C150   C     0.00546   0.00529   0.48007   0.00000  Uiso   1.00
C151   C     0.16481   0.97009   0.46575   0.00000  Uiso   1.00
C152   C     0.88016   0.15394   0.46050   0.00000  Uiso   1.00
C153   C     0.73752   0.15216   0.31703   0.00000  Uiso   1.00
C154   C     0.67479   0.18416   0.17949   0.00000  Uiso   1.00
C155   C     0.54396   0.17638   0.06188   0.00000  Uiso   1.00
C156   C     0.88618   0.15847   0.62330   0.00000  Uiso   1.00
C157   C     0.94846   0.19578   0.74329   0.00000  Uiso   1.00
C158   C     0.94280   0.19332   0.88352   0.00000  Uiso   1.00
C159   C     0.93402   0.10273   0.46564   0.00000  Uiso   1.00
C160   C     0.03654   0.09316   0.45312   0.00000  Uiso   1.00
C161   C     0.07119   0.04377   0.46067   0.00000  Uiso   1.00
H162   H     0.70829   0.05332   0.51127   0.00000  Uiso   1.00
H163   H     0.49040   0.07619   0.23401   0.00000  Uiso   1.00
H164   H     0.76405   0.08781   0.79773   0.00000  Uiso   1.00
H165   H     0.85211   0.98521   0.50759   0.00000  Uiso   1.00
H166   H     0.27776   0.11851   0.91811   0.00000  Uiso   1.00
H167   H     0.85479   0.14300   0.10676   0.00000  Uiso   1.00
H168   H     0.04049   0.92663   0.49497   0.00000  Uiso   1.00
H169   H     0.93125   0.18384   0.44542   0.00000  Uiso   1.00
H170   H     0.72559   0.21388   0.16454   0.00000  Uiso   1.00
H171   H     0.99923   0.22550   0.72826   0.00000  Uiso   1.00
H172   H     0.08729   0.12290   0.43813   0.00000  Uiso   1.00
H173   H     0.46864   0.23026   0.86173   0.00000  Uiso   1.00
H174   H     0.04568   0.25475   0.05039   0.00000  Uiso   1.00
H175   H     0.23137   0.03839   0.43859   0.00000  Uiso   1.00
O176   O     0.23388   0.19180   0.70636   0.00000  Uiso   1.00
O177   O     0.99095   0.22392   0.26585   0.00000  Uiso   1.00
O178   O     0.23457   0.94006   0.46318   0.00000  Uiso   1.00
N179   N     0.35091   0.14068   0.94337   0.00000  Uiso   1.00
N180   N     0.89039   0.16358   0.05468   0.00000  Uiso   1.00
N181   N     0.06402   0.96130   0.48275   0.00000  Uiso   1.00
N182   N     0.45363   0.20081   0.91303   0.00000  Uiso   1.00
N183   N     0.99310   0.22371   0.02434   0.00000  Uiso   1.00
N184   N     0.16673   0.02143   0.45241   0.00000  Uiso   1.00
