data_job_05556
_audit_creation_date              2018-12-19
_audit_creation_method            'Materials Studio'
_symmetry_space_group_name_H-M    'P1'
_symmetry_Int_Tables_number       1
_symmetry_cell_setting            triclinic
loop_
_symmetry_equiv_pos_as_xyz
  x,y,z
_cell_length_a                    9.5392
_cell_length_b                    9.5392
_cell_length_c                    62.3259
_cell_angle_alpha                 90.0000
_cell_angle_beta                  90.0000
_cell_angle_gamma                 90.0000
loop_
_atom_site_label
_atom_site_type_symbol
_atom_site_fract_x
_atom_site_fract_y
_atom_site_fract_z
_atom_site_U_iso_or_equiv
_atom_site_adp_type
_atom_site_occupancy
C1     C     0.96441   0.55379   0.45393   0.00000  Uiso   1.00
C2     C     0.92070   0.69014   0.46481   0.00000  Uiso   1.00
C3     C     0.82488   0.70233   0.48146   0.00000  Uiso   1.00
C4     C     0.79913   0.83633   0.48921   0.00000  Uiso   1.00
C5     C     0.72091   0.03019   0.50740   0.00000  Uiso   1.00
C6     C     0.93449   0.57363   0.43009   0.00000  Uiso   1.00
C7     C     0.85028   0.48785   0.41754   0.00000  Uiso   1.00
C8     C     0.83616   0.52377   0.39607   0.00000  Uiso   1.00
C9     C     0.77943   0.53668   0.36035   0.00000  Uiso   1.00
C10    C     0.12347   0.54583   0.45603   0.00000  Uiso   1.00
C11    C     0.19817   0.43664   0.46530   0.00000  Uiso   1.00
C12    C     0.34317   0.44914   0.46566   0.00000  Uiso   1.00
C13    C     0.57986   0.41888   0.47023   0.00000  Uiso   1.00
C14    C     0.08910   0.77010   0.43809   0.00000  Uiso   1.00
C15    C     0.98843   0.80763   0.45620   0.00000  Uiso   1.00
C16    C     0.96283   0.94165   0.46393   0.00000  Uiso   1.00
C17    C     0.86698   0.95404   0.48059   0.00000  Uiso   1.00
C18    C     0.00221   0.69112   0.42148   0.00000  Uiso   1.00
C19    C     0.98823   0.72717   0.40001   0.00000  Uiso   1.00
C20    C     0.90401   0.64147   0.38744   0.00000  Uiso   1.00
C21    C     0.19120   0.66332   0.44743   0.00000  Uiso   1.00
C22    C     0.33611   0.67598   0.44777   0.00000  Uiso   1.00
C23    C     0.41101   0.56684   0.45704   0.00000  Uiso   1.00
H24    H     0.91169   0.46231   0.46063   0.00000  Uiso   1.00
H25    H     0.77248   0.61138   0.48811   0.00000  Uiso   1.00
H26    H     0.79790   0.39692   0.42421   0.00000  Uiso   1.00
H27    H     0.14573   0.34574   0.47196   0.00000  Uiso   1.00
H28    H     0.64798   0.82847   0.51478   0.00000  Uiso   1.00
H29    H     0.70160   0.37625   0.38004   0.00000  Uiso   1.00
H30    H     0.43507   0.26831   0.48073   0.00000  Uiso   1.00
H31    H     0.14182   0.86157   0.43138   0.00000  Uiso   1.00
H32    H     0.01525   0.03256   0.45726   0.00000  Uiso   1.00
H33    H     0.04066   0.81810   0.39336   0.00000  Uiso   1.00
H34    H     0.38848   0.76691   0.44111   0.00000  Uiso   1.00
H35    H     0.84501   0.17031   0.48975   0.00000  Uiso   1.00
H36    H     0.89863   0.71808   0.35500   0.00000  Uiso   1.00
H37    H     0.63210   0.61015   0.45569   0.00000  Uiso   1.00
O38    O     0.65904   0.10466   0.51981   0.00000  Uiso   1.00
O39    O     0.72941   0.51135   0.34303   0.00000  Uiso   1.00
O40    O     0.69170   0.36974   0.47513   0.00000  Uiso   1.00
N41    N     0.71174   0.88545   0.50534   0.00000  Uiso   1.00
N42    N     0.76186   0.46266   0.37936   0.00000  Uiso   1.00
N43    N     0.44759   0.36173   0.47349   0.00000  Uiso   1.00
N44    N     0.81776   0.06939   0.49187   0.00000  Uiso   1.00
N45    N     0.86788   0.64661   0.36589   0.00000  Uiso   1.00
N46    N     0.55361   0.54567   0.46002   0.00000  Uiso   1.00
C47    C     0.03559   0.44621   0.95393   0.00000  Uiso   1.00
C48    C     0.07930   0.30986   0.96481   0.00000  Uiso   1.00
C49    C     0.17512   0.29767   0.98146   0.00000  Uiso   1.00
C50    C     0.20087   0.16367   0.98921   0.00000  Uiso   1.00
C51    C     0.27909   0.96981   0.00740   0.00000  Uiso   1.00
C52    C     0.06551   0.42637   0.93009   0.00000  Uiso   1.00
C53    C     0.14972   0.51215   0.91754   0.00000  Uiso   1.00
C54    C     0.16384   0.47623   0.89607   0.00000  Uiso   1.00
C55    C     0.22057   0.46332   0.86035   0.00000  Uiso   1.00
C56    C     0.87653   0.45417   0.95603   0.00000  Uiso   1.00
C57    C     0.80183   0.56336   0.96530   0.00000  Uiso   1.00
C58    C     0.65683   0.55086   0.96566   0.00000  Uiso   1.00
C59    C     0.42014   0.58112   0.97023   0.00000  Uiso   1.00
C60    C     0.91090   0.22990   0.93809   0.00000  Uiso   1.00
C61    C     0.01157   0.19237   0.95620   0.00000  Uiso   1.00
C62    C     0.03717   0.05835   0.96393   0.00000  Uiso   1.00
C63    C     0.13302   0.04596   0.98059   0.00000  Uiso   1.00
C64    C     0.99779   0.30888   0.92148   0.00000  Uiso   1.00
C65    C     0.01177   0.27283   0.90001   0.00000  Uiso   1.00
C66    C     0.09599   0.35853   0.88744   0.00000  Uiso   1.00
C67    C     0.80880   0.33668   0.94743   0.00000  Uiso   1.00
C68    C     0.66389   0.32402   0.94777   0.00000  Uiso   1.00
C69    C     0.58899   0.43316   0.95704   0.00000  Uiso   1.00
H70    H     0.08831   0.53769   0.96063   0.00000  Uiso   1.00
H71    H     0.22752   0.38862   0.98811   0.00000  Uiso   1.00
H72    H     0.20210   0.60308   0.92421   0.00000  Uiso   1.00
H73    H     0.85427   0.65426   0.97196   0.00000  Uiso   1.00
H74    H     0.35202   0.17153   0.01478   0.00000  Uiso   1.00
H75    H     0.29840   0.62375   0.88004   0.00000  Uiso   1.00
H76    H     0.56493   0.73169   0.98073   0.00000  Uiso   1.00
H77    H     0.85818   0.13843   0.93138   0.00000  Uiso   1.00
H78    H     0.98475   0.96744   0.95726   0.00000  Uiso   1.00
H79    H     0.95934   0.18190   0.89336   0.00000  Uiso   1.00
H80    H     0.61152   0.23309   0.94111   0.00000  Uiso   1.00
H81    H     0.15499   0.82969   0.98975   0.00000  Uiso   1.00
H82    H     0.10137   0.28192   0.85500   0.00000  Uiso   1.00
H83    H     0.36790   0.38985   0.95569   0.00000  Uiso   1.00
O84    O     0.34096   0.89534   0.01981   0.00000  Uiso   1.00
O85    O     0.27059   0.48865   0.84303   0.00000  Uiso   1.00
O86    O     0.30830   0.63026   0.97513   0.00000  Uiso   1.00
N87    N     0.28826   0.11455   0.00534   0.00000  Uiso   1.00
N88    N     0.23814   0.53734   0.87936   0.00000  Uiso   1.00
N89    N     0.55241   0.63827   0.97349   0.00000  Uiso   1.00
N90    N     0.18224   0.93061   0.99187   0.00000  Uiso   1.00
N91    N     0.13212   0.35339   0.86589   0.00000  Uiso   1.00
N92    N     0.44639   0.45433   0.96002   0.00000  Uiso   1.00
C93    C     0.44621   0.96441   0.70393   0.00000  Uiso   1.00
C94    C     0.30986   0.92070   0.71481   0.00000  Uiso   1.00
C95    C     0.29767   0.82488   0.73146   0.00000  Uiso   1.00
C96    C     0.16367   0.79913   0.73921   0.00000  Uiso   1.00
C97    C     0.96981   0.72091   0.75740   0.00000  Uiso   1.00
C98    C     0.42637   0.93449   0.68009   0.00000  Uiso   1.00
C99    C     0.51215   0.85028   0.66754   0.00000  Uiso   1.00
C100   C     0.47623   0.83616   0.64607   0.00000  Uiso   1.00
C101   C     0.46332   0.77943   0.61035   0.00000  Uiso   1.00
C102   C     0.45417   0.12347   0.70603   0.00000  Uiso   1.00
C103   C     0.56336   0.19817   0.71530   0.00000  Uiso   1.00
C104   C     0.55086   0.34317   0.71566   0.00000  Uiso   1.00
C105   C     0.58112   0.57986   0.72023   0.00000  Uiso   1.00
C106   C     0.22990   0.08910   0.68809   0.00000  Uiso   1.00
C107   C     0.19237   0.98843   0.70620   0.00000  Uiso   1.00
C108   C     0.05835   0.96283   0.71393   0.00000  Uiso   1.00
C109   C     0.04596   0.86698   0.73059   0.00000  Uiso   1.00
C110   C     0.30888   0.00221   0.67148   0.00000  Uiso   1.00
C111   C     0.27283   0.98823   0.65001   0.00000  Uiso   1.00
C112   C     0.35853   0.90401   0.63744   0.00000  Uiso   1.00
C113   C     0.33668   0.19120   0.69743   0.00000  Uiso   1.00
C114   C     0.32402   0.33611   0.69777   0.00000  Uiso   1.00
C115   C     0.43316   0.41101   0.70704   0.00000  Uiso   1.00
H116   H     0.53769   0.91169   0.71063   0.00000  Uiso   1.00
H117   H     0.38862   0.77248   0.73811   0.00000  Uiso   1.00
H118   H     0.60308   0.79790   0.67421   0.00000  Uiso   1.00
H119   H     0.65426   0.14573   0.72196   0.00000  Uiso   1.00
H120   H     0.17153   0.64798   0.76478   0.00000  Uiso   1.00
H121   H     0.62375   0.70160   0.63004   0.00000  Uiso   1.00
H122   H     0.73169   0.43507   0.73073   0.00000  Uiso   1.00
H123   H     0.13843   0.14182   0.68138   0.00000  Uiso   1.00
H124   H     0.96744   0.01525   0.70726   0.00000  Uiso   1.00
H125   H     0.18190   0.04066   0.64336   0.00000  Uiso   1.00
H126   H     0.23309   0.38848   0.69111   0.00000  Uiso   1.00
H127   H     0.82969   0.84501   0.73975   0.00000  Uiso   1.00
H128   H     0.28192   0.89863   0.60500   0.00000  Uiso   1.00
H129   H     0.38985   0.63210   0.70569   0.00000  Uiso   1.00
O130   O     0.89534   0.65904   0.76981   0.00000  Uiso   1.00
O131   O     0.48865   0.72941   0.59303   0.00000  Uiso   1.00
O132   O     0.63026   0.69170   0.72513   0.00000  Uiso   1.00
N133   N     0.11455   0.71174   0.75534   0.00000  Uiso   1.00
N134   N     0.53734   0.76186   0.62936   0.00000  Uiso   1.00
N135   N     0.63827   0.44759   0.72349   0.00000  Uiso   1.00
N136   N     0.93061   0.81776   0.74187   0.00000  Uiso   1.00
N137   N     0.35339   0.86788   0.61589   0.00000  Uiso   1.00
N138   N     0.45433   0.55361   0.71002   0.00000  Uiso   1.00
C139   C     0.55379   0.03559   0.20393   0.00000  Uiso   1.00
C140   C     0.69014   0.07930   0.21481   0.00000  Uiso   1.00
C141   C     0.70233   0.17512   0.23146   0.00000  Uiso   1.00
C142   C     0.83633   0.20087   0.23921   0.00000  Uiso   1.00
C143   C     0.03019   0.27909   0.25740   0.00000  Uiso   1.00
C144   C     0.57363   0.06551   0.18009   0.00000  Uiso   1.00
C145   C     0.48785   0.14972   0.16754   0.00000  Uiso   1.00
C146   C     0.52377   0.16384   0.14607   0.00000  Uiso   1.00
C147   C     0.53668   0.22057   0.11035   0.00000  Uiso   1.00
C148   C     0.54583   0.87653   0.20603   0.00000  Uiso   1.00
C149   C     0.43664   0.80183   0.21530   0.00000  Uiso   1.00
C150   C     0.44914   0.65683   0.21566   0.00000  Uiso   1.00
C151   C     0.41888   0.42014   0.22023   0.00000  Uiso   1.00
C152   C     0.77010   0.91090   0.18809   0.00000  Uiso   1.00
C153   C     0.80763   0.01157   0.20620   0.00000  Uiso   1.00
C154   C     0.94165   0.03717   0.21393   0.00000  Uiso   1.00
C155   C     0.95404   0.13302   0.23059   0.00000  Uiso   1.00
C156   C     0.69112   0.99779   0.17148   0.00000  Uiso   1.00
C157   C     0.72717   0.01177   0.15001   0.00000  Uiso   1.00
C158   C     0.64147   0.09599   0.13744   0.00000  Uiso   1.00
C159   C     0.66332   0.80880   0.19743   0.00000  Uiso   1.00
C160   C     0.67598   0.66389   0.19777   0.00000  Uiso   1.00
C161   C     0.56684   0.58899   0.20704   0.00000  Uiso   1.00
H162   H     0.46231   0.08831   0.21063   0.00000  Uiso   1.00
H163   H     0.61138   0.22752   0.23811   0.00000  Uiso   1.00
H164   H     0.39692   0.20210   0.17421   0.00000  Uiso   1.00
H165   H     0.34574   0.85427   0.22196   0.00000  Uiso   1.00
H166   H     0.82847   0.35202   0.26478   0.00000  Uiso   1.00
H167   H     0.37625   0.29840   0.13004   0.00000  Uiso   1.00
H168   H     0.26831   0.56493   0.23073   0.00000  Uiso   1.00
H169   H     0.86157   0.85818   0.18138   0.00000  Uiso   1.00
H170   H     0.03256   0.98475   0.20726   0.00000  Uiso   1.00
H171   H     0.81810   0.95934   0.14336   0.00000  Uiso   1.00
H172   H     0.76691   0.61152   0.19111   0.00000  Uiso   1.00
H173   H     0.17031   0.15499   0.23975   0.00000  Uiso   1.00
H174   H     0.71808   0.10137   0.10500   0.00000  Uiso   1.00
H175   H     0.61015   0.36790   0.20569   0.00000  Uiso   1.00
O176   O     0.10466   0.34096   0.26981   0.00000  Uiso   1.00
O177   O     0.51135   0.27059   0.09303   0.00000  Uiso   1.00
O178   O     0.36974   0.30830   0.22513   0.00000  Uiso   1.00
N179   N     0.88545   0.28826   0.25534   0.00000  Uiso   1.00
N180   N     0.46266   0.23814   0.12936   0.00000  Uiso   1.00
N181   N     0.36173   0.55241   0.22349   0.00000  Uiso   1.00
N182   N     0.06939   0.18224   0.24187   0.00000  Uiso   1.00
N183   N     0.64661   0.13212   0.11589   0.00000  Uiso   1.00
N184   N     0.54567   0.44639   0.21002   0.00000  Uiso   1.00
C185   C     0.03559   0.55379   0.54607   0.00000  Uiso   1.00
C186   C     0.07930   0.69014   0.53519   0.00000  Uiso   1.00
C187   C     0.17512   0.70233   0.51854   0.00000  Uiso   1.00
C188   C     0.20087   0.83633   0.51079   0.00000  Uiso   1.00
C189   C     0.27909   0.03019   0.49260   0.00000  Uiso   1.00
C190   C     0.06551   0.57363   0.56991   0.00000  Uiso   1.00
C191   C     0.14972   0.48785   0.58246   0.00000  Uiso   1.00
C192   C     0.16384   0.52377   0.60393   0.00000  Uiso   1.00
C193   C     0.22057   0.53668   0.63965   0.00000  Uiso   1.00
C194   C     0.87653   0.54583   0.54397   0.00000  Uiso   1.00
C195   C     0.80183   0.43664   0.53470   0.00000  Uiso   1.00
C196   C     0.65683   0.44914   0.53434   0.00000  Uiso   1.00
C197   C     0.42014   0.41888   0.52977   0.00000  Uiso   1.00
C198   C     0.91090   0.77010   0.56191   0.00000  Uiso   1.00
C199   C     0.01157   0.80763   0.54380   0.00000  Uiso   1.00
C200   C     0.03717   0.94165   0.53607   0.00000  Uiso   1.00
C201   C     0.13302   0.95404   0.51941   0.00000  Uiso   1.00
C202   C     0.99779   0.69112   0.57852   0.00000  Uiso   1.00
C203   C     0.01177   0.72717   0.59999   0.00000  Uiso   1.00
C204   C     0.09599   0.64147   0.61256   0.00000  Uiso   1.00
C205   C     0.80880   0.66332   0.55257   0.00000  Uiso   1.00
C206   C     0.66389   0.67598   0.55223   0.00000  Uiso   1.00
C207   C     0.58899   0.56684   0.54296   0.00000  Uiso   1.00
H208   H     0.08831   0.46231   0.53937   0.00000  Uiso   1.00
H209   H     0.22752   0.61138   0.51189   0.00000  Uiso   1.00
H210   H     0.20210   0.39692   0.57579   0.00000  Uiso   1.00
H211   H     0.85427   0.34574   0.52804   0.00000  Uiso   1.00
H212   H     0.35202   0.82847   0.48522   0.00000  Uiso   1.00
H213   H     0.29840   0.37625   0.61996   0.00000  Uiso   1.00
H214   H     0.56493   0.26831   0.51927   0.00000  Uiso   1.00
H215   H     0.85818   0.86157   0.56862   0.00000  Uiso   1.00
H216   H     0.98475   0.03256   0.54274   0.00000  Uiso   1.00
H217   H     0.95934   0.81810   0.60664   0.00000  Uiso   1.00
H218   H     0.61152   0.76691   0.55889   0.00000  Uiso   1.00
H219   H     0.15499   0.17031   0.51025   0.00000  Uiso   1.00
H220   H     0.10137   0.71808   0.64500   0.00000  Uiso   1.00
H221   H     0.36790   0.61015   0.54431   0.00000  Uiso   1.00
O222   O     0.34096   0.10466   0.48019   0.00000  Uiso   1.00
O223   O     0.27059   0.51135   0.65697   0.00000  Uiso   1.00
O224   O     0.30830   0.36974   0.52487   0.00000  Uiso   1.00
N225   N     0.28826   0.88545   0.49466   0.00000  Uiso   1.00
N226   N     0.23814   0.46266   0.62064   0.00000  Uiso   1.00
N227   N     0.55241   0.36173   0.52651   0.00000  Uiso   1.00
N228   N     0.18224   0.06939   0.50813   0.00000  Uiso   1.00
N229   N     0.13212   0.64661   0.63411   0.00000  Uiso   1.00
N230   N     0.44639   0.54567   0.53998   0.00000  Uiso   1.00
C231   C     0.96441   0.44621   0.04607   0.00000  Uiso   1.00
C232   C     0.92070   0.30986   0.03519   0.00000  Uiso   1.00
C233   C     0.82488   0.29767   0.01854   0.00000  Uiso   1.00
C234   C     0.79913   0.16367   0.01079   0.00000  Uiso   1.00
C235   C     0.72091   0.96981   0.99260   0.00000  Uiso   1.00
C236   C     0.93449   0.42637   0.06991   0.00000  Uiso   1.00
C237   C     0.85028   0.51215   0.08246   0.00000  Uiso   1.00
C238   C     0.83616   0.47623   0.10393   0.00000  Uiso   1.00
C239   C     0.77943   0.46332   0.13965   0.00000  Uiso   1.00
C240   C     0.12347   0.45417   0.04397   0.00000  Uiso   1.00
C241   C     0.19817   0.56336   0.03470   0.00000  Uiso   1.00
C242   C     0.34317   0.55086   0.03434   0.00000  Uiso   1.00
C243   C     0.57986   0.58112   0.02977   0.00000  Uiso   1.00
C244   C     0.08910   0.22990   0.06191   0.00000  Uiso   1.00
C245   C     0.98843   0.19237   0.04380   0.00000  Uiso   1.00
C246   C     0.96283   0.05835   0.03607   0.00000  Uiso   1.00
C247   C     0.86698   0.04596   0.01941   0.00000  Uiso   1.00
C248   C     0.00221   0.30888   0.07852   0.00000  Uiso   1.00
C249   C     0.98823   0.27283   0.09999   0.00000  Uiso   1.00
C250   C     0.90401   0.35853   0.11256   0.00000  Uiso   1.00
C251   C     0.19120   0.33668   0.05257   0.00000  Uiso   1.00
C252   C     0.33611   0.32402   0.05223   0.00000  Uiso   1.00
C253   C     0.41101   0.43316   0.04296   0.00000  Uiso   1.00
H254   H     0.91169   0.53769   0.03937   0.00000  Uiso   1.00
H255   H     0.77248   0.38862   0.01189   0.00000  Uiso   1.00
H256   H     0.79790   0.60308   0.07579   0.00000  Uiso   1.00
H257   H     0.14573   0.65426   0.02804   0.00000  Uiso   1.00
H258   H     0.64798   0.17153   0.98522   0.00000  Uiso   1.00
H259   H     0.70160   0.62375   0.11996   0.00000  Uiso   1.00
H260   H     0.43507   0.73169   0.01927   0.00000  Uiso   1.00
H261   H     0.14182   0.13843   0.06862   0.00000  Uiso   1.00
H262   H     0.01525   0.96744   0.04274   0.00000  Uiso   1.00
H263   H     0.04066   0.18190   0.10664   0.00000  Uiso   1.00
H264   H     0.38848   0.23309   0.05889   0.00000  Uiso   1.00
H265   H     0.84501   0.82969   0.01025   0.00000  Uiso   1.00
H266   H     0.89863   0.28192   0.14500   0.00000  Uiso   1.00
H267   H     0.63210   0.38985   0.04431   0.00000  Uiso   1.00
O268   O     0.65904   0.89534   0.98019   0.00000  Uiso   1.00
O269   O     0.72941   0.48865   0.15697   0.00000  Uiso   1.00
O270   O     0.69170   0.63026   0.02487   0.00000  Uiso   1.00
N271   N     0.71174   0.11455   0.99466   0.00000  Uiso   1.00
N272   N     0.76186   0.53734   0.12064   0.00000  Uiso   1.00
N273   N     0.44759   0.63827   0.02651   0.00000  Uiso   1.00
N274   N     0.81776   0.93061   0.00813   0.00000  Uiso   1.00
N275   N     0.86788   0.35339   0.13411   0.00000  Uiso   1.00
N276   N     0.55361   0.45433   0.03998   0.00000  Uiso   1.00
C277   C     0.55379   0.96441   0.29607   0.00000  Uiso   1.00
C278   C     0.69014   0.92070   0.28519   0.00000  Uiso   1.00
C279   C     0.70233   0.82488   0.26854   0.00000  Uiso   1.00
C280   C     0.83633   0.79913   0.26079   0.00000  Uiso   1.00
C281   C     0.03019   0.72091   0.24260   0.00000  Uiso   1.00
C282   C     0.57363   0.93449   0.31991   0.00000  Uiso   1.00
C283   C     0.48785   0.85028   0.33246   0.00000  Uiso   1.00
C284   C     0.52377   0.83616   0.35393   0.00000  Uiso   1.00
C285   C     0.53668   0.77943   0.38965   0.00000  Uiso   1.00
C286   C     0.54583   0.12347   0.29397   0.00000  Uiso   1.00
C287   C     0.43664   0.19817   0.28470   0.00000  Uiso   1.00
C288   C     0.44914   0.34317   0.28434   0.00000  Uiso   1.00
C289   C     0.41888   0.57986   0.27977   0.00000  Uiso   1.00
C290   C     0.77010   0.08910   0.31191   0.00000  Uiso   1.00
C291   C     0.80763   0.98843   0.29380   0.00000  Uiso   1.00
C292   C     0.94165   0.96283   0.28607   0.00000  Uiso   1.00
C293   C     0.95404   0.86698   0.26941   0.00000  Uiso   1.00
C294   C     0.69112   0.00221   0.32852   0.00000  Uiso   1.00
C295   C     0.72717   0.98823   0.34999   0.00000  Uiso   1.00
C296   C     0.64147   0.90401   0.36256   0.00000  Uiso   1.00
C297   C     0.66332   0.19120   0.30257   0.00000  Uiso   1.00
C298   C     0.67598   0.33611   0.30223   0.00000  Uiso   1.00
C299   C     0.56684   0.41101   0.29296   0.00000  Uiso   1.00
H300   H     0.46231   0.91169   0.28937   0.00000  Uiso   1.00
H301   H     0.61138   0.77248   0.26189   0.00000  Uiso   1.00
H302   H     0.39692   0.79790   0.32579   0.00000  Uiso   1.00
H303   H     0.34574   0.14573   0.27804   0.00000  Uiso   1.00
H304   H     0.82847   0.64798   0.23522   0.00000  Uiso   1.00
H305   H     0.37625   0.70160   0.36996   0.00000  Uiso   1.00
H306   H     0.26831   0.43507   0.26927   0.00000  Uiso   1.00
H307   H     0.86157   0.14182   0.31862   0.00000  Uiso   1.00
H308   H     0.03256   0.01525   0.29274   0.00000  Uiso   1.00
H309   H     0.81810   0.04066   0.35664   0.00000  Uiso   1.00
H310   H     0.76691   0.38848   0.30889   0.00000  Uiso   1.00
H311   H     0.17031   0.84501   0.26025   0.00000  Uiso   1.00
H312   H     0.71808   0.89863   0.39500   0.00000  Uiso   1.00
H313   H     0.61015   0.63210   0.29431   0.00000  Uiso   1.00
O314   O     0.10466   0.65904   0.23019   0.00000  Uiso   1.00
O315   O     0.51135   0.72941   0.40697   0.00000  Uiso   1.00
O316   O     0.36974   0.69170   0.27487   0.00000  Uiso   1.00
N317   N     0.88545   0.71174   0.24466   0.00000  Uiso   1.00
N318   N     0.46266   0.76186   0.37064   0.00000  Uiso   1.00
N319   N     0.36173   0.44759   0.27651   0.00000  Uiso   1.00
N320   N     0.06939   0.81776   0.25813   0.00000  Uiso   1.00
N321   N     0.64661   0.86788   0.38411   0.00000  Uiso   1.00
N322   N     0.54567   0.55361   0.28998   0.00000  Uiso   1.00
C323   C     0.44621   0.03559   0.79607   0.00000  Uiso   1.00
C324   C     0.30986   0.07930   0.78519   0.00000  Uiso   1.00
C325   C     0.29767   0.17512   0.76854   0.00000  Uiso   1.00
C326   C     0.16367   0.20087   0.76079   0.00000  Uiso   1.00
C327   C     0.96981   0.27909   0.74260   0.00000  Uiso   1.00
C328   C     0.42637   0.06551   0.81991   0.00000  Uiso   1.00
C329   C     0.51215   0.14972   0.83246   0.00000  Uiso   1.00
C330   C     0.47623   0.16384   0.85393   0.00000  Uiso   1.00
C331   C     0.46332   0.22057   0.88965   0.00000  Uiso   1.00
C332   C     0.45417   0.87653   0.79397   0.00000  Uiso   1.00
C333   C     0.56336   0.80183   0.78470   0.00000  Uiso   1.00
C334   C     0.55086   0.65683   0.78434   0.00000  Uiso   1.00
C335   C     0.58112   0.42014   0.77977   0.00000  Uiso   1.00
C336   C     0.22990   0.91090   0.81191   0.00000  Uiso   1.00
C337   C     0.19237   0.01157   0.79380   0.00000  Uiso   1.00
C338   C     0.05835   0.03717   0.78607   0.00000  Uiso   1.00
C339   C     0.04596   0.13302   0.76941   0.00000  Uiso   1.00
C340   C     0.30888   0.99779   0.82852   0.00000  Uiso   1.00
C341   C     0.27283   0.01177   0.84999   0.00000  Uiso   1.00
C342   C     0.35853   0.09599   0.86256   0.00000  Uiso   1.00
C343   C     0.33668   0.80880   0.80257   0.00000  Uiso   1.00
C344   C     0.32402   0.66389   0.80223   0.00000  Uiso   1.00
C345   C     0.43316   0.58899   0.79296   0.00000  Uiso   1.00
H346   H     0.53769   0.08831   0.78937   0.00000  Uiso   1.00
H347   H     0.38862   0.22752   0.76189   0.00000  Uiso   1.00
H348   H     0.60308   0.20210   0.82579   0.00000  Uiso   1.00
H349   H     0.65426   0.85427   0.77804   0.00000  Uiso   1.00
H350   H     0.17153   0.35202   0.73522   0.00000  Uiso   1.00
H351   H     0.62375   0.29840   0.86996   0.00000  Uiso   1.00
H352   H     0.73169   0.56493   0.76927   0.00000  Uiso   1.00
H353   H     0.13843   0.85818   0.81862   0.00000  Uiso   1.00
H354   H     0.96744   0.98475   0.79274   0.00000  Uiso   1.00
H355   H     0.18190   0.95934   0.85664   0.00000  Uiso   1.00
H356   H     0.23309   0.61152   0.80889   0.00000  Uiso   1.00
H357   H     0.82969   0.15499   0.76025   0.00000  Uiso   1.00
H358   H     0.28192   0.10137   0.89500   0.00000  Uiso   1.00
H359   H     0.38985   0.36790   0.79431   0.00000  Uiso   1.00
O360   O     0.89534   0.34096   0.73019   0.00000  Uiso   1.00
O361   O     0.48865   0.27059   0.90697   0.00000  Uiso   1.00
O362   O     0.63026   0.30830   0.77487   0.00000  Uiso   1.00
N363   N     0.11455   0.28826   0.74466   0.00000  Uiso   1.00
N364   N     0.53734   0.23814   0.87064   0.00000  Uiso   1.00
N365   N     0.63827   0.55241   0.77651   0.00000  Uiso   1.00
N366   N     0.93061   0.18224   0.75813   0.00000  Uiso   1.00
N367   N     0.35339   0.13212   0.88411   0.00000  Uiso   1.00
N368   N     0.45433   0.44639   0.78998   0.00000  Uiso   1.00
