data_job_00898
_audit_creation_date              2018-12-19
_audit_creation_method            'Materials Studio'
_symmetry_space_group_name_H-M    'P1'
_symmetry_Int_Tables_number       1
_symmetry_cell_setting            triclinic
loop_
_symmetry_equiv_pos_as_xyz
  x,y,z
_cell_length_a                    21.8443
_cell_length_b                    15.7422
_cell_length_c                    14.1345
_cell_angle_alpha                 90.0000
_cell_angle_beta                  90.0000
_cell_angle_gamma                 90.0000
loop_
_atom_site_label
_atom_site_type_symbol
_atom_site_fract_x
_atom_site_fract_y
_atom_site_fract_z
_atom_site_U_iso_or_equiv
_atom_site_adp_type
_atom_site_occupancy
C1     C     0.90151   0.08213   0.31298   0.00000  Uiso   1.00
C2     C     0.87146   0.10230   0.21822   0.00000  Uiso   1.00
C3     C     0.84994   0.18131   0.19010   0.00000  Uiso   1.00
C4     C     0.82393   0.18666   0.10067   0.00000  Uiso   1.00
C5     C     0.77791   0.22880   0.96255   0.00000  Uiso   1.00
C6     C     0.86384   0.01055   0.35653   0.00000  Uiso   1.00
C7     C     0.83592   0.01241   0.44470   0.00000  Uiso   1.00
C8     C     0.80350   0.94052   0.47170   0.00000  Uiso   1.00
C9     C     0.74568   0.84020   0.54832   0.00000  Uiso   1.00
C10    C     0.96380   0.04376   0.28962   0.00000  Uiso   1.00
C11    C     0.01992   0.07353   0.32155   0.00000  Uiso   1.00
C12    C     0.07166   0.02958   0.29223   0.00000  Uiso   1.00
C13    C     0.16903   0.98081   0.26497   0.00000  Uiso   1.00
C14    C     0.89361   0.95114   0.20416   0.00000  Uiso   1.00
C15    C     0.86717   0.03116   0.15912   0.00000  Uiso   1.00
C16    C     0.84120   0.03639   0.06970   0.00000  Uiso   1.00
C17    C     0.81964   0.11539   0.04146   0.00000  Uiso   1.00
C18    C     0.85955   0.93941   0.29742   0.00000  Uiso   1.00
C19    C     0.82717   0.86749   0.32430   0.00000  Uiso   1.00
C20    C     0.79920   0.86925   0.41248   0.00000  Uiso   1.00
C21    C     0.95951   0.97261   0.23051   0.00000  Uiso   1.00
C22    C     0.01117   0.92861   0.20114   0.00000  Uiso   1.00
C23    C     0.06736   0.95830   0.23302   0.00000  Uiso   1.00
H24    H     0.90485   0.13752   0.35900   0.00000  Uiso   1.00
H25    H     0.85326   0.23635   0.23587   0.00000  Uiso   1.00
H26    H     0.83925   0.06748   0.49043   0.00000  Uiso   1.00
H27    H     0.02322   0.12858   0.36729   0.00000  Uiso   1.00
H28    H     0.79416   0.31455   0.07330   0.00000  Uiso   1.00
H29    H     0.76463   0.95846   0.61006   0.00000  Uiso   1.00
H30    H     0.15256   0.08731   0.35041   0.00000  Uiso   1.00
H31    H     0.89026   0.89575   0.15814   0.00000  Uiso   1.00
H32    H     0.83788   0.98132   0.02398   0.00000  Uiso   1.00
H33    H     0.82387   0.81245   0.27854   0.00000  Uiso   1.00
H34    H     0.00783   0.87355   0.15540   0.00000  Uiso   1.00
H35    H     0.78167   0.10755   0.90133   0.00000  Uiso   1.00
H36    H     0.75214   0.75146   0.43809   0.00000  Uiso   1.00
H37    H     0.14008   0.88032   0.17844   0.00000  Uiso   1.00
O38    O     0.75370   0.27170   0.90270   0.00000  Uiso   1.00
O39    O     0.71497   0.80452   0.60692   0.00000  Uiso   1.00
O40    O     0.22393   0.97358   0.26625   0.00000  Uiso   1.00
N41    N     0.79842   0.25409   0.05123   0.00000  Uiso   1.00
N42    N     0.77080   0.92118   0.55307   0.00000  Uiso   1.00
N43    N     0.13349   0.04163   0.31033   0.00000  Uiso   1.00
N44    N     0.79170   0.14271   0.95869   0.00000  Uiso   1.00
N45    N     0.76408   0.80979   0.46053   0.00000  Uiso   1.00
N46    N     0.12677   0.93025   0.21779   0.00000  Uiso   1.00
C47    C     0.99575   0.58275   0.71296   0.00000  Uiso   1.00
C48    C     0.02090   0.60296   0.81106   0.00000  Uiso   1.00
C49    C     0.03553   0.68327   0.84463   0.00000  Uiso   1.00
C50    C     0.05793   0.68841   0.93638   0.00000  Uiso   1.00
C51    C     0.09586   0.73084   0.08016   0.00000  Uiso   1.00
C52    C     0.03990   0.51862   0.66955   0.00000  Uiso   1.00
C53    C     0.07051   0.52802   0.58415   0.00000  Uiso   1.00
C54    C     0.10890   0.46216   0.55677   0.00000  Uiso   1.00
C55    C     0.17630   0.37362   0.48082   0.00000  Uiso   1.00
C56    C     0.93589   0.53505   0.72900   0.00000  Uiso   1.00
C57    C     0.87905   0.55825   0.69357   0.00000  Uiso   1.00
C58    C     0.82987   0.50621   0.71623   0.00000  Uiso   1.00
C59    C     0.73578   0.44318   0.73260   0.00000  Uiso   1.00
C60    C     0.00950   0.44907   0.81619   0.00000  Uiso   1.00
C61    C     0.02836   0.53035   0.86712   0.00000  Uiso   1.00
C62    C     0.05074   0.53537   0.95885   0.00000  Uiso   1.00
C63    C     0.06541   0.61568   0.99255   0.00000  Uiso   1.00
C64    C     0.04737   0.44601   0.72562   0.00000  Uiso   1.00
C65    C     0.08571   0.38012   0.69836   0.00000  Uiso   1.00
C66    C     0.11637   0.38942   0.61294   0.00000  Uiso   1.00
C67    C     0.94335   0.46244   0.78508   0.00000  Uiso   1.00
C68    C     0.89425   0.41035   0.80779   0.00000  Uiso   1.00
C69    C     0.83735   0.43347   0.77240   0.00000  Uiso   1.00
H70    H     0.98995   0.63927   0.66930   0.00000  Uiso   1.00
H71    H     0.02976   0.73944   0.80121   0.00000  Uiso   1.00
H72    H     0.06472   0.58421   0.54077   0.00000  Uiso   1.00
H73    H     0.87329   0.61444   0.65018   0.00000  Uiso   1.00
H74    H     0.07721   0.81848   0.97218   0.00000  Uiso   1.00
H75    H     0.15091   0.49115   0.42300   0.00000  Uiso   1.00
H76    H     0.74724   0.55489   0.65372   0.00000  Uiso   1.00
H77    H     0.01531   0.39253   0.85984   0.00000  Uiso   1.00
H78    H     0.05651   0.47917   0.00222   0.00000  Uiso   1.00
H79    H     0.09147   0.32394   0.74177   0.00000  Uiso   1.00
H80    H     0.90005   0.35417   0.85118   0.00000  Uiso   1.00
H81    H     0.09892   0.60723   0.13532   0.00000  Uiso   1.00
H82    H     0.17263   0.27990   0.58613   0.00000  Uiso   1.00
H83    H     0.76896   0.34365   0.81686   0.00000  Uiso   1.00
O84    O     0.11473   0.77430   0.14396   0.00000  Uiso   1.00
O85    O     0.21142   0.34485   0.42345   0.00000  Uiso   1.00
O86    O     0.68182   0.42848   0.72615   0.00000  Uiso   1.00
N87    N     0.07665   0.75687   0.99105   0.00000  Uiso   1.00
N88    N     0.14557   0.45085   0.47760   0.00000  Uiso   1.00
N89    N     0.76818   0.51043   0.69328   0.00000  Uiso   1.00
N90    N     0.08834   0.64320   0.07883   0.00000  Uiso   1.00
N91    N     0.15725   0.33718   0.56538   0.00000  Uiso   1.00
N92    N     0.77986   0.39676   0.78106   0.00000  Uiso   1.00
C93    C     0.09849   0.91787   0.81298   0.00000  Uiso   1.00
C94    C     0.12854   0.89770   0.71822   0.00000  Uiso   1.00
C95    C     0.15006   0.81869   0.69010   0.00000  Uiso   1.00
C96    C     0.17607   0.81334   0.60067   0.00000  Uiso   1.00
C97    C     0.22209   0.77120   0.46255   0.00000  Uiso   1.00
C98    C     0.13616   0.98945   0.85653   0.00000  Uiso   1.00
C99    C     0.16408   0.98759   0.94470   0.00000  Uiso   1.00
C100   C     0.19650   0.05948   0.97170   0.00000  Uiso   1.00
C101   C     0.25432   0.15980   0.04832   0.00000  Uiso   1.00
C102   C     0.03620   0.95624   0.78962   0.00000  Uiso   1.00
C103   C     0.98008   0.92647   0.82155   0.00000  Uiso   1.00
C104   C     0.92834   0.97042   0.79223   0.00000  Uiso   1.00
C105   C     0.83097   0.01919   0.76497   0.00000  Uiso   1.00
C106   C     0.10639   0.04886   0.70416   0.00000  Uiso   1.00
C107   C     0.13283   0.96884   0.65912   0.00000  Uiso   1.00
C108   C     0.15880   0.96361   0.56970   0.00000  Uiso   1.00
C109   C     0.18036   0.88461   0.54146   0.00000  Uiso   1.00
C110   C     0.14045   0.06059   0.79742   0.00000  Uiso   1.00
C111   C     0.17283   0.13251   0.82430   0.00000  Uiso   1.00
C112   C     0.20080   0.13075   0.91248   0.00000  Uiso   1.00
C113   C     0.04049   0.02739   0.73051   0.00000  Uiso   1.00
C114   C     0.98883   0.07139   0.70114   0.00000  Uiso   1.00
C115   C     0.93264   0.04170   0.73302   0.00000  Uiso   1.00
H116   H     0.09515   0.86248   0.85900   0.00000  Uiso   1.00
H117   H     0.14674   0.76365   0.73587   0.00000  Uiso   1.00
H118   H     0.16075   0.93252   0.99043   0.00000  Uiso   1.00
H119   H     0.97678   0.87142   0.86729   0.00000  Uiso   1.00
H120   H     0.20584   0.68545   0.57330   0.00000  Uiso   1.00
H121   H     0.23537   0.04154   0.11006   0.00000  Uiso   1.00
H122   H     0.84744   0.91269   0.85041   0.00000  Uiso   1.00
H123   H     0.10974   0.10425   0.65814   0.00000  Uiso   1.00
H124   H     0.16212   0.01868   0.52398   0.00000  Uiso   1.00
H125   H     0.17613   0.18755   0.77854   0.00000  Uiso   1.00
H126   H     0.99217   0.12645   0.65540   0.00000  Uiso   1.00
H127   H     0.21833   0.89245   0.40133   0.00000  Uiso   1.00
H128   H     0.24786   0.24854   0.93809   0.00000  Uiso   1.00
H129   H     0.85992   0.11968   0.67844   0.00000  Uiso   1.00
O130   O     0.24630   0.72830   0.40270   0.00000  Uiso   1.00
O131   O     0.28503   0.19548   0.10692   0.00000  Uiso   1.00
O132   O     0.77607   0.02642   0.76625   0.00000  Uiso   1.00
N133   N     0.20158   0.74591   0.55123   0.00000  Uiso   1.00
N134   N     0.22920   0.07882   0.05307   0.00000  Uiso   1.00
N135   N     0.86651   0.95837   0.81033   0.00000  Uiso   1.00
N136   N     0.20830   0.85729   0.45869   0.00000  Uiso   1.00
N137   N     0.23592   0.19021   0.96053   0.00000  Uiso   1.00
N138   N     0.87323   0.06975   0.71779   0.00000  Uiso   1.00
C139   C     0.00425   0.41725   0.21296   0.00000  Uiso   1.00
C140   C     0.97910   0.39704   0.31106   0.00000  Uiso   1.00
C141   C     0.96447   0.31673   0.34463   0.00000  Uiso   1.00
C142   C     0.94207   0.31159   0.43638   0.00000  Uiso   1.00
C143   C     0.90414   0.26916   0.58016   0.00000  Uiso   1.00
C144   C     0.96010   0.48138   0.16955   0.00000  Uiso   1.00
C145   C     0.92949   0.47198   0.08415   0.00000  Uiso   1.00
C146   C     0.89110   0.53784   0.05677   0.00000  Uiso   1.00
C147   C     0.82370   0.62638   0.98082   0.00000  Uiso   1.00
C148   C     0.06411   0.46495   0.22900   0.00000  Uiso   1.00
C149   C     0.12095   0.44175   0.19357   0.00000  Uiso   1.00
C150   C     0.17013   0.49379   0.21623   0.00000  Uiso   1.00
C151   C     0.26422   0.55682   0.23260   0.00000  Uiso   1.00
C152   C     0.99050   0.55093   0.31619   0.00000  Uiso   1.00
C153   C     0.97164   0.46965   0.36712   0.00000  Uiso   1.00
C154   C     0.94926   0.46463   0.45885   0.00000  Uiso   1.00
C155   C     0.93459   0.38432   0.49255   0.00000  Uiso   1.00
C156   C     0.95263   0.55399   0.22562   0.00000  Uiso   1.00
C157   C     0.91429   0.61988   0.19836   0.00000  Uiso   1.00
C158   C     0.88363   0.61058   0.11294   0.00000  Uiso   1.00
C159   C     0.05665   0.53756   0.28508   0.00000  Uiso   1.00
C160   C     0.10575   0.58965   0.30779   0.00000  Uiso   1.00
C161   C     0.16265   0.56653   0.27240   0.00000  Uiso   1.00
H162   H     0.01005   0.36073   0.16930   0.00000  Uiso   1.00
H163   H     0.97024   0.26056   0.30121   0.00000  Uiso   1.00
H164   H     0.93528   0.41579   0.04077   0.00000  Uiso   1.00
H165   H     0.12671   0.38556   0.15018   0.00000  Uiso   1.00
H166   H     0.92279   0.18152   0.47218   0.00000  Uiso   1.00
H167   H     0.84909   0.50885   0.92300   0.00000  Uiso   1.00
H168   H     0.25276   0.44511   0.15372   0.00000  Uiso   1.00
H169   H     0.98469   0.60747   0.35984   0.00000  Uiso   1.00
H170   H     0.94349   0.52083   0.50222   0.00000  Uiso   1.00
H171   H     0.90853   0.67606   0.24177   0.00000  Uiso   1.00
H172   H     0.09995   0.64583   0.35118   0.00000  Uiso   1.00
H173   H     0.90108   0.39277   0.63532   0.00000  Uiso   1.00
H174   H     0.82737   0.72010   0.08613   0.00000  Uiso   1.00
H175   H     0.23104   0.65635   0.31686   0.00000  Uiso   1.00
O176   O     0.88527   0.22570   0.64396   0.00000  Uiso   1.00
O177   O     0.78858   0.65515   0.92345   0.00000  Uiso   1.00
O178   O     0.31818   0.57152   0.22615   0.00000  Uiso   1.00
N179   N     0.92335   0.24313   0.49105   0.00000  Uiso   1.00
N180   N     0.85443   0.54915   0.97760   0.00000  Uiso   1.00
N181   N     0.23182   0.48957   0.19328   0.00000  Uiso   1.00
N182   N     0.91166   0.35680   0.57883   0.00000  Uiso   1.00
N183   N     0.84275   0.66282   0.06538   0.00000  Uiso   1.00
N184   N     0.22014   0.60324   0.28106   0.00000  Uiso   1.00
C185   C     0.40151   0.91787   0.31298   0.00000  Uiso   1.00
C186   C     0.37146   0.89770   0.21822   0.00000  Uiso   1.00
C187   C     0.34994   0.81869   0.19010   0.00000  Uiso   1.00
C188   C     0.32393   0.81334   0.10067   0.00000  Uiso   1.00
C189   C     0.27791   0.77120   0.96255   0.00000  Uiso   1.00
C190   C     0.36384   0.98945   0.35653   0.00000  Uiso   1.00
C191   C     0.33592   0.98759   0.44470   0.00000  Uiso   1.00
C192   C     0.30350   0.05948   0.47170   0.00000  Uiso   1.00
C193   C     0.24568   0.15980   0.54832   0.00000  Uiso   1.00
C194   C     0.46380   0.95624   0.28962   0.00000  Uiso   1.00
C195   C     0.51992   0.92647   0.32155   0.00000  Uiso   1.00
C196   C     0.57166   0.97042   0.29223   0.00000  Uiso   1.00
C197   C     0.66903   0.01919   0.26497   0.00000  Uiso   1.00
C198   C     0.39361   0.04886   0.20416   0.00000  Uiso   1.00
C199   C     0.36717   0.96884   0.15912   0.00000  Uiso   1.00
C200   C     0.34120   0.96361   0.06970   0.00000  Uiso   1.00
C201   C     0.31964   0.88461   0.04146   0.00000  Uiso   1.00
C202   C     0.35955   0.06059   0.29742   0.00000  Uiso   1.00
C203   C     0.32717   0.13251   0.32430   0.00000  Uiso   1.00
C204   C     0.29920   0.13075   0.41248   0.00000  Uiso   1.00
C205   C     0.45951   0.02739   0.23051   0.00000  Uiso   1.00
C206   C     0.51117   0.07139   0.20114   0.00000  Uiso   1.00
C207   C     0.56736   0.04170   0.23302   0.00000  Uiso   1.00
H208   H     0.40485   0.86248   0.35900   0.00000  Uiso   1.00
H209   H     0.35326   0.76365   0.23587   0.00000  Uiso   1.00
H210   H     0.33925   0.93252   0.49043   0.00000  Uiso   1.00
H211   H     0.52322   0.87142   0.36729   0.00000  Uiso   1.00
H212   H     0.29416   0.68545   0.07330   0.00000  Uiso   1.00
H213   H     0.26463   0.04154   0.61006   0.00000  Uiso   1.00
H214   H     0.65256   0.91269   0.35041   0.00000  Uiso   1.00
H215   H     0.39026   0.10425   0.15814   0.00000  Uiso   1.00
H216   H     0.33788   0.01868   0.02398   0.00000  Uiso   1.00
H217   H     0.32387   0.18755   0.27854   0.00000  Uiso   1.00
H218   H     0.50783   0.12645   0.15540   0.00000  Uiso   1.00
H219   H     0.28167   0.89245   0.90133   0.00000  Uiso   1.00
H220   H     0.25214   0.24854   0.43809   0.00000  Uiso   1.00
H221   H     0.64008   0.11968   0.17844   0.00000  Uiso   1.00
O222   O     0.25370   0.72830   0.90270   0.00000  Uiso   1.00
O223   O     0.21497   0.19548   0.60692   0.00000  Uiso   1.00
O224   O     0.72393   0.02642   0.26625   0.00000  Uiso   1.00
N225   N     0.29842   0.74591   0.05123   0.00000  Uiso   1.00
N226   N     0.27080   0.07882   0.55307   0.00000  Uiso   1.00
N227   N     0.63349   0.95837   0.31033   0.00000  Uiso   1.00
N228   N     0.29170   0.85729   0.95869   0.00000  Uiso   1.00
N229   N     0.26408   0.19021   0.46053   0.00000  Uiso   1.00
N230   N     0.62677   0.06975   0.21779   0.00000  Uiso   1.00
C231   C     0.49575   0.41725   0.71296   0.00000  Uiso   1.00
C232   C     0.52090   0.39704   0.81106   0.00000  Uiso   1.00
C233   C     0.53553   0.31673   0.84463   0.00000  Uiso   1.00
C234   C     0.55793   0.31159   0.93638   0.00000  Uiso   1.00
C235   C     0.59586   0.26916   0.08016   0.00000  Uiso   1.00
C236   C     0.53990   0.48138   0.66955   0.00000  Uiso   1.00
C237   C     0.57051   0.47198   0.58415   0.00000  Uiso   1.00
C238   C     0.60890   0.53784   0.55677   0.00000  Uiso   1.00
C239   C     0.67630   0.62638   0.48082   0.00000  Uiso   1.00
C240   C     0.43589   0.46495   0.72900   0.00000  Uiso   1.00
C241   C     0.37905   0.44175   0.69357   0.00000  Uiso   1.00
C242   C     0.32987   0.49379   0.71623   0.00000  Uiso   1.00
C243   C     0.23578   0.55682   0.73260   0.00000  Uiso   1.00
C244   C     0.50950   0.55093   0.81619   0.00000  Uiso   1.00
C245   C     0.52836   0.46965   0.86712   0.00000  Uiso   1.00
C246   C     0.55074   0.46463   0.95885   0.00000  Uiso   1.00
C247   C     0.56541   0.38432   0.99255   0.00000  Uiso   1.00
C248   C     0.54737   0.55399   0.72562   0.00000  Uiso   1.00
C249   C     0.58571   0.61988   0.69836   0.00000  Uiso   1.00
C250   C     0.61637   0.61058   0.61294   0.00000  Uiso   1.00
C251   C     0.44335   0.53756   0.78508   0.00000  Uiso   1.00
C252   C     0.39425   0.58965   0.80779   0.00000  Uiso   1.00
C253   C     0.33735   0.56653   0.77240   0.00000  Uiso   1.00
H254   H     0.48995   0.36073   0.66930   0.00000  Uiso   1.00
H255   H     0.52976   0.26056   0.80121   0.00000  Uiso   1.00
H256   H     0.56472   0.41579   0.54077   0.00000  Uiso   1.00
H257   H     0.37329   0.38556   0.65018   0.00000  Uiso   1.00
H258   H     0.57721   0.18152   0.97218   0.00000  Uiso   1.00
H259   H     0.65091   0.50885   0.42300   0.00000  Uiso   1.00
H260   H     0.24724   0.44511   0.65372   0.00000  Uiso   1.00
H261   H     0.51531   0.60747   0.85984   0.00000  Uiso   1.00
H262   H     0.55651   0.52083   0.00222   0.00000  Uiso   1.00
H263   H     0.59147   0.67606   0.74177   0.00000  Uiso   1.00
H264   H     0.40005   0.64583   0.85118   0.00000  Uiso   1.00
H265   H     0.59892   0.39277   0.13532   0.00000  Uiso   1.00
H266   H     0.67263   0.72010   0.58613   0.00000  Uiso   1.00
H267   H     0.26896   0.65635   0.81686   0.00000  Uiso   1.00
O268   O     0.61473   0.22570   0.14396   0.00000  Uiso   1.00
O269   O     0.71142   0.65515   0.42345   0.00000  Uiso   1.00
O270   O     0.18182   0.57152   0.72615   0.00000  Uiso   1.00
N271   N     0.57665   0.24313   0.99105   0.00000  Uiso   1.00
N272   N     0.64557   0.54915   0.47760   0.00000  Uiso   1.00
N273   N     0.26818   0.48957   0.69328   0.00000  Uiso   1.00
N274   N     0.58834   0.35680   0.07883   0.00000  Uiso   1.00
N275   N     0.65725   0.66282   0.56538   0.00000  Uiso   1.00
N276   N     0.27986   0.60324   0.78106   0.00000  Uiso   1.00
C277   C     0.59849   0.08213   0.81298   0.00000  Uiso   1.00
C278   C     0.62854   0.10230   0.71822   0.00000  Uiso   1.00
C279   C     0.65006   0.18131   0.69010   0.00000  Uiso   1.00
C280   C     0.67607   0.18666   0.60067   0.00000  Uiso   1.00
C281   C     0.72209   0.22880   0.46255   0.00000  Uiso   1.00
C282   C     0.63616   0.01055   0.85653   0.00000  Uiso   1.00
C283   C     0.66408   0.01241   0.94470   0.00000  Uiso   1.00
C284   C     0.69650   0.94052   0.97170   0.00000  Uiso   1.00
C285   C     0.75432   0.84020   0.04832   0.00000  Uiso   1.00
C286   C     0.53620   0.04376   0.78962   0.00000  Uiso   1.00
C287   C     0.48008   0.07353   0.82155   0.00000  Uiso   1.00
C288   C     0.42834   0.02958   0.79223   0.00000  Uiso   1.00
C289   C     0.33097   0.98081   0.76497   0.00000  Uiso   1.00
C290   C     0.60639   0.95114   0.70416   0.00000  Uiso   1.00
C291   C     0.63283   0.03116   0.65912   0.00000  Uiso   1.00
C292   C     0.65880   0.03639   0.56970   0.00000  Uiso   1.00
C293   C     0.68036   0.11539   0.54146   0.00000  Uiso   1.00
C294   C     0.64045   0.93941   0.79742   0.00000  Uiso   1.00
C295   C     0.67283   0.86749   0.82430   0.00000  Uiso   1.00
C296   C     0.70080   0.86925   0.91248   0.00000  Uiso   1.00
C297   C     0.54049   0.97261   0.73051   0.00000  Uiso   1.00
C298   C     0.48883   0.92861   0.70114   0.00000  Uiso   1.00
C299   C     0.43264   0.95830   0.73302   0.00000  Uiso   1.00
H300   H     0.59515   0.13752   0.85900   0.00000  Uiso   1.00
H301   H     0.64674   0.23635   0.73587   0.00000  Uiso   1.00
H302   H     0.66075   0.06748   0.99043   0.00000  Uiso   1.00
H303   H     0.47678   0.12858   0.86729   0.00000  Uiso   1.00
H304   H     0.70584   0.31455   0.57330   0.00000  Uiso   1.00
H305   H     0.73537   0.95846   0.11006   0.00000  Uiso   1.00
H306   H     0.34744   0.08731   0.85041   0.00000  Uiso   1.00
H307   H     0.60974   0.89575   0.65814   0.00000  Uiso   1.00
H308   H     0.66212   0.98132   0.52398   0.00000  Uiso   1.00
H309   H     0.67613   0.81245   0.77854   0.00000  Uiso   1.00
H310   H     0.49217   0.87355   0.65540   0.00000  Uiso   1.00
H311   H     0.71833   0.10755   0.40133   0.00000  Uiso   1.00
H312   H     0.74786   0.75146   0.93809   0.00000  Uiso   1.00
H313   H     0.35992   0.88032   0.67844   0.00000  Uiso   1.00
O314   O     0.74630   0.27170   0.40270   0.00000  Uiso   1.00
O315   O     0.78503   0.80452   0.10692   0.00000  Uiso   1.00
O316   O     0.27607   0.97358   0.76625   0.00000  Uiso   1.00
N317   N     0.70158   0.25409   0.55123   0.00000  Uiso   1.00
N318   N     0.72920   0.92118   0.05307   0.00000  Uiso   1.00
N319   N     0.36651   0.04163   0.81033   0.00000  Uiso   1.00
N320   N     0.70830   0.14271   0.45869   0.00000  Uiso   1.00
N321   N     0.73592   0.80979   0.96053   0.00000  Uiso   1.00
N322   N     0.37323   0.93025   0.71779   0.00000  Uiso   1.00
C323   C     0.50425   0.58275   0.21296   0.00000  Uiso   1.00
C324   C     0.47910   0.60296   0.31106   0.00000  Uiso   1.00
C325   C     0.46447   0.68327   0.34463   0.00000  Uiso   1.00
C326   C     0.44207   0.68841   0.43638   0.00000  Uiso   1.00
C327   C     0.40414   0.73084   0.58016   0.00000  Uiso   1.00
C328   C     0.46010   0.51862   0.16955   0.00000  Uiso   1.00
C329   C     0.42949   0.52802   0.08415   0.00000  Uiso   1.00
C330   C     0.39110   0.46216   0.05677   0.00000  Uiso   1.00
C331   C     0.32370   0.37362   0.98082   0.00000  Uiso   1.00
C332   C     0.56411   0.53505   0.22900   0.00000  Uiso   1.00
C333   C     0.62095   0.55825   0.19357   0.00000  Uiso   1.00
C334   C     0.67013   0.50621   0.21623   0.00000  Uiso   1.00
C335   C     0.76422   0.44318   0.23260   0.00000  Uiso   1.00
C336   C     0.49050   0.44907   0.31619   0.00000  Uiso   1.00
C337   C     0.47164   0.53035   0.36712   0.00000  Uiso   1.00
C338   C     0.44926   0.53537   0.45885   0.00000  Uiso   1.00
C339   C     0.43459   0.61568   0.49255   0.00000  Uiso   1.00
C340   C     0.45263   0.44601   0.22562   0.00000  Uiso   1.00
C341   C     0.41429   0.38012   0.19836   0.00000  Uiso   1.00
C342   C     0.38363   0.38942   0.11294   0.00000  Uiso   1.00
C343   C     0.55665   0.46244   0.28508   0.00000  Uiso   1.00
C344   C     0.60575   0.41035   0.30779   0.00000  Uiso   1.00
C345   C     0.66265   0.43347   0.27240   0.00000  Uiso   1.00
H346   H     0.51005   0.63927   0.16930   0.00000  Uiso   1.00
H347   H     0.47024   0.73944   0.30121   0.00000  Uiso   1.00
H348   H     0.43528   0.58421   0.04077   0.00000  Uiso   1.00
H349   H     0.62671   0.61444   0.15018   0.00000  Uiso   1.00
H350   H     0.42279   0.81848   0.47218   0.00000  Uiso   1.00
H351   H     0.34909   0.49115   0.92300   0.00000  Uiso   1.00
H352   H     0.75276   0.55489   0.15372   0.00000  Uiso   1.00
H353   H     0.48469   0.39253   0.35984   0.00000  Uiso   1.00
H354   H     0.44349   0.47917   0.50222   0.00000  Uiso   1.00
H355   H     0.40853   0.32394   0.24177   0.00000  Uiso   1.00
H356   H     0.59995   0.35417   0.35118   0.00000  Uiso   1.00
H357   H     0.40108   0.60723   0.63532   0.00000  Uiso   1.00
H358   H     0.32737   0.27990   0.08613   0.00000  Uiso   1.00
H359   H     0.73104   0.34365   0.31686   0.00000  Uiso   1.00
O360   O     0.38527   0.77430   0.64396   0.00000  Uiso   1.00
O361   O     0.28858   0.34485   0.92345   0.00000  Uiso   1.00
O362   O     0.81818   0.42848   0.22615   0.00000  Uiso   1.00
N363   N     0.42335   0.75687   0.49105   0.00000  Uiso   1.00
N364   N     0.35443   0.45085   0.97760   0.00000  Uiso   1.00
N365   N     0.73182   0.51043   0.19328   0.00000  Uiso   1.00
N366   N     0.41166   0.64320   0.57883   0.00000  Uiso   1.00
N367   N     0.34275   0.33718   0.06538   0.00000  Uiso   1.00
N368   N     0.72014   0.39676   0.28106   0.00000  Uiso   1.00
