data_job_00759
_audit_creation_date              2018-12-19
_audit_creation_method            'Materials Studio'
_symmetry_space_group_name_H-M    'P1'
_symmetry_Int_Tables_number       1
_symmetry_cell_setting            triclinic
loop_
_symmetry_equiv_pos_as_xyz
  x,y,z
_cell_length_a                    10.0265
_cell_length_b                    12.4619
_cell_length_c                    24.2731
_cell_angle_alpha                 90.0000
_cell_angle_beta                  121.6000
_cell_angle_gamma                 90.0000
loop_
_atom_site_label
_atom_site_type_symbol
_atom_site_fract_x
_atom_site_fract_y
_atom_site_fract_z
_atom_site_U_iso_or_equiv
_atom_site_adp_type
_atom_site_occupancy
C1     C     0.18217   0.29921   0.30132   0.00000  Uiso   1.00
C2     C     0.25864   0.19740   0.29572   0.00000  Uiso   1.00
C3     C     0.20835   0.13890   0.23951   0.00000  Uiso   1.00
C4     C     0.29418   0.04809   0.24445   0.00000  Uiso   1.00
C5     C     0.39288   0.89469   0.22678   0.00000  Uiso   1.00
C6     C     0.14346   0.27648   0.35315   0.00000  Uiso   1.00
C7     C     0.99632   0.28449   0.34523   0.00000  Uiso   1.00
C8     C     0.98521   0.26027   0.39852   0.00000  Uiso   1.00
C9     C     0.90511   0.22973   0.47002   0.00000  Uiso   1.00
C10    C     0.31017   0.38452   0.32960   0.00000  Uiso   1.00
C11    C     0.30320   0.48339   0.30189   0.00000  Uiso   1.00
C12    C     0.43244   0.55014   0.33536   0.00000  Uiso   1.00
C13    C     0.61119   0.68735   0.37029   0.00000  Uiso   1.00
C14    C     0.42405   0.24196   0.41004   0.00000  Uiso   1.00
C15    C     0.39001   0.16630   0.35477   0.00000  Uiso   1.00
C16    C     0.47595   0.07556   0.35980   0.00000  Uiso   1.00
C17    C     0.42580   0.01694   0.30361   0.00000  Uiso   1.00
C18    C     0.27483   0.24538   0.41220   0.00000  Uiso   1.00
C19    C     0.26393   0.22115   0.46551   0.00000  Uiso   1.00
C20    C     0.11682   0.22911   0.45768   0.00000  Uiso   1.00
C21    C     0.44155   0.35342   0.38865   0.00000  Uiso   1.00
C22    C     0.57082   0.42004   0.42217   0.00000  Uiso   1.00
C23    C     0.56405   0.51899   0.39452   0.00000  Uiso   1.00
H24    H     0.07989   0.32342   0.25535   0.00000  Uiso   1.00
H25    H     0.10666   0.16299   0.19382   0.00000  Uiso   1.00
H26    H     0.89468   0.30857   0.29953   0.00000  Uiso   1.00
H27    H     0.20152   0.50743   0.25619   0.00000  Uiso   1.00
H28    H     0.19424   0.97138   0.15166   0.00000  Uiso   1.00
H29    H     0.74729   0.27838   0.37455   0.00000  Uiso   1.00
H30    H     0.39431   0.69772   0.28317   0.00000  Uiso   1.00
H31    H     0.52634   0.21775   0.45601   0.00000  Uiso   1.00
H32    H     0.57762   0.05151   0.40550   0.00000  Uiso   1.00
H33    H     0.36563   0.19709   0.51120   0.00000  Uiso   1.00
H34    H     0.67247   0.39595   0.46787   0.00000  Uiso   1.00
H35    H     0.57649   0.88090   0.32346   0.00000  Uiso   1.00
H36    H     0.12952   0.18790   0.54636   0.00000  Uiso   1.00
H37    H     0.77655   0.60724   0.45497   0.00000  Uiso   1.00
O38    O     0.41101   0.81867   0.20072   0.00000  Uiso   1.00
O39    O     0.82462   0.22146   0.49314   0.00000  Uiso   1.00
O40    O     0.67350   0.77162   0.37325   0.00000  Uiso   1.00
N41    N     0.27719   0.97291   0.19902   0.00000  Uiso   1.00
N42    N     0.85930   0.25992   0.40741   0.00000  Uiso   1.00
N43    N     0.46420   0.65198   0.32198   0.00000  Uiso   1.00
N44    N     0.48287   0.92422   0.29147   0.00000  Uiso   1.00
N45    N     0.06498   0.21123   0.49986   0.00000  Uiso   1.00
N46    N     0.66988   0.60329   0.41443   0.00000  Uiso   1.00
C47    C     0.81783   0.79921   0.19868   0.00000  Uiso   1.00
C48    C     0.74136   0.69740   0.20428   0.00000  Uiso   1.00
C49    C     0.79165   0.63890   0.26049   0.00000  Uiso   1.00
C50    C     0.70582   0.54809   0.25555   0.00000  Uiso   1.00
C51    C     0.60712   0.39469   0.27322   0.00000  Uiso   1.00
C52    C     0.85654   0.77648   0.14685   0.00000  Uiso   1.00
C53    C     0.00368   0.78449   0.15477   0.00000  Uiso   1.00
C54    C     0.01479   0.76027   0.10148   0.00000  Uiso   1.00
C55    C     0.09489   0.72973   0.02998   0.00000  Uiso   1.00
C56    C     0.68983   0.88452   0.17040   0.00000  Uiso   1.00
C57    C     0.69680   0.98339   0.19811   0.00000  Uiso   1.00
C58    C     0.56756   0.05014   0.16464   0.00000  Uiso   1.00
C59    C     0.38881   0.18735   0.12971   0.00000  Uiso   1.00
C60    C     0.57595   0.74196   0.08996   0.00000  Uiso   1.00
C61    C     0.60999   0.66630   0.14523   0.00000  Uiso   1.00
C62    C     0.52405   0.57556   0.14020   0.00000  Uiso   1.00
C63    C     0.57420   0.51694   0.19639   0.00000  Uiso   1.00
C64    C     0.72517   0.74538   0.08780   0.00000  Uiso   1.00
C65    C     0.73607   0.72115   0.03449   0.00000  Uiso   1.00
C66    C     0.88318   0.72911   0.04232   0.00000  Uiso   1.00
C67    C     0.55845   0.85342   0.11135   0.00000  Uiso   1.00
C68    C     0.42918   0.92004   0.07783   0.00000  Uiso   1.00
C69    C     0.43595   0.01899   0.10548   0.00000  Uiso   1.00
H70    H     0.92011   0.82342   0.24465   0.00000  Uiso   1.00
H71    H     0.89334   0.66299   0.30618   0.00000  Uiso   1.00
H72    H     0.10532   0.80857   0.20047   0.00000  Uiso   1.00
H73    H     0.79848   0.00743   0.24381   0.00000  Uiso   1.00
H74    H     0.80576   0.47138   0.34834   0.00000  Uiso   1.00
H75    H     0.25271   0.77838   0.12545   0.00000  Uiso   1.00
H76    H     0.60569   0.19772   0.21683   0.00000  Uiso   1.00
H77    H     0.47366   0.71775   0.04399   0.00000  Uiso   1.00
H78    H     0.42238   0.55151   0.09450   0.00000  Uiso   1.00
H79    H     0.63437   0.69709   0.98880   0.00000  Uiso   1.00
H80    H     0.32753   0.89595   0.03213   0.00000  Uiso   1.00
H81    H     0.42351   0.38090   0.17654   0.00000  Uiso   1.00
H82    H     0.87048   0.68790   0.95364   0.00000  Uiso   1.00
H83    H     0.22345   0.10724   0.04503   0.00000  Uiso   1.00
O84    O     0.58899   0.31867   0.29928   0.00000  Uiso   1.00
O85    O     0.17538   0.72146   0.00686   0.00000  Uiso   1.00
O86    O     0.32650   0.27162   0.12675   0.00000  Uiso   1.00
N87    N     0.72281   0.47291   0.30098   0.00000  Uiso   1.00
N88    N     0.14070   0.75992   0.09259   0.00000  Uiso   1.00
N89    N     0.53580   0.15198   0.17802   0.00000  Uiso   1.00
N90    N     0.51713   0.42422   0.20853   0.00000  Uiso   1.00
N91    N     0.93502   0.71123   0.00014   0.00000  Uiso   1.00
N92    N     0.33012   0.10329   0.08557   0.00000  Uiso   1.00
C93    C     0.81783   0.70079   0.69868   0.00000  Uiso   1.00
C94    C     0.74136   0.80260   0.70428   0.00000  Uiso   1.00
C95    C     0.79165   0.86110   0.76049   0.00000  Uiso   1.00
C96    C     0.70582   0.95191   0.75555   0.00000  Uiso   1.00
C97    C     0.60712   0.10531   0.77322   0.00000  Uiso   1.00
C98    C     0.85654   0.72352   0.64685   0.00000  Uiso   1.00
C99    C     0.00368   0.71551   0.65477   0.00000  Uiso   1.00
C100   C     0.01479   0.73973   0.60148   0.00000  Uiso   1.00
C101   C     0.09489   0.77027   0.52998   0.00000  Uiso   1.00
C102   C     0.68983   0.61548   0.67040   0.00000  Uiso   1.00
C103   C     0.69680   0.51661   0.69811   0.00000  Uiso   1.00
C104   C     0.56756   0.44986   0.66464   0.00000  Uiso   1.00
C105   C     0.38881   0.31265   0.62971   0.00000  Uiso   1.00
C106   C     0.57595   0.75804   0.58996   0.00000  Uiso   1.00
C107   C     0.60999   0.83370   0.64523   0.00000  Uiso   1.00
C108   C     0.52405   0.92444   0.64020   0.00000  Uiso   1.00
C109   C     0.57420   0.98306   0.69639   0.00000  Uiso   1.00
C110   C     0.72517   0.75462   0.58780   0.00000  Uiso   1.00
C111   C     0.73607   0.77885   0.53449   0.00000  Uiso   1.00
C112   C     0.88318   0.77089   0.54232   0.00000  Uiso   1.00
C113   C     0.55845   0.64658   0.61135   0.00000  Uiso   1.00
C114   C     0.42918   0.57996   0.57783   0.00000  Uiso   1.00
C115   C     0.43595   0.48101   0.60548   0.00000  Uiso   1.00
H116   H     0.92011   0.67658   0.74465   0.00000  Uiso   1.00
H117   H     0.89334   0.83701   0.80618   0.00000  Uiso   1.00
H118   H     0.10532   0.69143   0.70047   0.00000  Uiso   1.00
H119   H     0.79848   0.49257   0.74381   0.00000  Uiso   1.00
H120   H     0.80576   0.02862   0.84834   0.00000  Uiso   1.00
H121   H     0.25271   0.72162   0.62545   0.00000  Uiso   1.00
H122   H     0.60569   0.30228   0.71683   0.00000  Uiso   1.00
H123   H     0.47366   0.78225   0.54399   0.00000  Uiso   1.00
H124   H     0.42238   0.94849   0.59450   0.00000  Uiso   1.00
H125   H     0.63437   0.80291   0.48880   0.00000  Uiso   1.00
H126   H     0.32753   0.60405   0.53213   0.00000  Uiso   1.00
H127   H     0.42351   0.11910   0.67654   0.00000  Uiso   1.00
H128   H     0.87048   0.81210   0.45364   0.00000  Uiso   1.00
H129   H     0.22345   0.39276   0.54503   0.00000  Uiso   1.00
O130   O     0.58899   0.18133   0.79928   0.00000  Uiso   1.00
O131   O     0.17538   0.77854   0.50686   0.00000  Uiso   1.00
O132   O     0.32650   0.22838   0.62675   0.00000  Uiso   1.00
N133   N     0.72281   0.02709   0.80098   0.00000  Uiso   1.00
N134   N     0.14070   0.74008   0.59259   0.00000  Uiso   1.00
N135   N     0.53580   0.34802   0.67802   0.00000  Uiso   1.00
N136   N     0.51713   0.07578   0.70853   0.00000  Uiso   1.00
N137   N     0.93502   0.78877   0.50014   0.00000  Uiso   1.00
N138   N     0.33012   0.39671   0.58557   0.00000  Uiso   1.00
C139   C     0.18217   0.20079   0.80132   0.00000  Uiso   1.00
C140   C     0.25864   0.30260   0.79572   0.00000  Uiso   1.00
C141   C     0.20835   0.36110   0.73951   0.00000  Uiso   1.00
C142   C     0.29418   0.45191   0.74445   0.00000  Uiso   1.00
C143   C     0.39288   0.60531   0.72678   0.00000  Uiso   1.00
C144   C     0.14346   0.22352   0.85315   0.00000  Uiso   1.00
C145   C     0.99632   0.21551   0.84523   0.00000  Uiso   1.00
C146   C     0.98521   0.23973   0.89852   0.00000  Uiso   1.00
C147   C     0.90511   0.27027   0.97002   0.00000  Uiso   1.00
C148   C     0.31017   0.11548   0.82960   0.00000  Uiso   1.00
C149   C     0.30320   0.01661   0.80189   0.00000  Uiso   1.00
C150   C     0.43244   0.94986   0.83536   0.00000  Uiso   1.00
C151   C     0.61119   0.81265   0.87029   0.00000  Uiso   1.00
C152   C     0.42405   0.25804   0.91004   0.00000  Uiso   1.00
C153   C     0.39001   0.33370   0.85477   0.00000  Uiso   1.00
C154   C     0.47595   0.42444   0.85980   0.00000  Uiso   1.00
C155   C     0.42580   0.48306   0.80361   0.00000  Uiso   1.00
C156   C     0.27483   0.25462   0.91220   0.00000  Uiso   1.00
C157   C     0.26393   0.27885   0.96551   0.00000  Uiso   1.00
C158   C     0.11682   0.27089   0.95768   0.00000  Uiso   1.00
C159   C     0.44155   0.14658   0.88865   0.00000  Uiso   1.00
C160   C     0.57082   0.07996   0.92217   0.00000  Uiso   1.00
C161   C     0.56405   0.98101   0.89452   0.00000  Uiso   1.00
H162   H     0.07989   0.17658   0.75535   0.00000  Uiso   1.00
H163   H     0.10666   0.33701   0.69382   0.00000  Uiso   1.00
H164   H     0.89468   0.19143   0.79953   0.00000  Uiso   1.00
H165   H     0.20152   0.99257   0.75619   0.00000  Uiso   1.00
H166   H     0.19424   0.52862   0.65166   0.00000  Uiso   1.00
H167   H     0.74729   0.22162   0.87455   0.00000  Uiso   1.00
H168   H     0.39431   0.80228   0.78317   0.00000  Uiso   1.00
H169   H     0.52634   0.28225   0.95601   0.00000  Uiso   1.00
H170   H     0.57762   0.44849   0.90550   0.00000  Uiso   1.00
H171   H     0.36563   0.30291   0.01120   0.00000  Uiso   1.00
H172   H     0.67247   0.10405   0.96787   0.00000  Uiso   1.00
H173   H     0.57649   0.61910   0.82346   0.00000  Uiso   1.00
H174   H     0.12952   0.31210   0.04636   0.00000  Uiso   1.00
H175   H     0.77655   0.89276   0.95497   0.00000  Uiso   1.00
O176   O     0.41101   0.68133   0.70072   0.00000  Uiso   1.00
O177   O     0.82462   0.27854   0.99314   0.00000  Uiso   1.00
O178   O     0.67350   0.72838   0.87325   0.00000  Uiso   1.00
N179   N     0.27719   0.52709   0.69902   0.00000  Uiso   1.00
N180   N     0.85930   0.24008   0.90741   0.00000  Uiso   1.00
N181   N     0.46420   0.84802   0.82198   0.00000  Uiso   1.00
N182   N     0.48287   0.57578   0.79147   0.00000  Uiso   1.00
N183   N     0.06498   0.28877   0.99986   0.00000  Uiso   1.00
N184   N     0.66988   0.89671   0.91443   0.00000  Uiso   1.00
