data_job_06220
_audit_creation_date              2018-12-19
_audit_creation_method            'Materials Studio'
_symmetry_space_group_name_H-M    'P1'
_symmetry_Int_Tables_number       1
_symmetry_cell_setting            triclinic
loop_
_symmetry_equiv_pos_as_xyz
  x,y,z
_cell_length_a                    14.9167
_cell_length_b                    14.9061
_cell_length_c                    14.8957
_cell_angle_alpha                 92.7802
_cell_angle_beta                  92.8424
_cell_angle_gamma                 92.9021
loop_
_atom_site_label
_atom_site_type_symbol
_atom_site_fract_x
_atom_site_fract_y
_atom_site_fract_z
_atom_site_U_iso_or_equiv
_atom_site_adp_type
_atom_site_occupancy
C1     C     0.15089   0.30668   0.96267   0.00000  Uiso   1.00
C2     C     0.20028   0.23819   0.90708   0.00000  Uiso   1.00
C3     C     0.19205   0.14551   0.91274   0.00000  Uiso   1.00
C4     C     0.24298   0.09443   0.85613   0.00000  Uiso   1.00
C5     C     0.31102   0.98196   0.77898   0.00000  Uiso   1.00
C6     C     0.22349   0.37031   0.01003   0.00000  Uiso   1.00
C7     C     0.23477   0.38872   0.10224   0.00000  Uiso   1.00
C8     C     0.30522   0.44888   0.13229   0.00000  Uiso   1.00
C9     C     0.40926   0.54158   0.21496   0.00000  Uiso   1.00
C10    C     0.10091   0.36231   0.89512   0.00000  Uiso   1.00
C11    C     0.00912   0.37402   0.89073   0.00000  Uiso   1.00
C12    C     0.97637   0.42746   0.82404   0.00000  Uiso   1.00
C13    C     0.89008   0.50775   0.72831   0.00000  Uiso   1.00
C14    C     0.25596   0.38077   0.85207   0.00000  Uiso   1.00
C15    C     0.25735   0.27844   0.84701   0.00000  Uiso   1.00
C16    C     0.30830   0.22748   0.79037   0.00000  Uiso   1.00
C17    C     0.30014   0.13474   0.79594   0.00000  Uiso   1.00
C18    C     0.28056   0.41056   0.94996   0.00000  Uiso   1.00
C19    C     0.35101   0.47070   0.97987   0.00000  Uiso   1.00
C20    C     0.36239   0.48920   0.07211   0.00000  Uiso   1.00
C21    C     0.15798   0.40256   0.83505   0.00000  Uiso   1.00
C22    C     0.12537   0.45599   0.76836   0.00000  Uiso   1.00
C23    C     0.03354   0.46778   0.76386   0.00000  Uiso   1.00
H24    H     0.10647   0.27535   0.00945   0.00000  Uiso   1.00
H25    H     0.14789   0.11439   0.95924   0.00000  Uiso   1.00
H26    H     0.19059   0.35758   0.14871   0.00000  Uiso   1.00
H27    H     0.96498   0.34287   0.93723   0.00000  Uiso   1.00
H28    H     0.21900   0.95368   0.87711   0.00000  Uiso   1.00
H29    H     0.30902   0.46648   0.27662   0.00000  Uiso   1.00
H30    H     0.83327   0.43547   0.83067   0.00000  Uiso   1.00
H31    H     0.30039   0.41211   0.80530   0.00000  Uiso   1.00
H32    H     0.35246   0.25865   0.74389   0.00000  Uiso   1.00
H33    H     0.39516   0.50184   0.93337   0.00000  Uiso   1.00
H34    H     0.16955   0.48713   0.72189   0.00000  Uiso   1.00
H35    H     0.38504   0.07077   0.70233   0.00000  Uiso   1.00
H36    H     0.47506   0.58357   0.10184   0.00000  Uiso   1.00
H37    H     0.99931   0.55256   0.65589   0.00000  Uiso   1.00
O38    O     0.33280   0.90881   0.75303   0.00000  Uiso   1.00
O39    O     0.45088   0.58159   0.27716   0.00000  Uiso   1.00
O40    O     0.82671   0.54090   0.69209   0.00000  Uiso   1.00
N41    N     0.25092   0.00230   0.84439   0.00000  Uiso   1.00
N42    N     0.33509   0.48172   0.21791   0.00000  Uiso   1.00
N43    N     0.89031   0.45275   0.80100   0.00000  Uiso   1.00
N44    N     0.34027   0.06530   0.75034   0.00000  Uiso   1.00
N45    N     0.42444   0.54472   0.12386   0.00000  Uiso   1.00
N46    N     0.97965   0.51576   0.70695   0.00000  Uiso   1.00
C47    C     0.96177   0.15077   0.30634   0.00000  Uiso   1.00
C48    C     0.90625   0.20024   0.23772   0.00000  Uiso   1.00
C49    C     0.91184   0.19211   0.14499   0.00000  Uiso   1.00
C50    C     0.85531   0.24309   0.09380   0.00000  Uiso   1.00
C51    C     0.77824   0.31126   0.98114   0.00000  Uiso   1.00
C52    C     0.00914   0.22338   0.36997   0.00000  Uiso   1.00
C53    C     0.10124   0.23469   0.38843   0.00000  Uiso   1.00
C54    C     0.13132   0.30514   0.44856   0.00000  Uiso   1.00
C55    C     0.21398   0.40920   0.54127   0.00000  Uiso   1.00
C56    C     0.89432   0.10067   0.36203   0.00000  Uiso   1.00
C57    C     0.88989   0.00879   0.37384   0.00000  Uiso   1.00
C58    C     0.82331   0.97594   0.42731   0.00000  Uiso   1.00
C59    C     0.72770   0.88945   0.50770   0.00000  Uiso   1.00
C60    C     0.85142   0.25578   0.38032   0.00000  Uiso   1.00
C61    C     0.84631   0.25728   0.27791   0.00000  Uiso   1.00
C62    C     0.78975   0.30828   0.22684   0.00000  Uiso   1.00
C63    C     0.79526   0.30022   0.13405   0.00000  Uiso   1.00
C64    C     0.94920   0.28042   0.41015   0.00000  Uiso   1.00
C65    C     0.97915   0.35087   0.47028   0.00000  Uiso   1.00
C66    C     0.07127   0.36228   0.48882   0.00000  Uiso   1.00
C67    C     0.83438   0.15770   0.40221   0.00000  Uiso   1.00
C68    C     0.76780   0.12498   0.45569   0.00000  Uiso   1.00
C69    C     0.76326   0.03307   0.46757   0.00000  Uiso   1.00
H70    H     0.00844   0.10637   0.27506   0.00000  Uiso   1.00
H71    H     0.95825   0.14796   0.11392   0.00000  Uiso   1.00
H72    H     0.14761   0.19053   0.35733   0.00000  Uiso   1.00
H73    H     0.93629   0.96468   0.34274   0.00000  Uiso   1.00
H74    H     0.87618   0.21925   0.95299   0.00000  Uiso   1.00
H75    H     0.27546   0.30900   0.46625   0.00000  Uiso   1.00
H76    H     0.82986   0.83274   0.43549   0.00000  Uiso   1.00
H77    H     0.80475   0.30019   0.41161   0.00000  Uiso   1.00
H78    H     0.74337   0.35242   0.25796   0.00000  Uiso   1.00
H79    H     0.93274   0.39499   0.50136   0.00000  Uiso   1.00
H80    H     0.72142   0.16913   0.48677   0.00000  Uiso   1.00
H81    H     0.70178   0.38520   0.06989   0.00000  Uiso   1.00
H82    H     0.10107   0.47494   0.58315   0.00000  Uiso   1.00
H83    H     0.65546   0.99868   0.55239   0.00000  Uiso   1.00
O84    O     0.75230   0.33311   0.90790   0.00000  Uiso   1.00
O85    O     0.27614   0.45084   0.58129   0.00000  Uiso   1.00
O86    O     0.69152   0.82600   0.54092   0.00000  Uiso   1.00
N87    N     0.84354   0.25113   0.00159   0.00000  Uiso   1.00
N88    N     0.21685   0.33504   0.48144   0.00000  Uiso   1.00
N89    N     0.80026   0.88978   0.45270   0.00000  Uiso   1.00
N90    N     0.74970   0.34042   0.06449   0.00000  Uiso   1.00
N91    N     0.12301   0.42434   0.54435   0.00000  Uiso   1.00
N92    N     0.70642   0.97907   0.51561   0.00000  Uiso   1.00
C93    C     0.30730   0.96234   0.15062   0.00000  Uiso   1.00
C94    C     0.23877   0.90669   0.20015   0.00000  Uiso   1.00
C95    C     0.14617   0.91225   0.19195   0.00000  Uiso   1.00
C96    C     0.09504   0.85560   0.24300   0.00000  Uiso   1.00
C97    C     0.98253   0.77835   0.31124   0.00000  Uiso   1.00
C98    C     0.37090   0.00969   0.22326   0.00000  Uiso   1.00
C99    C     0.38939   0.10186   0.23449   0.00000  Uiso   1.00
C100   C     0.44950   0.13191   0.30500   0.00000  Uiso   1.00
C101   C     0.54218   0.21457   0.40908   0.00000  Uiso   1.00
C102   C     0.36285   0.89492   0.10058   0.00000  Uiso   1.00
C103   C     0.37459   0.89059   0.00866   0.00000  Uiso   1.00
C104   C     0.42794   0.82402   0.97587   0.00000  Uiso   1.00
C105   C     0.50812   0.72848   0.88947   0.00000  Uiso   1.00
C106   C     0.38118   0.85184   0.25586   0.00000  Uiso   1.00
C107   C     0.27890   0.84667   0.25731   0.00000  Uiso   1.00
C108   C     0.22790   0.78999   0.30838   0.00000  Uiso   1.00
C109   C     0.13523   0.79547   0.30026   0.00000  Uiso   1.00
C110   C     0.41103   0.94968   0.28042   0.00000  Uiso   1.00
C111   C     0.47113   0.97960   0.35092   0.00000  Uiso   1.00
C112   C     0.48970   0.07178   0.36226   0.00000  Uiso   1.00
C113   C     0.40298   0.83489   0.15774   0.00000  Uiso   1.00
C114   C     0.45632   0.76833   0.12509   0.00000  Uiso   1.00
C115   C     0.46814   0.76389   0.03313   0.00000  Uiso   1.00
H116   H     0.27606   0.00907   0.10613   0.00000  Uiso   1.00
H117   H     0.11514   0.95871   0.14772   0.00000  Uiso   1.00
H118   H     0.35833   0.14828   0.19024   0.00000  Uiso   1.00
H119   H     0.34353   0.93705   0.96445   0.00000  Uiso   1.00
H120   H     0.95442   0.87644   0.21906   0.00000  Uiso   1.00
H121   H     0.46724   0.27616   0.30871   0.00000  Uiso   1.00
H122   H     0.43603   0.83072   0.83257   0.00000  Uiso   1.00
H123   H     0.41242   0.80511   0.30036   0.00000  Uiso   1.00
H124   H     0.25897   0.74355   0.35261   0.00000  Uiso   1.00
H125   H     0.50217   0.93313   0.39514   0.00000  Uiso   1.00
H126   H     0.48737   0.72189   0.16934   0.00000  Uiso   1.00
H127   H     0.07116   0.70181   0.38536   0.00000  Uiso   1.00
H128   H     0.58399   0.10153   0.47501   0.00000  Uiso   1.00
H129   H     0.55277   0.65609   0.99887   0.00000  Uiso   1.00
O130   O     0.90939   0.75233   0.33310   0.00000  Uiso   1.00
O131   O     0.58220   0.27675   0.45071   0.00000  Uiso   1.00
O132   O     0.54125   0.69235   0.82603   0.00000  Uiso   1.00
N133   N     0.00295   0.84377   0.25101   0.00000  Uiso   1.00
N134   N     0.48240   0.21749   0.33484   0.00000  Uiso   1.00
N135   N     0.45324   0.80106   0.88970   0.00000  Uiso   1.00
N136   N     0.06577   0.74980   0.34050   0.00000  Uiso   1.00
N137   N     0.54521   0.12352   0.42433   0.00000  Uiso   1.00
N138   N     0.51605   0.70709   0.97918   0.00000  Uiso   1.00
C139   C     0.84911   0.69332   0.03733   0.00000  Uiso   1.00
C140   C     0.79972   0.76181   0.09292   0.00000  Uiso   1.00
C141   C     0.80795   0.85449   0.08726   0.00000  Uiso   1.00
C142   C     0.75703   0.90557   0.14387   0.00000  Uiso   1.00
C143   C     0.68898   0.01804   0.22102   0.00000  Uiso   1.00
C144   C     0.77651   0.62969   0.98997   0.00000  Uiso   1.00
C145   C     0.76523   0.61128   0.89776   0.00000  Uiso   1.00
C146   C     0.69478   0.55112   0.86771   0.00000  Uiso   1.00
C147   C     0.59074   0.45842   0.78504   0.00000  Uiso   1.00
C148   C     0.89909   0.63769   0.10488   0.00000  Uiso   1.00
C149   C     0.99088   0.62598   0.10927   0.00000  Uiso   1.00
C150   C     0.02363   0.57254   0.17596   0.00000  Uiso   1.00
C151   C     0.10992   0.49225   0.27169   0.00000  Uiso   1.00
C152   C     0.74404   0.61923   0.14793   0.00000  Uiso   1.00
C153   C     0.74265   0.72156   0.15299   0.00000  Uiso   1.00
C154   C     0.69170   0.77252   0.20963   0.00000  Uiso   1.00
C155   C     0.69986   0.86526   0.20406   0.00000  Uiso   1.00
C156   C     0.71944   0.58944   0.05004   0.00000  Uiso   1.00
C157   C     0.64899   0.52930   0.02013   0.00000  Uiso   1.00
C158   C     0.63761   0.51081   0.92789   0.00000  Uiso   1.00
C159   C     0.84202   0.59744   0.16495   0.00000  Uiso   1.00
C160   C     0.87463   0.54401   0.23164   0.00000  Uiso   1.00
C161   C     0.96646   0.53222   0.23614   0.00000  Uiso   1.00
H162   H     0.89353   0.72465   0.99055   0.00000  Uiso   1.00
H163   H     0.85211   0.88561   0.04076   0.00000  Uiso   1.00
H164   H     0.80941   0.64242   0.85129   0.00000  Uiso   1.00
H165   H     0.03502   0.65713   0.06277   0.00000  Uiso   1.00
H166   H     0.78100   0.04632   0.12289   0.00000  Uiso   1.00
H167   H     0.69098   0.53352   0.72338   0.00000  Uiso   1.00
H168   H     0.16673   0.56453   0.16933   0.00000  Uiso   1.00
H169   H     0.69961   0.58789   0.19470   0.00000  Uiso   1.00
H170   H     0.64754   0.74135   0.25611   0.00000  Uiso   1.00
H171   H     0.60484   0.49816   0.06663   0.00000  Uiso   1.00
H172   H     0.83045   0.51287   0.27812   0.00000  Uiso   1.00
H173   H     0.61496   0.92923   0.29767   0.00000  Uiso   1.00
H174   H     0.52494   0.41643   0.89816   0.00000  Uiso   1.00
H175   H     0.00069   0.44744   0.34411   0.00000  Uiso   1.00
O176   O     0.66720   0.09119   0.24697   0.00000  Uiso   1.00
O177   O     0.54912   0.41841   0.72284   0.00000  Uiso   1.00
O178   O     0.17329   0.45910   0.30791   0.00000  Uiso   1.00
N179   N     0.74908   0.99770   0.15561   0.00000  Uiso   1.00
N180   N     0.66491   0.51828   0.78209   0.00000  Uiso   1.00
N181   N     0.10969   0.54725   0.19900   0.00000  Uiso   1.00
N182   N     0.65973   0.93470   0.24966   0.00000  Uiso   1.00
N183   N     0.57556   0.45528   0.87614   0.00000  Uiso   1.00
N184   N     0.02035   0.48424   0.29305   0.00000  Uiso   1.00
C185   C     0.03823   0.84923   0.69366   0.00000  Uiso   1.00
C186   C     0.09375   0.79976   0.76228   0.00000  Uiso   1.00
C187   C     0.08816   0.80790   0.85501   0.00000  Uiso   1.00
C188   C     0.14469   0.75691   0.90620   0.00000  Uiso   1.00
C189   C     0.22176   0.68874   0.01886   0.00000  Uiso   1.00
C190   C     0.99086   0.77662   0.63003   0.00000  Uiso   1.00
C191   C     0.89876   0.76531   0.61157   0.00000  Uiso   1.00
C192   C     0.86868   0.69486   0.55144   0.00000  Uiso   1.00
C193   C     0.78602   0.59080   0.45873   0.00000  Uiso   1.00
C194   C     0.10568   0.89933   0.63797   0.00000  Uiso   1.00
C195   C     0.11011   0.99121   0.62616   0.00000  Uiso   1.00
C196   C     0.17669   0.02406   0.57269   0.00000  Uiso   1.00
C197   C     0.27230   0.11055   0.49230   0.00000  Uiso   1.00
C198   C     0.14858   0.74422   0.61968   0.00000  Uiso   1.00
C199   C     0.15369   0.74272   0.72209   0.00000  Uiso   1.00
C200   C     0.21025   0.69172   0.77316   0.00000  Uiso   1.00
C201   C     0.20474   0.69978   0.86595   0.00000  Uiso   1.00
C202   C     0.05080   0.71958   0.58985   0.00000  Uiso   1.00
C203   C     0.02085   0.64913   0.52972   0.00000  Uiso   1.00
C204   C     0.92873   0.63772   0.51118   0.00000  Uiso   1.00
C205   C     0.16562   0.84230   0.59779   0.00000  Uiso   1.00
C206   C     0.23220   0.87502   0.54431   0.00000  Uiso   1.00
C207   C     0.23674   0.96693   0.53243   0.00000  Uiso   1.00
H208   H     0.99156   0.89363   0.72494   0.00000  Uiso   1.00
H209   H     0.04175   0.85204   0.88608   0.00000  Uiso   1.00
H210   H     0.85239   0.80947   0.64267   0.00000  Uiso   1.00
H211   H     0.06371   0.03532   0.65726   0.00000  Uiso   1.00
H212   H     0.12382   0.78075   0.04701   0.00000  Uiso   1.00
H213   H     0.72454   0.69100   0.53375   0.00000  Uiso   1.00
H214   H     0.17014   0.16726   0.56451   0.00000  Uiso   1.00
H215   H     0.19525   0.69981   0.58839   0.00000  Uiso   1.00
H216   H     0.25663   0.64758   0.74204   0.00000  Uiso   1.00
H217   H     0.06726   0.60501   0.49864   0.00000  Uiso   1.00
H218   H     0.27858   0.83087   0.51323   0.00000  Uiso   1.00
H219   H     0.29822   0.61480   0.93011   0.00000  Uiso   1.00
H220   H     0.89893   0.52506   0.41685   0.00000  Uiso   1.00
H221   H     0.34454   0.00132   0.44761   0.00000  Uiso   1.00
O222   O     0.24770   0.66689   0.09209   0.00000  Uiso   1.00
O223   O     0.72386   0.54916   0.41871   0.00000  Uiso   1.00
O224   O     0.30848   0.17400   0.45908   0.00000  Uiso   1.00
N225   N     0.15646   0.74887   0.99841   0.00000  Uiso   1.00
N226   N     0.78314   0.66496   0.51856   0.00000  Uiso   1.00
N227   N     0.19974   0.11022   0.54730   0.00000  Uiso   1.00
N228   N     0.25030   0.65958   0.93551   0.00000  Uiso   1.00
N229   N     0.87699   0.57566   0.45565   0.00000  Uiso   1.00
N230   N     0.29358   0.02093   0.48439   0.00000  Uiso   1.00
C231   C     0.69270   0.03766   0.84938   0.00000  Uiso   1.00
C232   C     0.76123   0.09331   0.79985   0.00000  Uiso   1.00
C233   C     0.85383   0.08775   0.80805   0.00000  Uiso   1.00
C234   C     0.90496   0.14440   0.75700   0.00000  Uiso   1.00
C235   C     0.01747   0.22165   0.68876   0.00000  Uiso   1.00
C236   C     0.62910   0.99031   0.77673   0.00000  Uiso   1.00
C237   C     0.61061   0.89815   0.76551   0.00000  Uiso   1.00
C238   C     0.55050   0.86809   0.69500   0.00000  Uiso   1.00
C239   C     0.45782   0.78543   0.59092   0.00000  Uiso   1.00
C240   C     0.63715   0.10508   0.89942   0.00000  Uiso   1.00
C241   C     0.62541   0.10941   0.99134   0.00000  Uiso   1.00
C242   C     0.57206   0.17598   0.02413   0.00000  Uiso   1.00
C243   C     0.49188   0.27152   0.11053   0.00000  Uiso   1.00
C244   C     0.61882   0.14816   0.74414   0.00000  Uiso   1.00
C245   C     0.72110   0.15333   0.74269   0.00000  Uiso   1.00
C246   C     0.77210   0.21001   0.69162   0.00000  Uiso   1.00
C247   C     0.86477   0.20453   0.69974   0.00000  Uiso   1.00
C248   C     0.58897   0.05032   0.71958   0.00000  Uiso   1.00
C249   C     0.52887   0.02040   0.64908   0.00000  Uiso   1.00
C250   C     0.51030   0.92822   0.63774   0.00000  Uiso   1.00
C251   C     0.59702   0.16511   0.84226   0.00000  Uiso   1.00
C252   C     0.54367   0.23167   0.87491   0.00000  Uiso   1.00
C253   C     0.53186   0.23611   0.96686   0.00000  Uiso   1.00
H254   H     0.72394   0.99093   0.89387   0.00000  Uiso   1.00
H255   H     0.88486   0.04129   0.85228   0.00000  Uiso   1.00
H256   H     0.64167   0.85172   0.80976   0.00000  Uiso   1.00
H257   H     0.65647   0.06295   0.03555   0.00000  Uiso   1.00
H258   H     0.04558   0.12356   0.78094   0.00000  Uiso   1.00
H259   H     0.53276   0.72384   0.69129   0.00000  Uiso   1.00
H260   H     0.56397   0.16928   0.16743   0.00000  Uiso   1.00
H261   H     0.58758   0.19489   0.69964   0.00000  Uiso   1.00
H262   H     0.74103   0.25645   0.64739   0.00000  Uiso   1.00
H263   H     0.49783   0.06687   0.60486   0.00000  Uiso   1.00
H264   H     0.51263   0.27811   0.83066   0.00000  Uiso   1.00
H265   H     0.92884   0.29819   0.61464   0.00000  Uiso   1.00
H266   H     0.41601   0.89847   0.52499   0.00000  Uiso   1.00
H267   H     0.44723   0.34391   0.00113   0.00000  Uiso   1.00
O268   O     0.09061   0.24767   0.66690   0.00000  Uiso   1.00
O269   O     0.41780   0.72325   0.54929   0.00000  Uiso   1.00
O270   O     0.45875   0.30765   0.17397   0.00000  Uiso   1.00
N271   N     0.99705   0.15623   0.74899   0.00000  Uiso   1.00
N272   N     0.51760   0.78251   0.66516   0.00000  Uiso   1.00
N273   N     0.54676   0.19894   0.11030   0.00000  Uiso   1.00
N274   N     0.93423   0.25020   0.65950   0.00000  Uiso   1.00
N275   N     0.45479   0.87648   0.57567   0.00000  Uiso   1.00
N276   N     0.48395   0.29291   0.02082   0.00000  Uiso   1.00
