data_job_03360
_audit_creation_date              2018-12-19
_audit_creation_method            'Materials Studio'
_symmetry_space_group_name_H-M    'P1'
_symmetry_Int_Tables_number       1
_symmetry_cell_setting            triclinic
loop_
_symmetry_equiv_pos_as_xyz
  x,y,z
_cell_length_a                    14.4852
_cell_length_b                    14.4852
_cell_length_c                    25.8600
_cell_angle_alpha                 90.0000
_cell_angle_beta                  90.0000
_cell_angle_gamma                 120.0000
loop_
_atom_site_label
_atom_site_type_symbol
_atom_site_fract_x
_atom_site_fract_y
_atom_site_fract_z
_atom_site_U_iso_or_equiv
_atom_site_adp_type
_atom_site_occupancy
C1     C     0.04238   0.28865   0.45013   0.00000  Uiso   1.00
C2     C     0.99050   0.34729   0.42565   0.00000  Uiso   1.00
C3     C     0.92102   0.31171   0.38389   0.00000  Uiso   1.00
C4     C     0.88220   0.37700   0.36724   0.00000  Uiso   1.00
C5     C     0.79717   0.45327   0.32552   0.00000  Uiso   1.00
C6     C     0.16225   0.36574   0.44818   0.00000  Uiso   1.00
C7     C     0.23718   0.34567   0.42537   0.00000  Uiso   1.00
C8     C     0.34295   0.42649   0.42770   0.00000  Uiso   1.00
C9     C     0.52457   0.53137   0.42099   0.00000  Uiso   1.00
C10    C     0.01183   0.27575   0.50719   0.00000  Uiso   1.00
C11    C     0.96030   0.18000   0.53400   0.00000  Uiso   1.00
C12    C     0.93945   0.18506   0.58601   0.00000  Uiso   1.00
C13    C     0.88751   0.15021   0.67092   0.00000  Uiso   1.00
C14    C     0.09699   0.46787   0.49483   0.00000  Uiso   1.00
C15    C     0.02016   0.44464   0.44993   0.00000  Uiso   1.00
C16    C     0.98143   0.51000   0.43334   0.00000  Uiso   1.00
C17    C     0.91191   0.47452   0.39156   0.00000  Uiso   1.00
C18    C     0.19191   0.46309   0.47245   0.00000  Uiso   1.00
C19    C     0.29759   0.54395   0.47482   0.00000  Uiso   1.00
C20    C     0.37266   0.52401   0.45202   0.00000  Uiso   1.00
C21    C     0.04148   0.37309   0.53146   0.00000  Uiso   1.00
C22    C     0.02071   0.37829   0.58345   0.00000  Uiso   1.00
C23    C     0.96916   0.28258   0.61033   0.00000  Uiso   1.00
H24    H     0.01930   0.21287   0.43123   0.00000  Uiso   1.00
H25    H     0.89809   0.23637   0.36511   0.00000  Uiso   1.00
H26    H     0.21420   0.27032   0.40659   0.00000  Uiso   1.00
H27    H     0.93736   0.10469   0.51520   0.00000  Uiso   1.00
H28    H     0.77683   0.30538   0.30250   0.00000  Uiso   1.00
H29    H     0.44337   0.37695   0.38997   0.00000  Uiso   1.00
H30    H     0.85960   0.02768   0.61900   0.00000  Uiso   1.00
H31    H     0.12008   0.54367   0.51373   0.00000  Uiso   1.00
H32    H     0.00440   0.58533   0.45213   0.00000  Uiso   1.00
H33    H     0.32052   0.61927   0.49361   0.00000  Uiso   1.00
H34    H     0.04368   0.45364   0.60222   0.00000  Uiso   1.00
H35    H     0.86312   0.58861   0.37313   0.00000  Uiso   1.00
H36    H     0.52966   0.66018   0.46061   0.00000  Uiso   1.00
H37    H     0.94589   0.31090   0.68963   0.00000  Uiso   1.00
O38    O     0.74209   0.46845   0.29579   0.00000  Uiso   1.00
O39    O     0.61656   0.56233   0.41057   0.00000  Uiso   1.00
O40    O     0.85066   0.10409   0.71105   0.00000  Uiso   1.00
N41    N     0.81299   0.36631   0.32758   0.00000  Uiso   1.00
N42    N     0.43617   0.43323   0.40936   0.00000  Uiso   1.00
N43    N     0.89042   0.10669   0.62348   0.00000  Uiso   1.00
N44    N     0.85943   0.51871   0.36559   0.00000  Uiso   1.00
N45    N     0.48260   0.58563   0.44736   0.00000  Uiso   1.00
N46    N     0.93685   0.25909   0.66149   0.00000  Uiso   1.00
C47    C     0.71135   0.75373   0.11680   0.00000  Uiso   1.00
C48    C     0.65271   0.64321   0.09231   0.00000  Uiso   1.00
C49    C     0.68829   0.60931   0.05056   0.00000  Uiso   1.00
C50    C     0.62300   0.50520   0.03391   0.00000  Uiso   1.00
C51    C     0.54673   0.34390   0.99219   0.00000  Uiso   1.00
C52    C     0.63426   0.79651   0.11485   0.00000  Uiso   1.00
C53    C     0.65433   0.89151   0.09204   0.00000  Uiso   1.00
C54    C     0.57351   0.91646   0.09436   0.00000  Uiso   1.00
C55    C     0.46863   0.99320   0.08765   0.00000  Uiso   1.00
C56    C     0.72425   0.73608   0.17385   0.00000  Uiso   1.00
C57    C     0.82000   0.78030   0.20067   0.00000  Uiso   1.00
C58    C     0.81494   0.75439   0.25268   0.00000  Uiso   1.00
C59    C     0.84979   0.73731   0.33759   0.00000  Uiso   1.00
C60    C     0.53213   0.62911   0.16149   0.00000  Uiso   1.00
C61    C     0.55536   0.57552   0.11659   0.00000  Uiso   1.00
C62    C     0.49000   0.47144   0.10001   0.00000  Uiso   1.00
C63    C     0.52548   0.43739   0.05823   0.00000  Uiso   1.00
C64    C     0.53691   0.72883   0.13912   0.00000  Uiso   1.00
C65    C     0.45605   0.75364   0.14149   0.00000  Uiso   1.00
C66    C     0.47599   0.84865   0.11868   0.00000  Uiso   1.00
C67    C     0.62691   0.66839   0.19813   0.00000  Uiso   1.00
C68    C     0.62171   0.64242   0.25011   0.00000  Uiso   1.00
C69    C     0.71742   0.68658   0.27700   0.00000  Uiso   1.00
H70    H     0.78713   0.80643   0.09789   0.00000  Uiso   1.00
H71    H     0.76363   0.66172   0.03177   0.00000  Uiso   1.00
H72    H     0.72968   0.94388   0.07326   0.00000  Uiso   1.00
H73    H     0.89531   0.83268   0.18187   0.00000  Uiso   1.00
H74    H     0.69462   0.47144   0.96916   0.00000  Uiso   1.00
H75    H     0.62305   0.06641   0.05664   0.00000  Uiso   1.00
H76    H     0.97232   0.83192   0.28567   0.00000  Uiso   1.00
H77    H     0.45633   0.57642   0.18039   0.00000  Uiso   1.00
H78    H     0.41467   0.41908   0.11880   0.00000  Uiso   1.00
H79    H     0.38073   0.70124   0.16028   0.00000  Uiso   1.00
H80    H     0.54636   0.59004   0.26889   0.00000  Uiso   1.00
H81    H     0.41139   0.27451   0.03979   0.00000  Uiso   1.00
H82    H     0.33982   0.86949   0.12727   0.00000  Uiso   1.00
H83    H     0.68910   0.63499   0.35630   0.00000  Uiso   1.00
O84    O     0.53155   0.27364   0.96246   0.00000  Uiso   1.00
O85    O     0.43767   0.05423   0.07724   0.00000  Uiso   1.00
O86    O     0.89591   0.74657   0.37771   0.00000  Uiso   1.00
N87    N     0.63369   0.44668   0.99425   0.00000  Uiso   1.00
N88    N     0.56677   0.00294   0.07603   0.00000  Uiso   1.00
N89    N     0.89331   0.78373   0.29015   0.00000  Uiso   1.00
N90    N     0.48129   0.34071   0.03225   0.00000  Uiso   1.00
N91    N     0.41437   0.89697   0.11403   0.00000  Uiso   1.00
N92    N     0.74091   0.67776   0.32816   0.00000  Uiso   1.00
C93    C     0.24627   0.95762   0.78346   0.00000  Uiso   1.00
C94    C     0.35679   0.00950   0.75898   0.00000  Uiso   1.00
C95    C     0.39069   0.07898   0.71722   0.00000  Uiso   1.00
C96    C     0.49480   0.11780   0.70057   0.00000  Uiso   1.00
C97    C     0.65610   0.20283   0.65885   0.00000  Uiso   1.00
C98    C     0.20349   0.83775   0.78151   0.00000  Uiso   1.00
C99    C     0.10849   0.76282   0.75870   0.00000  Uiso   1.00
C100   C     0.08354   0.65705   0.76103   0.00000  Uiso   1.00
C101   C     0.00680   0.47543   0.75432   0.00000  Uiso   1.00
C102   C     0.26392   0.98817   0.84052   0.00000  Uiso   1.00
C103   C     0.21970   0.03970   0.86733   0.00000  Uiso   1.00
C104   C     0.24561   0.06055   0.91934   0.00000  Uiso   1.00
C105   C     0.26269   0.11249   0.00425   0.00000  Uiso   1.00
C106   C     0.37089   0.90301   0.82816   0.00000  Uiso   1.00
C107   C     0.42448   0.97984   0.78326   0.00000  Uiso   1.00
C108   C     0.52856   0.01857   0.76667   0.00000  Uiso   1.00
C109   C     0.56261   0.08809   0.72490   0.00000  Uiso   1.00
C110   C     0.27117   0.80809   0.80579   0.00000  Uiso   1.00
C111   C     0.24636   0.70241   0.80815   0.00000  Uiso   1.00
C112   C     0.15135   0.62734   0.78535   0.00000  Uiso   1.00
C113   C     0.33161   0.95852   0.86480   0.00000  Uiso   1.00
C114   C     0.35758   0.97929   0.91678   0.00000  Uiso   1.00
C115   C     0.31342   0.03084   0.94366   0.00000  Uiso   1.00
H116   H     0.19357   0.98070   0.76456   0.00000  Uiso   1.00
H117   H     0.33828   0.10191   0.69844   0.00000  Uiso   1.00
H118   H     0.05612   0.78580   0.73992   0.00000  Uiso   1.00
H119   H     0.16732   0.06264   0.84853   0.00000  Uiso   1.00
H120   H     0.52856   0.22317   0.63583   0.00000  Uiso   1.00
H121   H     0.93359   0.55663   0.72331   0.00000  Uiso   1.00
H122   H     0.16808   0.14040   0.95234   0.00000  Uiso   1.00
H123   H     0.42358   0.87992   0.84706   0.00000  Uiso   1.00
H124   H     0.58092   0.99560   0.78547   0.00000  Uiso   1.00
H125   H     0.29876   0.67948   0.82695   0.00000  Uiso   1.00
H126   H     0.40996   0.95632   0.93555   0.00000  Uiso   1.00
H127   H     0.72549   0.13688   0.70646   0.00000  Uiso   1.00
H128   H     0.13051   0.47034   0.79394   0.00000  Uiso   1.00
H129   H     0.36501   0.05411   0.02297   0.00000  Uiso   1.00
O130   O     0.72636   0.25791   0.62913   0.00000  Uiso   1.00
O131   O     0.94577   0.38344   0.74391   0.00000  Uiso   1.00
O132   O     0.25343   0.14934   0.04438   0.00000  Uiso   1.00
N133   N     0.55332   0.18701   0.66091   0.00000  Uiso   1.00
N134   N     0.99706   0.56383   0.74269   0.00000  Uiso   1.00
N135   N     0.21627   0.10958   0.95682   0.00000  Uiso   1.00
N136   N     0.65929   0.14057   0.69892   0.00000  Uiso   1.00
N137   N     0.10303   0.51740   0.78070   0.00000  Uiso   1.00
N138   N     0.32224   0.06315   0.99482   0.00000  Uiso   1.00
C139   C     0.28865   0.04238   0.54987   0.00000  Uiso   1.00
C140   C     0.34729   0.99050   0.57435   0.00000  Uiso   1.00
C141   C     0.31171   0.92102   0.61611   0.00000  Uiso   1.00
C142   C     0.37700   0.88220   0.63276   0.00000  Uiso   1.00
C143   C     0.45327   0.79717   0.67448   0.00000  Uiso   1.00
C144   C     0.36574   0.16225   0.55182   0.00000  Uiso   1.00
C145   C     0.34567   0.23718   0.57463   0.00000  Uiso   1.00
C146   C     0.42649   0.34295   0.57230   0.00000  Uiso   1.00
C147   C     0.53137   0.52457   0.57901   0.00000  Uiso   1.00
C148   C     0.27575   0.01183   0.49281   0.00000  Uiso   1.00
C149   C     0.18000   0.96030   0.46600   0.00000  Uiso   1.00
C150   C     0.18506   0.93945   0.41399   0.00000  Uiso   1.00
C151   C     0.15021   0.88751   0.32908   0.00000  Uiso   1.00
C152   C     0.46787   0.09699   0.50517   0.00000  Uiso   1.00
C153   C     0.44464   0.02016   0.55007   0.00000  Uiso   1.00
C154   C     0.51000   0.98143   0.56666   0.00000  Uiso   1.00
C155   C     0.47452   0.91191   0.60844   0.00000  Uiso   1.00
C156   C     0.46309   0.19191   0.52755   0.00000  Uiso   1.00
C157   C     0.54395   0.29759   0.52518   0.00000  Uiso   1.00
C158   C     0.52401   0.37266   0.54798   0.00000  Uiso   1.00
C159   C     0.37309   0.04148   0.46854   0.00000  Uiso   1.00
C160   C     0.37829   0.02071   0.41655   0.00000  Uiso   1.00
C161   C     0.28258   0.96916   0.38967   0.00000  Uiso   1.00
H162   H     0.21287   0.01930   0.56877   0.00000  Uiso   1.00
H163   H     0.23637   0.89809   0.63489   0.00000  Uiso   1.00
H164   H     0.27032   0.21420   0.59341   0.00000  Uiso   1.00
H165   H     0.10469   0.93736   0.48480   0.00000  Uiso   1.00
H166   H     0.30538   0.77683   0.69750   0.00000  Uiso   1.00
H167   H     0.37695   0.44337   0.61003   0.00000  Uiso   1.00
H168   H     0.02768   0.85960   0.38100   0.00000  Uiso   1.00
H169   H     0.54367   0.12008   0.48627   0.00000  Uiso   1.00
H170   H     0.58533   0.00440   0.54787   0.00000  Uiso   1.00
H171   H     0.61927   0.32052   0.50639   0.00000  Uiso   1.00
H172   H     0.45364   0.04368   0.39778   0.00000  Uiso   1.00
H173   H     0.58861   0.86312   0.62687   0.00000  Uiso   1.00
H174   H     0.66018   0.52966   0.53939   0.00000  Uiso   1.00
H175   H     0.31090   0.94589   0.31037   0.00000  Uiso   1.00
O176   O     0.46845   0.74209   0.70421   0.00000  Uiso   1.00
O177   O     0.56233   0.61656   0.58943   0.00000  Uiso   1.00
O178   O     0.10409   0.85066   0.28895   0.00000  Uiso   1.00
N179   N     0.36631   0.81299   0.67242   0.00000  Uiso   1.00
N180   N     0.43323   0.43617   0.59064   0.00000  Uiso   1.00
N181   N     0.10669   0.89042   0.37652   0.00000  Uiso   1.00
N182   N     0.51871   0.85943   0.63441   0.00000  Uiso   1.00
N183   N     0.58563   0.48260   0.55264   0.00000  Uiso   1.00
N184   N     0.25909   0.93685   0.33851   0.00000  Uiso   1.00
C185   C     0.75373   0.71135   0.88320   0.00000  Uiso   1.00
C186   C     0.64321   0.65271   0.90769   0.00000  Uiso   1.00
C187   C     0.60931   0.68829   0.94944   0.00000  Uiso   1.00
C188   C     0.50520   0.62300   0.96609   0.00000  Uiso   1.00
C189   C     0.34390   0.54673   0.00781   0.00000  Uiso   1.00
C190   C     0.79651   0.63426   0.88515   0.00000  Uiso   1.00
C191   C     0.89151   0.65433   0.90796   0.00000  Uiso   1.00
C192   C     0.91646   0.57351   0.90564   0.00000  Uiso   1.00
C193   C     0.99320   0.46863   0.91235   0.00000  Uiso   1.00
C194   C     0.73608   0.72425   0.82615   0.00000  Uiso   1.00
C195   C     0.78030   0.82000   0.79933   0.00000  Uiso   1.00
C196   C     0.75439   0.81494   0.74732   0.00000  Uiso   1.00
C197   C     0.73731   0.84979   0.66241   0.00000  Uiso   1.00
C198   C     0.62911   0.53213   0.83851   0.00000  Uiso   1.00
C199   C     0.57552   0.55536   0.88341   0.00000  Uiso   1.00
C200   C     0.47144   0.49000   0.89999   0.00000  Uiso   1.00
C201   C     0.43739   0.52548   0.94177   0.00000  Uiso   1.00
C202   C     0.72883   0.53691   0.86088   0.00000  Uiso   1.00
C203   C     0.75364   0.45605   0.85851   0.00000  Uiso   1.00
C204   C     0.84865   0.47599   0.88132   0.00000  Uiso   1.00
C205   C     0.66839   0.62691   0.80187   0.00000  Uiso   1.00
C206   C     0.64242   0.62171   0.74989   0.00000  Uiso   1.00
C207   C     0.68658   0.71742   0.72300   0.00000  Uiso   1.00
H208   H     0.80643   0.78713   0.90211   0.00000  Uiso   1.00
H209   H     0.66172   0.76363   0.96823   0.00000  Uiso   1.00
H210   H     0.94388   0.72968   0.92674   0.00000  Uiso   1.00
H211   H     0.83268   0.89531   0.81813   0.00000  Uiso   1.00
H212   H     0.47144   0.69462   0.03084   0.00000  Uiso   1.00
H213   H     0.06641   0.62305   0.94336   0.00000  Uiso   1.00
H214   H     0.83192   0.97232   0.71433   0.00000  Uiso   1.00
H215   H     0.57642   0.45633   0.81961   0.00000  Uiso   1.00
H216   H     0.41908   0.41467   0.88120   0.00000  Uiso   1.00
H217   H     0.70124   0.38073   0.83972   0.00000  Uiso   1.00
H218   H     0.59004   0.54636   0.73111   0.00000  Uiso   1.00
H219   H     0.27451   0.41139   0.96021   0.00000  Uiso   1.00
H220   H     0.86949   0.33982   0.87273   0.00000  Uiso   1.00
H221   H     0.63499   0.68910   0.64370   0.00000  Uiso   1.00
O222   O     0.27364   0.53155   0.03754   0.00000  Uiso   1.00
O223   O     0.05423   0.43767   0.92276   0.00000  Uiso   1.00
O224   O     0.74657   0.89591   0.62229   0.00000  Uiso   1.00
N225   N     0.44668   0.63369   0.00575   0.00000  Uiso   1.00
N226   N     0.00294   0.56677   0.92397   0.00000  Uiso   1.00
N227   N     0.78373   0.89331   0.70985   0.00000  Uiso   1.00
N228   N     0.34071   0.48129   0.96775   0.00000  Uiso   1.00
N229   N     0.89697   0.41437   0.88597   0.00000  Uiso   1.00
N230   N     0.67776   0.74091   0.67184   0.00000  Uiso   1.00
C231   C     0.95762   0.24627   0.21654   0.00000  Uiso   1.00
C232   C     0.00950   0.35679   0.24102   0.00000  Uiso   1.00
C233   C     0.07898   0.39069   0.28278   0.00000  Uiso   1.00
C234   C     0.11780   0.49480   0.29943   0.00000  Uiso   1.00
C235   C     0.20283   0.65610   0.34115   0.00000  Uiso   1.00
C236   C     0.83775   0.20349   0.21849   0.00000  Uiso   1.00
C237   C     0.76282   0.10849   0.24130   0.00000  Uiso   1.00
C238   C     0.65705   0.08354   0.23897   0.00000  Uiso   1.00
C239   C     0.47543   0.00680   0.24568   0.00000  Uiso   1.00
C240   C     0.98817   0.26392   0.15948   0.00000  Uiso   1.00
C241   C     0.03970   0.21970   0.13267   0.00000  Uiso   1.00
C242   C     0.06055   0.24561   0.08066   0.00000  Uiso   1.00
C243   C     0.11249   0.26269   0.99575   0.00000  Uiso   1.00
C244   C     0.90301   0.37089   0.17184   0.00000  Uiso   1.00
C245   C     0.97984   0.42448   0.21674   0.00000  Uiso   1.00
C246   C     0.01857   0.52856   0.23333   0.00000  Uiso   1.00
C247   C     0.08809   0.56261   0.27510   0.00000  Uiso   1.00
C248   C     0.80809   0.27117   0.19421   0.00000  Uiso   1.00
C249   C     0.70241   0.24636   0.19185   0.00000  Uiso   1.00
C250   C     0.62734   0.15135   0.21465   0.00000  Uiso   1.00
C251   C     0.95852   0.33161   0.13520   0.00000  Uiso   1.00
C252   C     0.97929   0.35758   0.08322   0.00000  Uiso   1.00
C253   C     0.03084   0.31342   0.05634   0.00000  Uiso   1.00
H254   H     0.98070   0.19357   0.23544   0.00000  Uiso   1.00
H255   H     0.10191   0.33828   0.30156   0.00000  Uiso   1.00
H256   H     0.78580   0.05612   0.26008   0.00000  Uiso   1.00
H257   H     0.06264   0.16732   0.15147   0.00000  Uiso   1.00
H258   H     0.22317   0.52856   0.36417   0.00000  Uiso   1.00
H259   H     0.55663   0.93359   0.27669   0.00000  Uiso   1.00
H260   H     0.14040   0.16808   0.04766   0.00000  Uiso   1.00
H261   H     0.87992   0.42358   0.15294   0.00000  Uiso   1.00
H262   H     0.99560   0.58092   0.21453   0.00000  Uiso   1.00
H263   H     0.67948   0.29876   0.17305   0.00000  Uiso   1.00
H264   H     0.95632   0.40996   0.06445   0.00000  Uiso   1.00
H265   H     0.13688   0.72549   0.29354   0.00000  Uiso   1.00
H266   H     0.47034   0.13051   0.20606   0.00000  Uiso   1.00
H267   H     0.05411   0.36501   0.97703   0.00000  Uiso   1.00
O268   O     0.25791   0.72636   0.37087   0.00000  Uiso   1.00
O269   O     0.38344   0.94577   0.25609   0.00000  Uiso   1.00
O270   O     0.14934   0.25343   0.95562   0.00000  Uiso   1.00
N271   N     0.18701   0.55332   0.33909   0.00000  Uiso   1.00
N272   N     0.56383   0.99706   0.25731   0.00000  Uiso   1.00
N273   N     0.10958   0.21627   0.04318   0.00000  Uiso   1.00
N274   N     0.14057   0.65929   0.30108   0.00000  Uiso   1.00
N275   N     0.51740   0.10303   0.21930   0.00000  Uiso   1.00
N276   N     0.06315   0.32224   0.00518   0.00000  Uiso   1.00
