data_job_03814
_audit_creation_date              2018-12-19
_audit_creation_method            'Materials Studio'
_symmetry_space_group_name_H-M    'P1'
_symmetry_Int_Tables_number       1
_symmetry_cell_setting            triclinic
loop_
_symmetry_equiv_pos_as_xyz
  x,y,z
_cell_length_a                    12.1683
_cell_length_b                    12.8388
_cell_length_c                    20.3220
_cell_angle_alpha                 90.0000
_cell_angle_beta                  115.5542
_cell_angle_gamma                 90.0000
loop_
_atom_site_label
_atom_site_type_symbol
_atom_site_fract_x
_atom_site_fract_y
_atom_site_fract_z
_atom_site_U_iso_or_equiv
_atom_site_adp_type
_atom_site_occupancy
C1     C     0.74720   0.23628   0.12770   0.00000  Uiso   1.00
C2     C     0.79688   0.27508   0.07489   0.00000  Uiso   1.00
C3     C     0.89422   0.23231   0.06585   0.00000  Uiso   1.00
C4     C     0.92565   0.27913   0.01477   0.00000  Uiso   1.00
C5     C     0.01253   0.32626   0.93896   0.00000  Uiso   1.00
C6     C     0.75185   0.32923   0.17555   0.00000  Uiso   1.00
C7     C     0.81131   0.33198   0.25115   0.00000  Uiso   1.00
C8     C     0.80482   0.42437   0.28480   0.00000  Uiso   1.00
C9     C     0.82171   0.55554   0.36527   0.00000  Uiso   1.00
C10    C     0.61249   0.21362   0.08151   0.00000  Uiso   1.00
C11    C     0.55476   0.11917   0.07805   0.00000  Uiso   1.00
C12    C     0.43092   0.11424   0.03254   0.00000  Uiso   1.00
C13    C     0.23143   0.06591   0.96700   0.00000  Uiso   1.00
C14    C     0.62990   0.39546   0.05304   0.00000  Uiso   1.00
C15    C     0.73317   0.36155   0.03434   0.00000  Uiso   1.00
C16    C     0.76445   0.40843   0.98325   0.00000  Uiso   1.00
C17    C     0.86183   0.36574   0.97414   0.00000  Uiso   1.00
C18    C     0.68814   0.41569   0.13500   0.00000  Uiso   1.00
C19    C     0.68154   0.50810   0.16855   0.00000  Uiso   1.00
C20    C     0.74099   0.51099   0.24418   0.00000  Uiso   1.00
C21    C     0.54877   0.30008   0.04096   0.00000  Uiso   1.00
C22    C     0.42500   0.29530   0.99545   0.00000  Uiso   1.00
C23    C     0.36710   0.20086   0.99192   0.00000  Uiso   1.00
H24    H     0.79680   0.16897   0.15927   0.00000  Uiso   1.00
H25    H     0.94351   0.16541   0.09725   0.00000  Uiso   1.00
H26    H     0.86060   0.26505   0.28251   0.00000  Uiso   1.00
H27    H     0.60409   0.05228   0.10944   0.00000  Uiso   1.00
H28    H     0.07811   0.19961   0.01062   0.00000  Uiso   1.00
H29    H     0.90325   0.40971   0.40126   0.00000  Uiso   1.00
H30    H     0.36235   0.96104   0.03631   0.00000  Uiso   1.00
H31    H     0.58030   0.46278   0.02147   0.00000  Uiso   1.00
H32    H     0.71513   0.47534   0.95188   0.00000  Uiso   1.00
H33    H     0.63223   0.57499   0.13715   0.00000  Uiso   1.00
H34    H     0.37572   0.36222   0.96408   0.00000  Uiso   1.00
H35    H     0.89275   0.45117   0.89264   0.00000  Uiso   1.00
H36    H     0.71789   0.66127   0.28329   0.00000  Uiso   1.00
H37    H     0.17700   0.21260   0.91833   0.00000  Uiso   1.00
O38    O     0.07806   0.32838   0.90835   0.00000  Uiso   1.00
O39    O     0.84864   0.60401   0.42087   0.00000  Uiso   1.00
O40    O     0.13900   0.01536   0.94205   0.00000  Uiso   1.00
N41    N     0.01596   0.25708   0.99239   0.00000  Uiso   1.00
N42    N     0.85250   0.45352   0.35762   0.00000  Uiso   1.00
N43    N     0.34680   0.03406   0.01643   0.00000  Uiso   1.00
N44    N     0.91622   0.39244   0.92890   0.00000  Uiso   1.00
N45    N     0.75276   0.58888   0.29414   0.00000  Uiso   1.00
N46    N     0.24706   0.16942   0.95295   0.00000  Uiso   1.00
C47    C     0.25280   0.73628   0.37230   0.00000  Uiso   1.00
C48    C     0.20312   0.77508   0.42511   0.00000  Uiso   1.00
C49    C     0.10578   0.73231   0.43415   0.00000  Uiso   1.00
C50    C     0.07435   0.77913   0.48523   0.00000  Uiso   1.00
C51    C     0.98747   0.82626   0.56104   0.00000  Uiso   1.00
C52    C     0.24815   0.82923   0.32445   0.00000  Uiso   1.00
C53    C     0.18869   0.83198   0.24885   0.00000  Uiso   1.00
C54    C     0.19518   0.92437   0.21520   0.00000  Uiso   1.00
C55    C     0.17829   0.05554   0.13473   0.00000  Uiso   1.00
C56    C     0.38751   0.71362   0.41849   0.00000  Uiso   1.00
C57    C     0.44524   0.61917   0.42195   0.00000  Uiso   1.00
C58    C     0.56908   0.61424   0.46746   0.00000  Uiso   1.00
C59    C     0.76857   0.56591   0.53300   0.00000  Uiso   1.00
C60    C     0.37010   0.89546   0.44696   0.00000  Uiso   1.00
C61    C     0.26683   0.86155   0.46566   0.00000  Uiso   1.00
C62    C     0.23555   0.90843   0.51675   0.00000  Uiso   1.00
C63    C     0.13817   0.86574   0.52586   0.00000  Uiso   1.00
C64    C     0.31186   0.91569   0.36500   0.00000  Uiso   1.00
C65    C     0.31846   0.00810   0.33145   0.00000  Uiso   1.00
C66    C     0.25901   0.01099   0.25582   0.00000  Uiso   1.00
C67    C     0.45123   0.80008   0.45904   0.00000  Uiso   1.00
C68    C     0.57500   0.79530   0.50455   0.00000  Uiso   1.00
C69    C     0.63290   0.70086   0.50808   0.00000  Uiso   1.00
H70    H     0.20320   0.66897   0.34073   0.00000  Uiso   1.00
H71    H     0.05649   0.66541   0.40275   0.00000  Uiso   1.00
H72    H     0.13940   0.76505   0.21749   0.00000  Uiso   1.00
H73    H     0.39591   0.55228   0.39056   0.00000  Uiso   1.00
H74    H     0.92189   0.69961   0.48938   0.00000  Uiso   1.00
H75    H     0.09675   0.90971   0.09874   0.00000  Uiso   1.00
H76    H     0.63765   0.46104   0.46369   0.00000  Uiso   1.00
H77    H     0.41970   0.96278   0.47853   0.00000  Uiso   1.00
H78    H     0.28487   0.97534   0.54812   0.00000  Uiso   1.00
H79    H     0.36777   0.07499   0.36285   0.00000  Uiso   1.00
H80    H     0.62428   0.86222   0.53592   0.00000  Uiso   1.00
H81    H     0.10725   0.95117   0.60736   0.00000  Uiso   1.00
H82    H     0.28211   0.16127   0.21671   0.00000  Uiso   1.00
H83    H     0.82300   0.71260   0.58167   0.00000  Uiso   1.00
O84    O     0.92194   0.82838   0.59165   0.00000  Uiso   1.00
O85    O     0.15136   0.10401   0.07913   0.00000  Uiso   1.00
O86    O     0.86100   0.51536   0.55795   0.00000  Uiso   1.00
N87    N     0.98404   0.75708   0.50761   0.00000  Uiso   1.00
N88    N     0.14750   0.95352   0.14238   0.00000  Uiso   1.00
N89    N     0.65320   0.53406   0.48357   0.00000  Uiso   1.00
N90    N     0.08378   0.89244   0.57110   0.00000  Uiso   1.00
N91    N     0.24724   0.08888   0.20586   0.00000  Uiso   1.00
N92    N     0.75294   0.66942   0.54705   0.00000  Uiso   1.00
C93    C     0.25280   0.76372   0.87230   0.00000  Uiso   1.00
C94    C     0.20312   0.72492   0.92511   0.00000  Uiso   1.00
C95    C     0.10578   0.76769   0.93415   0.00000  Uiso   1.00
C96    C     0.07435   0.72087   0.98523   0.00000  Uiso   1.00
C97    C     0.98747   0.67374   0.06104   0.00000  Uiso   1.00
C98    C     0.24815   0.67077   0.82445   0.00000  Uiso   1.00
C99    C     0.18869   0.66802   0.74885   0.00000  Uiso   1.00
C100   C     0.19518   0.57563   0.71520   0.00000  Uiso   1.00
C101   C     0.17829   0.44446   0.63473   0.00000  Uiso   1.00
C102   C     0.38751   0.78638   0.91849   0.00000  Uiso   1.00
C103   C     0.44524   0.88083   0.92195   0.00000  Uiso   1.00
C104   C     0.56908   0.88576   0.96746   0.00000  Uiso   1.00
C105   C     0.76857   0.93409   0.03300   0.00000  Uiso   1.00
C106   C     0.37010   0.60454   0.94696   0.00000  Uiso   1.00
C107   C     0.26683   0.63845   0.96566   0.00000  Uiso   1.00
C108   C     0.23555   0.59157   0.01675   0.00000  Uiso   1.00
C109   C     0.13817   0.63426   0.02586   0.00000  Uiso   1.00
C110   C     0.31186   0.58431   0.86500   0.00000  Uiso   1.00
C111   C     0.31846   0.49190   0.83145   0.00000  Uiso   1.00
C112   C     0.25901   0.48901   0.75582   0.00000  Uiso   1.00
C113   C     0.45123   0.69992   0.95904   0.00000  Uiso   1.00
C114   C     0.57500   0.70470   0.00455   0.00000  Uiso   1.00
C115   C     0.63290   0.79914   0.00808   0.00000  Uiso   1.00
H116   H     0.20320   0.83103   0.84073   0.00000  Uiso   1.00
H117   H     0.05649   0.83459   0.90275   0.00000  Uiso   1.00
H118   H     0.13940   0.73495   0.71749   0.00000  Uiso   1.00
H119   H     0.39591   0.94772   0.89056   0.00000  Uiso   1.00
H120   H     0.92189   0.80039   0.98938   0.00000  Uiso   1.00
H121   H     0.09675   0.59029   0.59874   0.00000  Uiso   1.00
H122   H     0.63765   0.03896   0.96369   0.00000  Uiso   1.00
H123   H     0.41970   0.53722   0.97853   0.00000  Uiso   1.00
H124   H     0.28487   0.52466   0.04812   0.00000  Uiso   1.00
H125   H     0.36777   0.42501   0.86285   0.00000  Uiso   1.00
H126   H     0.62428   0.63778   0.03592   0.00000  Uiso   1.00
H127   H     0.10725   0.54883   0.10736   0.00000  Uiso   1.00
H128   H     0.28211   0.33873   0.71671   0.00000  Uiso   1.00
H129   H     0.82300   0.78740   0.08167   0.00000  Uiso   1.00
O130   O     0.92194   0.67162   0.09165   0.00000  Uiso   1.00
O131   O     0.15136   0.39599   0.57913   0.00000  Uiso   1.00
O132   O     0.86100   0.98464   0.05795   0.00000  Uiso   1.00
N133   N     0.98404   0.74292   0.00761   0.00000  Uiso   1.00
N134   N     0.14750   0.54648   0.64238   0.00000  Uiso   1.00
N135   N     0.65320   0.96594   0.98357   0.00000  Uiso   1.00
N136   N     0.08378   0.60756   0.07110   0.00000  Uiso   1.00
N137   N     0.24724   0.41112   0.70586   0.00000  Uiso   1.00
N138   N     0.75294   0.83058   0.04705   0.00000  Uiso   1.00
C139   C     0.74720   0.26372   0.62770   0.00000  Uiso   1.00
C140   C     0.79688   0.22492   0.57489   0.00000  Uiso   1.00
C141   C     0.89422   0.26769   0.56585   0.00000  Uiso   1.00
C142   C     0.92565   0.22087   0.51477   0.00000  Uiso   1.00
C143   C     0.01253   0.17374   0.43896   0.00000  Uiso   1.00
C144   C     0.75185   0.17077   0.67555   0.00000  Uiso   1.00
C145   C     0.81131   0.16802   0.75115   0.00000  Uiso   1.00
C146   C     0.80482   0.07563   0.78480   0.00000  Uiso   1.00
C147   C     0.82171   0.94446   0.86527   0.00000  Uiso   1.00
C148   C     0.61249   0.28638   0.58151   0.00000  Uiso   1.00
C149   C     0.55476   0.38083   0.57805   0.00000  Uiso   1.00
C150   C     0.43092   0.38576   0.53254   0.00000  Uiso   1.00
C151   C     0.23143   0.43409   0.46700   0.00000  Uiso   1.00
C152   C     0.62990   0.10454   0.55304   0.00000  Uiso   1.00
C153   C     0.73317   0.13845   0.53434   0.00000  Uiso   1.00
C154   C     0.76445   0.09157   0.48325   0.00000  Uiso   1.00
C155   C     0.86183   0.13426   0.47414   0.00000  Uiso   1.00
C156   C     0.68814   0.08431   0.63500   0.00000  Uiso   1.00
C157   C     0.68154   0.99190   0.66855   0.00000  Uiso   1.00
C158   C     0.74099   0.98901   0.74418   0.00000  Uiso   1.00
C159   C     0.54877   0.19992   0.54096   0.00000  Uiso   1.00
C160   C     0.42500   0.20470   0.49545   0.00000  Uiso   1.00
C161   C     0.36710   0.29914   0.49192   0.00000  Uiso   1.00
H162   H     0.79680   0.33103   0.65927   0.00000  Uiso   1.00
H163   H     0.94351   0.33459   0.59725   0.00000  Uiso   1.00
H164   H     0.86060   0.23495   0.78251   0.00000  Uiso   1.00
H165   H     0.60409   0.44772   0.60944   0.00000  Uiso   1.00
H166   H     0.07811   0.30039   0.51062   0.00000  Uiso   1.00
H167   H     0.90325   0.09029   0.90126   0.00000  Uiso   1.00
H168   H     0.36235   0.53896   0.53631   0.00000  Uiso   1.00
H169   H     0.58030   0.03722   0.52147   0.00000  Uiso   1.00
H170   H     0.71513   0.02466   0.45188   0.00000  Uiso   1.00
H171   H     0.63223   0.92501   0.63715   0.00000  Uiso   1.00
H172   H     0.37572   0.13778   0.46408   0.00000  Uiso   1.00
H173   H     0.89275   0.04883   0.39264   0.00000  Uiso   1.00
H174   H     0.71789   0.83873   0.78329   0.00000  Uiso   1.00
H175   H     0.17700   0.28740   0.41833   0.00000  Uiso   1.00
O176   O     0.07806   0.17162   0.40835   0.00000  Uiso   1.00
O177   O     0.84864   0.89599   0.92087   0.00000  Uiso   1.00
O178   O     0.13900   0.48464   0.44205   0.00000  Uiso   1.00
N179   N     0.01596   0.24292   0.49239   0.00000  Uiso   1.00
N180   N     0.85250   0.04648   0.85762   0.00000  Uiso   1.00
N181   N     0.34680   0.46594   0.51643   0.00000  Uiso   1.00
N182   N     0.91622   0.10756   0.42890   0.00000  Uiso   1.00
N183   N     0.75276   0.91112   0.79414   0.00000  Uiso   1.00
N184   N     0.24706   0.33058   0.45295   0.00000  Uiso   1.00
