data_job_06878
_audit_creation_date              2018-12-19
_audit_creation_method            'Materials Studio'
_symmetry_space_group_name_H-M    'P1'
_symmetry_Int_Tables_number       1
_symmetry_cell_setting            triclinic
loop_
_symmetry_equiv_pos_as_xyz
  x,y,z
_cell_length_a                    19.4817
_cell_length_b                    21.9215
_cell_length_c                    19.1802
_cell_angle_alpha                 80.5408
_cell_angle_beta                  89.9671
_cell_angle_gamma                 80.0862
loop_
_atom_site_label
_atom_site_type_symbol
_atom_site_fract_x
_atom_site_fract_y
_atom_site_fract_z
_atom_site_U_iso_or_equiv
_atom_site_adp_type
_atom_site_occupancy
C1     C     0.73954   0.33408   0.95795   0.00000  Uiso   1.00
C2     C     0.75929   0.28195   0.91411   0.00000  Uiso   1.00
C3     C     0.75561   0.21902   0.93572   0.00000  Uiso   1.00
C4     C     0.77606   0.17871   0.88785   0.00000  Uiso   1.00
C5     C     0.80324   0.09442   0.82999   0.00000  Uiso   1.00
C6     C     0.80391   0.36454   0.96133   0.00000  Uiso   1.00
C7     C     0.83773   0.37106   0.02264   0.00000  Uiso   1.00
C8     C     0.89574   0.40028   0.01452   0.00000  Uiso   1.00
C9     C     0.99214   0.44426   0.02996   0.00000  Uiso   1.00
C10    C     0.68479   0.38338   0.91383   0.00000  Uiso   1.00
C11    C     0.61845   0.40576   0.93520   0.00000  Uiso   1.00
C12    C     0.57617   0.45085   0.88710   0.00000  Uiso   1.00
C13    C     0.48762   0.52408   0.82879   0.00000  Uiso   1.00
C14    C     0.78240   0.37439   0.83451   0.00000  Uiso   1.00
C15    C     0.78258   0.30384   0.84706   0.00000  Uiso   1.00
C16    C     0.80304   0.26362   0.79915   0.00000  Uiso   1.00
C17    C     0.79939   0.20064   0.82069   0.00000  Uiso   1.00
C18    C     0.82719   0.38643   0.89428   0.00000  Uiso   1.00
C19    C     0.88516   0.41566   0.88607   0.00000  Uiso   1.00
C20    C     0.91906   0.42222   0.94735   0.00000  Uiso   1.00
C21    C     0.70807   0.40527   0.84678   0.00000  Uiso   1.00
C22    C     0.66588   0.45035   0.79863   0.00000  Uiso   1.00
C23    C     0.59949   0.47279   0.81993   0.00000  Uiso   1.00
H24    H     0.72141   0.31704   0.01015   0.00000  Uiso   1.00
H25    H     0.73760   0.20210   0.98761   0.00000  Uiso   1.00
H26    H     0.81970   0.35412   0.07451   0.00000  Uiso   1.00
H27    H     0.60045   0.38881   0.98709   0.00000  Uiso   1.00
H28    H     0.76583   0.08431   0.93307   0.00000  Uiso   1.00
H29    H     0.93893   0.40488   0.11631   0.00000  Uiso   1.00
H30    H     0.47661   0.47803   0.93196   0.00000  Uiso   1.00
H31    H     0.80053   0.39143   0.78231   0.00000  Uiso   1.00
H32    H     0.82106   0.28057   0.74727   0.00000  Uiso   1.00
H33    H     0.90316   0.43259   0.83418   0.00000  Uiso   1.00
H34    H     0.68392   0.46728   0.74675   0.00000  Uiso   1.00
H35    H     0.83358   0.14800   0.73800   0.00000  Uiso   1.00
H36    H     0.00667   0.46857   0.92124   0.00000  Uiso   1.00
H37    H     0.54436   0.54171   0.73689   0.00000  Uiso   1.00
O38    O     0.81180   0.04188   0.81660   0.00000  Uiso   1.00
O39    O     0.03889   0.46247   0.05701   0.00000  Uiso   1.00
O40    O     0.43234   0.55842   0.81515   0.00000  Uiso   1.00
N41    N     0.77895   0.11452   0.89196   0.00000  Uiso   1.00
N42    N     0.94079   0.41422   0.06328   0.00000  Uiso   1.00
N43    N     0.50857   0.48262   0.89094   0.00000  Uiso   1.00
N44    N     0.81540   0.14879   0.78700   0.00000  Uiso   1.00
N45    N     0.97724   0.44849   0.95832   0.00000  Uiso   1.00
N46    N     0.54502   0.51689   0.78598   0.00000  Uiso   1.00
C47    C     0.02678   0.91421   0.36604   0.00000  Uiso   1.00
C48    C     0.98792   0.87912   0.32114   0.00000  Uiso   1.00
C49    C     0.01400   0.85341   0.26302   0.00000  Uiso   1.00
C50    C     0.97026   0.82317   0.22904   0.00000  Uiso   1.00
C51    C     0.92015   0.76937   0.15575   0.00000  Uiso   1.00
C52    C     0.98103   0.97830   0.36461   0.00000  Uiso   1.00
C53    C     0.00133   0.03598   0.34304   0.00000  Uiso   1.00
C54    C     0.95180   0.08923   0.34565   0.00000  Uiso   1.00
C55    C     0.89103   0.18942   0.33989   0.00000  Uiso   1.00
C56    C     0.02637   0.87974   0.44183   0.00000  Uiso   1.00
C57    C     0.08479   0.85455   0.48521   0.00000  Uiso   1.00
C58    C     0.07343   0.82483   0.55284   0.00000  Uiso   1.00
C59    C     0.08305   0.77199   0.66699   0.00000  Uiso   1.00
C60    C     0.90272   0.90623   0.40904   0.00000  Uiso   1.00
C61    C     0.92053   0.87479   0.34450   0.00000  Uiso   1.00
C62    C     0.87674   0.84458   0.31059   0.00000  Uiso   1.00
C63    C     0.90276   0.81882   0.25243   0.00000  Uiso   1.00
C64    C     0.91365   0.97397   0.38796   0.00000  Uiso   1.00
C65    C     0.86408   0.02715   0.39061   0.00000  Uiso   1.00
C66    C     0.88430   0.08489   0.36904   0.00000  Uiso   1.00
C67    C     0.95899   0.87540   0.46519   0.00000  Uiso   1.00
C68    C     0.94754   0.84572   0.53277   0.00000  Uiso   1.00
C69    C     0.00593   0.82050   0.57624   0.00000  Uiso   1.00
H70    H     0.07924   0.91758   0.34786   0.00000  Uiso   1.00
H71    H     0.06615   0.85677   0.24496   0.00000  Uiso   1.00
H72    H     0.05349   0.03932   0.32498   0.00000  Uiso   1.00
H73    H     0.13693   0.85791   0.46712   0.00000  Uiso   1.00
H74    H     0.02190   0.78746   0.14117   0.00000  Uiso   1.00
H75    H     0.99522   0.17236   0.30990   0.00000  Uiso   1.00
H76    H     0.17118   0.78985   0.60964   0.00000  Uiso   1.00
H77    H     0.85026   0.90286   0.42722   0.00000  Uiso   1.00
H78    H     0.82460   0.84124   0.32867   0.00000  Uiso   1.00
H79    H     0.81194   0.02378   0.40868   0.00000  Uiso   1.00
H80    H     0.89538   0.84238   0.55082   0.00000  Uiso   1.00
H81    H     0.82585   0.77486   0.20910   0.00000  Uiso   1.00
H82    H     0.79917   0.15976   0.37784   0.00000  Uiso   1.00
H83    H     0.97513   0.77724   0.67757   0.00000  Uiso   1.00
O84    O     0.91112   0.74091   0.10886   0.00000  Uiso   1.00
O85    O     0.87612   0.24588   0.33025   0.00000  Uiso   1.00
O86    O     0.10697   0.74402   0.72349   0.00000  Uiso   1.00
N87    N     0.97929   0.79294   0.17069   0.00000  Uiso   1.00
N88    N     0.95434   0.15280   0.32843   0.00000  Uiso   1.00
N89    N     0.11884   0.79519   0.60867   0.00000  Uiso   1.00
N90    N     0.87380   0.78616   0.20725   0.00000  Uiso   1.00
N91    N     0.84884   0.14602   0.36499   0.00000  Uiso   1.00
N92    N     0.01335   0.78841   0.64522   0.00000  Uiso   1.00
C93    C     0.29872   0.91006   0.85417   0.00000  Uiso   1.00
C94    C     0.30532   0.84323   0.83887   0.00000  Uiso   1.00
C95    C     0.25327   0.81834   0.80988   0.00000  Uiso   1.00
C96    C     0.26962   0.75621   0.80003   0.00000  Uiso   1.00
C97    C     0.26980   0.65789   0.77349   0.00000  Uiso   1.00
C98    C     0.31722   0.90376   0.93257   0.00000  Uiso   1.00
C99    C     0.27517   0.92979   0.98237   0.00000  Uiso   1.00
C100   C     0.30154   0.91862   0.05140   0.00000  Uiso   1.00
C101   C     0.32022   0.91433   0.17032   0.00000  Uiso   1.00
C102   C     0.35696   0.93788   0.81442   0.00000  Uiso   1.00
C103   C     0.34833   0.99260   0.76488   0.00000  Uiso   1.00
C104   C     0.40817   0.01016   0.73444   0.00000  Uiso   1.00
C105   C     0.48856   0.05884   0.66991   0.00000  Uiso   1.00
C106   C     0.42033   0.84396   0.88822   0.00000  Uiso   1.00
C107   C     0.37138   0.80732   0.85736   0.00000  Uiso   1.00
C108   C     0.38781   0.74521   0.84755   0.00000  Uiso   1.00
C109   C     0.33579   0.72024   0.81855   0.00000  Uiso   1.00
C110   C     0.38327   0.86786   0.95107   0.00000  Uiso   1.00
C111   C     0.40971   0.85665   0.02004   0.00000  Uiso   1.00
C112   C     0.36771   0.88265   0.06992   0.00000  Uiso   1.00
C113   C     0.42302   0.90198   0.83291   0.00000  Uiso   1.00
C114   C     0.48288   0.91946   0.80254   0.00000  Uiso   1.00
C115   C     0.47434   0.97419   0.75297   0.00000  Uiso   1.00
H116   H     0.24730   0.93801   0.83978   0.00000  Uiso   1.00
H117   H     0.20215   0.84614   0.79558   0.00000  Uiso   1.00
H118   H     0.22406   0.95758   0.96804   0.00000  Uiso   1.00
H119   H     0.29721   0.02037   0.75058   0.00000  Uiso   1.00
H120   H     0.18122   0.72845   0.75476   0.00000  Uiso   1.00
H121   H     0.22741   0.96343   0.11839   0.00000  Uiso   1.00
H122   H     0.38168   0.09585   0.65984   0.00000  Uiso   1.00
H123   H     0.47176   0.81600   0.90262   0.00000  Uiso   1.00
H124   H     0.43893   0.71744   0.86187   0.00000  Uiso   1.00
H125   H     0.46083   0.82887   0.03433   0.00000  Uiso   1.00
H126   H     0.53399   0.89166   0.81687   0.00000  Uiso   1.00
H127   H     0.37340   0.62399   0.80856   0.00000  Uiso   1.00
H128   H     0.41959   0.85897   0.17220   0.00000  Uiso   1.00
H129   H     0.57385   0.99138   0.71364   0.00000  Uiso   1.00
O130   O     0.25166   0.61358   0.75375   0.00000  Uiso   1.00
O131   O     0.31226   0.92187   0.23081   0.00000  Uiso   1.00
O132   O     0.51465   0.09560   0.62919   0.00000  Uiso   1.00
N133   N     0.23096   0.71740   0.77300   0.00000  Uiso   1.00
N134   N     0.27414   0.93708   0.11298   0.00000  Uiso   1.00
N135   N     0.41837   0.06089   0.68428   0.00000  Uiso   1.00
N136   N     0.33437   0.66119   0.80195   0.00000  Uiso   1.00
N137   N     0.37755   0.88087   0.14193   0.00000  Uiso   1.00
N138   N     0.52178   0.00468   0.71323   0.00000  Uiso   1.00
C139   C     0.39193   0.44094   0.63160   0.00000  Uiso   1.00
C140   C     0.40173   0.37828   0.60494   0.00000  Uiso   1.00
C141   C     0.35887   0.36225   0.55563   0.00000  Uiso   1.00
C142   C     0.37670   0.30263   0.53822   0.00000  Uiso   1.00
C143   C     0.38302   0.21173   0.49211   0.00000  Uiso   1.00
C144   C     0.45962   0.46621   0.61691   0.00000  Uiso   1.00
C145   C     0.46544   0.52413   0.57768   0.00000  Uiso   1.00
C146   C     0.53202   0.53853   0.57035   0.00000  Uiso   1.00
C147   C     0.62821   0.58418   0.54286   0.00000  Uiso   1.00
C148   C     0.38837   0.42530   0.71183   0.00000  Uiso   1.00
C149   C     0.33429   0.44883   0.75242   0.00000  Uiso   1.00
C150   C     0.34088   0.42880   0.82502   0.00000  Uiso   1.00
C151   C     0.32645   0.41093   0.94492   0.00000  Uiso   1.00
C152   C     0.49981   0.36356   0.68835   0.00000  Uiso   1.00
C153   C     0.46033   0.33625   0.63576   0.00000  Uiso   1.00
C154   C     0.47823   0.27663   0.61842   0.00000  Uiso   1.00
C155   C     0.43540   0.26052   0.56910   0.00000  Uiso   1.00
C156   C     0.51822   0.42418   0.64773   0.00000  Uiso   1.00
C157   C     0.58480   0.43851   0.64046   0.00000  Uiso   1.00
C158   C     0.59072   0.49642   0.60123   0.00000  Uiso   1.00
C159   C     0.44697   0.38327   0.74266   0.00000  Uiso   1.00
C160   C     0.45365   0.36321   0.81520   0.00000  Uiso   1.00
C161   C     0.39958   0.38669   0.85590   0.00000  Uiso   1.00
H162   H     0.34631   0.47367   0.60760   0.00000  Uiso   1.00
H163   H     0.31353   0.39479   0.53179   0.00000  Uiso   1.00
H164   H     0.42009   0.55665   0.55384   0.00000  Uiso   1.00
H165   H     0.28896   0.48136   0.72855   0.00000  Uiso   1.00
H166   H     0.30304   0.28882   0.46131   0.00000  Uiso   1.00
H167   H     0.52772   0.63010   0.50782   0.00000  Uiso   1.00
H168   H     0.25120   0.47134   0.87624   0.00000  Uiso   1.00
H169   H     0.54543   0.33083   0.71234   0.00000  Uiso   1.00
H170   H     0.52358   0.24411   0.64228   0.00000  Uiso   1.00
H171   H     0.63013   0.40597   0.66432   0.00000  Uiso   1.00
H172   H     0.49900   0.33068   0.83904   0.00000  Uiso   1.00
H173   H     0.47353   0.16652   0.55098   0.00000  Uiso   1.00
H174   H     0.69820   0.50781   0.59749   0.00000  Uiso   1.00
H175   H     0.42168   0.34904   0.96592   0.00000  Uiso   1.00
O176   O     0.37033   0.17321   0.45815   0.00000  Uiso   1.00
O177   O     0.66509   0.62097   0.51918   0.00000  Uiso   1.00
O178   O     0.30230   0.41267   0.00254   0.00000  Uiso   1.00
N179   N     0.34616   0.27193   0.49204   0.00000  Uiso   1.00
N180   N     0.55622   0.59101   0.53551   0.00000  Uiso   1.00
N181   N     0.29770   0.44259   0.87996   0.00000  Uiso   1.00
N182   N     0.43789   0.20612   0.54029   0.00000  Uiso   1.00
N183   N     0.64795   0.52520   0.58377   0.00000  Uiso   1.00
N184   N     0.38944   0.37679   0.92821   0.00000  Uiso   1.00
C185   C     0.59503   0.93627   0.18006   0.00000  Uiso   1.00
C186   C     0.56535   0.88355   0.22540   0.00000  Uiso   1.00
C187   C     0.59460   0.82027   0.23578   0.00000  Uiso   1.00
C188   C     0.55946   0.77943   0.27916   0.00000  Uiso   1.00
C189   C     0.52285   0.69427   0.34474   0.00000  Uiso   1.00
C190   C     0.60385   0.98309   0.22863   0.00000  Uiso   1.00
C191   C     0.66546   0.00350   0.24171   0.00000  Uiso   1.00
C192   C     0.66273   0.04647   0.28780   0.00000  Uiso   1.00
C193   C     0.68587   0.11586   0.35836   0.00000  Uiso   1.00
C194   C     0.53749   0.96961   0.12631   0.00000  Uiso   1.00
C195   C     0.54330   0.97870   0.05336   0.00000  Uiso   1.00
C196   C     0.48470   0.01033   0.01331   0.00000  Uiso   1.00
C197   C     0.40481   0.05880   0.92500   0.00000  Uiso   1.00
C198   C     0.48062   0.97629   0.23864   0.00000  Uiso   1.00
C199   C     0.50321   0.90529   0.25722   0.00000  Uiso   1.00
C200   C     0.46801   0.86454   0.30059   0.00000  Uiso   1.00
C201   C     0.49720   0.80121   0.31103   0.00000  Uiso   1.00
C202   C     0.54171   0.00482   0.26044   0.00000  Uiso   1.00
C203   C     0.53888   0.04777   0.30652   0.00000  Uiso   1.00
C204   C     0.60047   0.06824   0.31968   0.00000  Uiso   1.00
C205   C     0.47534   0.99134   0.15813   0.00000  Uiso   1.00
C206   C     0.41672   0.02297   0.11817   0.00000  Uiso   1.00
C207   C     0.42245   0.03211   0.04518   0.00000  Uiso   1.00
H208   H     0.64341   0.91935   0.15530   0.00000  Uiso   1.00
H209   H     0.64269   0.80347   0.21115   0.00000  Uiso   1.00
H210   H     0.71354   0.98667   0.21708   0.00000  Uiso   1.00
H211   H     0.59140   0.96188   0.02876   0.00000  Uiso   1.00
H212   H     0.61450   0.68457   0.28714   0.00000  Uiso   1.00
H213   H     0.76389   0.07089   0.29961   0.00000  Uiso   1.00
H214   H     0.50634   0.01860   0.90251   0.00000  Uiso   1.00
H215   H     0.43224   0.99322   0.26341   0.00000  Uiso   1.00
H216   H     0.41993   0.88138   0.32520   0.00000  Uiso   1.00
H217   H     0.49078   0.06458   0.33113   0.00000  Uiso   1.00
H218   H     0.36864   0.03979   0.14281   0.00000  Uiso   1.00
H219   H     0.43370   0.74780   0.37971   0.00000  Uiso   1.00
H220   H     0.58309   0.13413   0.39218   0.00000  Uiso   1.00
H221   H     0.32553   0.08184   0.99507   0.00000  Uiso   1.00
O222   O     0.51983   0.64129   0.37214   0.00000  Uiso   1.00
O223   O     0.71581   0.14813   0.38849   0.00000  Uiso   1.00
O224   O     0.37791   0.07953   0.86750   0.00000  Uiso   1.00
N225   N     0.57363   0.71480   0.30043   0.00000  Uiso   1.00
N226   N     0.71330   0.07598   0.31210   0.00000  Uiso   1.00
N227   N     0.47252   0.02711   0.94084   0.00000  Uiso   1.00
N228   N     0.47634   0.74882   0.35024   0.00000  Uiso   1.00
N229   N     0.61601   0.11001   0.36191   0.00000  Uiso   1.00
N230   N     0.37523   0.06113   0.99065   0.00000  Uiso   1.00
C231   C     0.87487   0.48113   0.40355   0.00000  Uiso   1.00
C232   C     0.85871   0.52558   0.33334   0.00000  Uiso   1.00
C233   C     0.79496   0.54005   0.29683   0.00000  Uiso   1.00
C234   C     0.79076   0.58177   0.23352   0.00000  Uiso   1.00
C235   C     0.75692   0.64682   0.12845   0.00000  Uiso   1.00
C236   C     0.90169   0.51924   0.45403   0.00000  Uiso   1.00
C237   C     0.87408   0.52835   0.51900   0.00000  Uiso   1.00
C238   C     0.90608   0.56474   0.55728   0.00000  Uiso   1.00
C239   C     0.93900   0.61989   0.63962   0.00000  Uiso   1.00
C240   C     0.93677   0.43174   0.39070   0.00000  Uiso   1.00
C241   C     0.93866   0.36728   0.40244   0.00000  Uiso   1.00
C242   C     0.00019   0.32999   0.38742   0.00000  Uiso   1.00
C243   C     0.08757   0.24930   0.37142   0.00000  Uiso   1.00
C244   C     0.98078   0.52952   0.35602   0.00000  Uiso   1.00
C245   C     0.91624   0.55187   0.30753   0.00000  Uiso   1.00
C246   C     0.91214   0.59358   0.24425   0.00000  Uiso   1.00
C247   C     0.84839   0.60810   0.20765   0.00000  Uiso   1.00
C248   C     0.95922   0.54552   0.42822   0.00000  Uiso   1.00
C249   C     0.99127   0.58189   0.46642   0.00000  Uiso   1.00
C250   C     0.96371   0.59107   0.53142   0.00000  Uiso   1.00
C251   C     0.99430   0.45802   0.36489   0.00000  Uiso   1.00
C252   C     0.05584   0.42082   0.34985   0.00000  Uiso   1.00
C253   C     0.05783   0.35633   0.36156   0.00000  Uiso   1.00
H254   H     0.83008   0.46067   0.42365   0.00000  Uiso   1.00
H255   H     0.75045   0.51970   0.31683   0.00000  Uiso   1.00
H256   H     0.82957   0.50800   0.53897   0.00000  Uiso   1.00
H257   H     0.89413   0.34696   0.42242   0.00000  Uiso   1.00
H258   H     0.68753   0.59675   0.18703   0.00000  Uiso   1.00
H259   H     0.85437   0.57208   0.65543   0.00000  Uiso   1.00
H260   H     0.99052   0.23248   0.40966   0.00000  Uiso   1.00
H261   H     0.02557   0.54999   0.33592   0.00000  Uiso   1.00
H262   H     0.95667   0.61392   0.22428   0.00000  Uiso   1.00
H263   H     0.03579   0.60222   0.44642   0.00000  Uiso   1.00
H264   H     0.10035   0.44118   0.32987   0.00000  Uiso   1.00
H265   H     0.85490   0.67323   0.11192   0.00000  Uiso   1.00
H266   H     0.02175   0.64855   0.58032   0.00000  Uiso   1.00
H267   H     0.15789   0.30896   0.33455   0.00000  Uiso   1.00
O268   O     0.72236   0.67545   0.07763   0.00000  Uiso   1.00
O269   O     0.94125   0.64306   0.69216   0.00000  Uiso   1.00
O270   O     0.11987   0.19753   0.36971   0.00000  Uiso   1.00
N271   N     0.73638   0.60597   0.18467   0.00000  Uiso   1.00
N272   N     0.89236   0.58290   0.62259   0.00000  Uiso   1.00
N273   N     0.01965   0.26541   0.39283   0.00000  Uiso   1.00
N274   N     0.82644   0.64712   0.14425   0.00000  Uiso   1.00
N275   N     0.98242   0.62405   0.58217   0.00000  Uiso   1.00
N276   N     0.10972   0.30656   0.35241   0.00000  Uiso   1.00
C277   C     0.21668   0.74714   0.10395   0.00000  Uiso   1.00
C278   C     0.17825   0.73183   0.17216   0.00000  Uiso   1.00
C279   C     0.18538   0.75597   0.23375   0.00000  Uiso   1.00
C280   C     0.14562   0.73616   0.29037   0.00000  Uiso   1.00
C281   C     0.09281   0.71888   0.39700   0.00000  Uiso   1.00
C282   C     0.16044   0.77169   0.04606   0.00000  Uiso   1.00
C283   C     0.15259   0.82933   0.00162   0.00000  Uiso   1.00
C284   C     0.09784   0.84307   0.95208   0.00000  Uiso   1.00
C285   C     0.01740   0.88764   0.86291   0.00000  Uiso   1.00
C286   C     0.25428   0.68437   0.08749   0.00000  Uiso   1.00
C287   C     0.32535   0.66859   0.07787   0.00000  Uiso   1.00
C288   C     0.34961   0.60881   0.06320   0.00000  Uiso   1.00
C289   C     0.41488   0.51780   0.03836   0.00000  Uiso   1.00
C290   C     0.13341   0.66903   0.09497   0.00000  Uiso   1.00
C291   C     0.13302   0.68941   0.16728   0.00000  Uiso   1.00
C292   C     0.09324   0.66955   0.22382   0.00000  Uiso   1.00
C293   C     0.10031   0.69366   0.28548   0.00000  Uiso   1.00
C294   C     0.11520   0.72927   0.04118   0.00000  Uiso   1.00
C295   C     0.06045   0.74291   0.99169   0.00000  Uiso   1.00
C296   C     0.05253   0.80056   0.94720   0.00000  Uiso   1.00
C297   C     0.20905   0.64194   0.08261   0.00000  Uiso   1.00
C298   C     0.23321   0.58217   0.06794   0.00000  Uiso   1.00
C299   C     0.30429   0.56631   0.05831   0.00000  Uiso   1.00
H300   H     0.25190   0.78017   0.10775   0.00000  Uiso   1.00
H301   H     0.22039   0.78881   0.23750   0.00000  Uiso   1.00
H302   H     0.18761   0.86215   0.00541   0.00000  Uiso   1.00
H303   H     0.36034   0.70143   0.08165   0.00000  Uiso   1.00
H304   H     0.16549   0.77969   0.37920   0.00000  Uiso   1.00
H305   H     0.09639   0.93434   0.88980   0.00000  Uiso   1.00
H306   H     0.46061   0.59543   0.05057   0.00000  Uiso   1.00
H307   H     0.09819   0.63600   0.09117   0.00000  Uiso   1.00
H308   H     0.05824   0.63672   0.22003   0.00000  Uiso   1.00
H309   H     0.02546   0.71007   0.98793   0.00000  Uiso   1.00
H310   H     0.19819   0.54935   0.06417   0.00000  Uiso   1.00
H311   H     0.03388   0.65626   0.36501   0.00000  Uiso   1.00
H312   H     0.96478   0.81090   0.87561   0.00000  Uiso   1.00
H313   H     0.32901   0.47200   0.03639   0.00000  Uiso   1.00
O314   O     0.07616   0.72107   0.45716   0.00000  Uiso   1.00
O315   O     0.98552   0.92395   0.81508   0.00000  Uiso   1.00
O316   O     0.46337   0.47932   0.02601   0.00000  Uiso   1.00
N317   N     0.14000   0.75053   0.35818   0.00000  Uiso   1.00
N318   N     0.07539   0.89512   0.90063   0.00000  Uiso   1.00
N319   N     0.41591   0.57828   0.05092   0.00000  Uiso   1.00
N320   N     0.06919   0.68411   0.35055   0.00000  Uiso   1.00
N321   N     0.00458   0.82870   0.89300   0.00000  Uiso   1.00
N322   N     0.34510   0.51186   0.04329   0.00000  Uiso   1.00
C323   C     0.11972   0.34554   0.82218   0.00000  Uiso   1.00
C324   C     0.19150   0.31066   0.85013   0.00000  Uiso   1.00
C325   C     0.21372   0.29688   0.92058   0.00000  Uiso   1.00
C326   C     0.28129   0.26459   0.93531   0.00000  Uiso   1.00
C327   C     0.38609   0.21312   0.98690   0.00000  Uiso   1.00
C328   C     0.09023   0.30203   0.78033   0.00000  Uiso   1.00
C329   C     0.02731   0.28099   0.79208   0.00000  Uiso   1.00
C330   C     0.00963   0.24144   0.74805   0.00000  Uiso   1.00
C331   C     0.95718   0.17660   0.69124   0.00000  Uiso   1.00
C332   C     0.13257   0.40143   0.76817   0.00000  Uiso   1.00
C333   C     0.10524   0.46398   0.76968   0.00000  Uiso   1.00
C334   C     0.12320   0.50812   0.71539   0.00000  Uiso   1.00
C335   C     0.13650   0.59761   0.63970   0.00000  Uiso   1.00
C336   C     0.20019   0.31271   0.72307   0.00000  Uiso   1.00
C337   C     0.23520   0.29283   0.79630   0.00000  Uiso   1.00
C338   C     0.30276   0.26055   0.81092   0.00000  Uiso   1.00
C339   C     0.32509   0.24673   0.88138   0.00000  Uiso   1.00
C340   C     0.13394   0.28419   0.72650   0.00000  Uiso   1.00
C341   C     0.11634   0.24466   0.68243   0.00000  Uiso   1.00
C342   C     0.05342   0.22357   0.69412   0.00000  Uiso   1.00
C343   C     0.17629   0.38360   0.71433   0.00000  Uiso   1.00
C344   C     0.19428   0.42765   0.66003   0.00000  Uiso   1.00
C345   C     0.16699   0.49025   0.66146   0.00000  Uiso   1.00
H346   H     0.08568   0.35943   0.86409   0.00000  Uiso   1.00
H347   H     0.17988   0.31069   0.96222   0.00000  Uiso   1.00
H348   H     0.99349   0.29481   0.83374   0.00000  Uiso   1.00
H349   H     0.07142   0.47776   0.81135   0.00000  Uiso   1.00
H350   H     0.30358   0.24877   0.04728   0.00000  Uiso   1.00
H351   H     0.91056   0.21530   0.77636   0.00000  Uiso   1.00
H352   H     0.07488   0.60110   0.72913   0.00000  Uiso   1.00
H353   H     0.23422   0.29882   0.68116   0.00000  Uiso   1.00
H354   H     0.33657   0.24675   0.76925   0.00000  Uiso   1.00
H355   H     0.15018   0.23087   0.64077   0.00000  Uiso   1.00
H356   H     0.22811   0.41383   0.61838   0.00000  Uiso   1.00
H357   H     0.43076   0.19687   0.89066   0.00000  Uiso   1.00
H358   H     0.03773   0.16341   0.61974   0.00000  Uiso   1.00
H359   H     0.20206   0.54920   0.57251   0.00000  Uiso   1.00
O360   O     0.43181   0.18964   0.03023   0.00000  Uiso   1.00
O361   O     0.91617   0.14575   0.67478   0.00000  Uiso   1.00
O362   O     0.13177   0.65191   0.61282   0.00000  Uiso   1.00
N363   N     0.31947   0.24371   0.99833   0.00000  Uiso   1.00
N364   N     0.95202   0.21241   0.74504   0.00000  Uiso   1.00
N365   N     0.10564   0.57310   0.70088   0.00000  Uiso   1.00
N366   N     0.38790   0.21579   0.91405   0.00000  Uiso   1.00
N367   N     0.02045   0.18449   0.66076   0.00000  Uiso   1.00
N368   N     0.17407   0.54518   0.61660   0.00000  Uiso   1.00
C369   C     0.59550   0.22356   0.18244   0.00000  Uiso   1.00
C370   C     0.63942   0.27506   0.18028   0.00000  Uiso   1.00
C371   C     0.70053   0.27066   0.21935   0.00000  Uiso   1.00
C372   C     0.73298   0.32295   0.20986   0.00000  Uiso   1.00
C373   C     0.80541   0.39458   0.21361   0.00000  Uiso   1.00
C374   C     0.58973   0.21229   0.10646   0.00000  Uiso   1.00
C375   C     0.60906   0.15512   0.08346   0.00000  Uiso   1.00
C376   C     0.59966   0.15458   0.01183   0.00000  Uiso   1.00
C377   C     0.59490   0.12876   0.90098   0.00000  Uiso   1.00
C378   C     0.52238   0.25232   0.20142   0.00000  Uiso   1.00
C379   C     0.48506   0.22880   0.25825   0.00000  Uiso   1.00
C380   C     0.41895   0.26196   0.26655   0.00000  Uiso   1.00
C381   C     0.30961   0.29830   0.30314   0.00000  Uiso   1.00
C382   C     0.54445   0.32425   0.09612   0.00000  Uiso   1.00
C383   C     0.61169   0.32975   0.13339   0.00000  Uiso   1.00
C384   C     0.64405   0.38206   0.12384   0.00000  Uiso   1.00
C385   C     0.70520   0.37774   0.16289   0.00000  Uiso   1.00
C386   C     0.56200   0.26698   0.05957   0.00000  Uiso   1.00
C387   C     0.55258   0.26653   0.98796   0.00000  Uiso   1.00
C388   C     0.57189   0.20937   0.96486   0.00000  Uiso   1.00
C389   C     0.49465   0.30702   0.15453   0.00000  Uiso   1.00
C390   C     0.42858   0.34021   0.16274   0.00000  Uiso   1.00
C391   C     0.39117   0.31675   0.21958   0.00000  Uiso   1.00
H392   H     0.61709   0.18097   0.21894   0.00000  Uiso   1.00
H393   H     0.72198   0.22832   0.25562   0.00000  Uiso   1.00
H394   H     0.63051   0.11280   0.11976   0.00000  Uiso   1.00
H395   H     0.50653   0.18648   0.29452   0.00000  Uiso   1.00
H396   H     0.82605   0.30492   0.27560   0.00000  Uiso   1.00
H397   H     0.63316   0.06134   0.98912   0.00000  Uiso   1.00
H398   H     0.37173   0.21670   0.35764   0.00000  Uiso   1.00
H399   H     0.52286   0.36683   0.05961   0.00000  Uiso   1.00
H400   H     0.62258   0.42438   0.08756   0.00000  Uiso   1.00
H401   H     0.53111   0.30886   0.95169   0.00000  Uiso   1.00
H402   H     0.40714   0.38254   0.12645   0.00000  Uiso   1.00
H403   H     0.74538   0.46405   0.13919   0.00000  Uiso   1.00
H404   H     0.55248   0.22047   0.85271   0.00000  Uiso   1.00
H405   H     0.29106   0.37583   0.22123   0.00000  Uiso   1.00
O406   O     0.85303   0.41898   0.22863   0.00000  Uiso   1.00
O407   O     0.59994   0.09941   0.85279   0.00000  Uiso   1.00
O408   O     0.25697   0.30324   0.33628   0.00000  Uiso   1.00
N409   N     0.79337   0.33448   0.23967   0.00000  Uiso   1.00
N410   N     0.61304   0.10675   0.97183   0.00000  Uiso   1.00
N411   N     0.36862   0.25199   0.31635   0.00000  Uiso   1.00
N412   N     0.74996   0.42011   0.16627   0.00000  Uiso   1.00
N413   N     0.56963   0.19238   0.89843   0.00000  Uiso   1.00
N414   N     0.32521   0.33761   0.24295   0.00000  Uiso   1.00
C415   C     0.82436   0.68725   0.92793   0.00000  Uiso   1.00
C416   C     0.81710   0.75782   0.92656   0.00000  Uiso   1.00
C417   C     0.79340   0.78949   0.98130   0.00000  Uiso   1.00
C418   C     0.79058   0.85409   0.96967   0.00000  Uiso   1.00
C419   C     0.77620   0.95885   0.97729   0.00000  Uiso   1.00
C420   C     0.78121   0.67941   0.86471   0.00000  Uiso   1.00
C421   C     0.72735   0.64515   0.86745   0.00000  Uiso   1.00
C422   C     0.69432   0.64374   0.80376   0.00000  Uiso   1.00
C423   C     0.62426   0.62673   0.71535   0.00000  Uiso   1.00
C424   C     0.90019   0.66454   0.91164   0.00000  Uiso   1.00
C425   C     0.94637   0.61776   0.95382   0.00000  Uiso   1.00
C426   C     0.01351   0.60382   0.92963   0.00000  Uiso   1.00
C427   C     0.12819   0.56372   0.91408   0.00000  Uiso   1.00
C428   C     0.86146   0.74565   0.80994   0.00000  Uiso   1.00
C429   C     0.83725   0.78954   0.86248   0.00000  Uiso   1.00
C430   C     0.83446   0.85411   0.85076   0.00000  Uiso   1.00
C431   C     0.81077   0.88587   0.90547   0.00000  Uiso   1.00
C432   C     0.80136   0.71113   0.80063   0.00000  Uiso   1.00
C433   C     0.76840   0.70977   0.73692   0.00000  Uiso   1.00
C434   C     0.71451   0.67552   0.73956   0.00000  Uiso   1.00
C435   C     0.92035   0.69626   0.84756   0.00000  Uiso   1.00
C436   C     0.98742   0.68239   0.82329   0.00000  Uiso   1.00
C437   C     0.03370   0.63560   0.86543   0.00000  Uiso   1.00
H438   H     0.80866   0.66254   0.97781   0.00000  Uiso   1.00
H439   H     0.77780   0.76492   0.03088   0.00000  Uiso   1.00
H440   H     0.71177   0.62059   0.91705   0.00000  Uiso   1.00
H441   H     0.93075   0.59322   0.00341   0.00000  Uiso   1.00
H442   H     0.75246   0.89242   0.06145   0.00000  Uiso   1.00
H443   H     0.61323   0.58808   0.82143   0.00000  Uiso   1.00
H444   H     0.07501   0.53035   0.00353   0.00000  Uiso   1.00
H445   H     0.87715   0.77036   0.76004   0.00000  Uiso   1.00
H446   H     0.85006   0.87865   0.80116   0.00000  Uiso   1.00
H447   H     0.78402   0.73432   0.68733   0.00000  Uiso   1.00
H448   H     0.00300   0.70695   0.77369   0.00000  Uiso   1.00
H449   H     0.81110   0.98473   0.87500   0.00000  Uiso   1.00
H450   H     0.67187   0.68039   0.63498   0.00000  Uiso   1.00
H451   H     0.13364   0.62266   0.81708   0.00000  Uiso   1.00
O452   O     0.76270   0.00787   0.99919   0.00000  Uiso   1.00
O453   O     0.58004   0.60858   0.68429   0.00000  Uiso   1.00
O454   O     0.18588   0.53284   0.92322   0.00000  Uiso   1.00
N455   N     0.76999   0.89928   0.01193   0.00000  Uiso   1.00
N456   N     0.63981   0.61475   0.78752   0.00000  Uiso   1.00
N457   N     0.07153   0.56076   0.95777   0.00000  Uiso   1.00
N458   N     0.80155   0.94895   0.91160   0.00000  Uiso   1.00
N459   N     0.67137   0.66442   0.68720   0.00000  Uiso   1.00
N460   N     0.10308   0.61043   0.85744   0.00000  Uiso   1.00
C461   C     0.68325   0.29272   0.59836   0.00000  Uiso   1.00
C462   C     0.75678   0.30798   0.59531   0.00000  Uiso   1.00
C463   C     0.78272   0.34670   0.63528   0.00000  Uiso   1.00
C464   C     0.85134   0.35469   0.62473   0.00000  Uiso   1.00
C465   C     0.95924   0.38292   0.62739   0.00000  Uiso   1.00
C466   C     0.65292   0.31142   0.52307   0.00000  Uiso   1.00
C467   C     0.59154   0.35302   0.50231   0.00000  Uiso   1.00
C468   C     0.57274   0.36391   0.43095   0.00000  Uiso   1.00
C469   C     0.51937   0.39743   0.32146   0.00000  Uiso   1.00
C470   C     0.69195   0.22133   0.61514   0.00000  Uiso   1.00
C471   C     0.66337   0.18718   0.67179   0.00000  Uiso   1.00
C472   C     0.67741   0.12221   0.67793   0.00000  Uiso   1.00
C473   C     0.68464   0.01586   0.71140   0.00000  Uiso   1.00
C474   C     0.75899   0.23806   0.50854   0.00000  Uiso   1.00
C475   C     0.79791   0.27828   0.54652   0.00000  Uiso   1.00
C476   C     0.86652   0.28622   0.53591   0.00000  Uiso   1.00
C477   C     0.89256   0.32495   0.57586   0.00000  Uiso   1.00
C478   C     0.69406   0.28172   0.47429   0.00000  Uiso   1.00
C479   C     0.67534   0.29254   0.40294   0.00000  Uiso   1.00
C480   C     0.61395   0.33416   0.38207   0.00000  Uiso   1.00
C481   C     0.73309   0.19163   0.56636   0.00000  Uiso   1.00
C482   C     0.74717   0.12670   0.57242   0.00000  Uiso   1.00
C483   C     0.71862   0.09247   0.62906   0.00000  Uiso   1.00
H484   H     0.65122   0.31584   0.63634   0.00000  Uiso   1.00
H485   H     0.75087   0.36968   0.67302   0.00000  Uiso   1.00
H486   H     0.55972   0.37599   0.54007   0.00000  Uiso   1.00
H487   H     0.63154   0.21018   0.70953   0.00000  Uiso   1.00
H488   H     0.87947   0.41628   0.69217   0.00000  Uiso   1.00
H489   H     0.47641   0.42958   0.41184   0.00000  Uiso   1.00
H490   H     0.62786   0.07993   0.76916   0.00000  Uiso   1.00
H491   H     0.79102   0.21494   0.47056   0.00000  Uiso   1.00
H492   H     0.89834   0.26323   0.49816   0.00000  Uiso   1.00
H493   H     0.70718   0.26955   0.36520   0.00000  Uiso   1.00
H494   H     0.77901   0.10374   0.53466   0.00000  Uiso   1.00
H495   H     0.99917   0.32989   0.55024   0.00000  Uiso   1.00
H496   H     0.59610   0.34319   0.26990   0.00000  Uiso   1.00
H497   H     0.74755   0.99354   0.62723   0.00000  Uiso   1.00
O498   O     0.00739   0.40669   0.64233   0.00000  Uiso   1.00
O499   O     0.47858   0.42414   0.27455   0.00000  Uiso   1.00
O500   O     0.67728   0.96540   0.74335   0.00000  Uiso   1.00
N501   N     0.89292   0.38931   0.65499   0.00000  Uiso   1.00
N502   N     0.51609   0.40176   0.39289   0.00000  Uiso   1.00
N503   N     0.65766   0.07486   0.72695   0.00000  Uiso   1.00
N504   N     0.95733   0.34283   0.57862   0.00000  Uiso   1.00
N505   N     0.58049   0.35527   0.31652   0.00000  Uiso   1.00
N506   N     0.72207   0.02838   0.65058   0.00000  Uiso   1.00
C507   C     0.34652   0.90094   0.46852   0.00000  Uiso   1.00
C508   C     0.41628   0.90181   0.50401   0.00000  Uiso   1.00
C509   C     0.47574   0.91563   0.46950   0.00000  Uiso   1.00
C510   C     0.53433   0.91389   0.51145   0.00000  Uiso   1.00
C511   C     0.64281   0.91749   0.55534   0.00000  Uiso   1.00
C512   C     0.32953   0.83567   0.49371   0.00000  Uiso   1.00
C513   C     0.31604   0.79390   0.45053   0.00000  Uiso   1.00
C514   C     0.30159   0.73650   0.48380   0.00000  Uiso   1.00
C515   C     0.27533   0.63745   0.51169   0.00000  Uiso   1.00
C516   C     0.29259   0.94637   0.50094   0.00000  Uiso   1.00
C517   C     0.24802   0.99767   0.46384   0.00000  Uiso   1.00
C518   C     0.20245   0.03346   0.50320   0.00000  Uiso   1.00
C519   C     0.11883   0.10629   0.54232   0.00000  Uiso   1.00
C520   C     0.34483   0.87328   0.60439   0.00000  Uiso   1.00
C521   C     0.41536   0.88678   0.57782   0.00000  Uiso   1.00
C522   C     0.47387   0.88503   0.61983   0.00000  Uiso   1.00
C523   C     0.53341   0.89885   0.58539   0.00000  Uiso   1.00
C524   C     0.32861   0.82065   0.56750   0.00000  Uiso   1.00
C525   C     0.31417   0.76330   0.60085   0.00000  Uiso   1.00
C526   C     0.30067   0.72145   0.55773   0.00000  Uiso   1.00
C527   C     0.29167   0.93135   0.57474   0.00000  Uiso   1.00
C528   C     0.24615   0.96707   0.61417   0.00000  Uiso   1.00
C529   C     0.20153   0.01841   0.57713   0.00000  Uiso   1.00
H530   H     0.34723   0.91263   0.41106   0.00000  Uiso   1.00
H531   H     0.47644   0.92724   0.41239   0.00000  Uiso   1.00
H532   H     0.31675   0.80554   0.39342   0.00000  Uiso   1.00
H533   H     0.24874   0.00927   0.40673   0.00000  Uiso   1.00
H534   H     0.61928   0.93680   0.44640   0.00000  Uiso   1.00
H535   H     0.28255   0.68019   0.40640   0.00000  Uiso   1.00
H536   H     0.13915   0.10980   0.43447   0.00000  Uiso   1.00
H537   H     0.34411   0.86159   0.66185   0.00000  Uiso   1.00
H538   H     0.47315   0.87340   0.67694   0.00000  Uiso   1.00
H539   H     0.31346   0.75170   0.65796   0.00000  Uiso   1.00
H540   H     0.24546   0.95543   0.67128   0.00000  Uiso   1.00
H541   H     0.61662   0.89310   0.66112   0.00000  Uiso   1.00
H542   H     0.27988   0.63649   0.62112   0.00000  Uiso   1.00
H543   H     0.13648   0.06610   0.64919   0.00000  Uiso   1.00
O544   O     0.70290   0.92362   0.55917   0.00000  Uiso   1.00
O545   O     0.26110   0.58696   0.50668   0.00000  Uiso   1.00
O546   O     0.07297   0.15061   0.54351   0.00000  Uiso   1.00
N547   N     0.60094   0.92490   0.49487   0.00000  Uiso   1.00
N548   N     0.28613   0.68498   0.45747   0.00000  Uiso   1.00
N549   N     0.15205   0.08663   0.48371   0.00000  Uiso   1.00
N550   N     0.59951   0.90139   0.61041   0.00000  Uiso   1.00
N551   N     0.28469   0.66147   0.57301   0.00000  Uiso   1.00
N552   N     0.15061   0.06312   0.59925   0.00000  Uiso   1.00
