data_job_02116
_audit_creation_date              2018-12-19
_audit_creation_method            'Materials Studio'
_symmetry_space_group_name_H-M    'P1'
_symmetry_Int_Tables_number       1
_symmetry_cell_setting            triclinic
loop_
_symmetry_equiv_pos_as_xyz
  x,y,z
_cell_length_a                    12.1667
_cell_length_b                    7.1845
_cell_length_c                    33.2388
_cell_angle_alpha                 90.0000
_cell_angle_beta                  92.8398
_cell_angle_gamma                 90.0000
loop_
_atom_site_label
_atom_site_type_symbol
_atom_site_fract_x
_atom_site_fract_y
_atom_site_fract_z
_atom_site_U_iso_or_equiv
_atom_site_adp_type
_atom_site_occupancy
C1     C     0.79533   0.01942   0.33399   0.00000  Uiso   1.00
C2     C     0.73276   0.02927   0.29314   0.00000  Uiso   1.00
C3     C     0.70825   0.87933   0.26795   0.00000  Uiso   1.00
C4     C     0.65031   0.91729   0.23185   0.00000  Uiso   1.00
C5     C     0.55809   0.90500   0.17001   0.00000  Uiso   1.00
C6     C     0.89268   0.15187   0.33142   0.00000  Uiso   1.00
C7     C     0.00263   0.10499   0.33843   0.00000  Uiso   1.00
C8     C     0.07931   0.24617   0.33455   0.00000  Uiso   1.00
C9     C     0.23537   0.42425   0.33218   0.00000  Uiso   1.00
C10    C     0.71994   0.10605   0.36415   0.00000  Uiso   1.00
C11    C     0.68467   0.02068   0.39868   0.00000  Uiso   1.00
C12    C     0.61594   0.12330   0.42236   0.00000  Uiso   1.00
C13    C     0.50379   0.23023   0.47080   0.00000  Uiso   1.00
C14    C     0.73603   0.35349   0.31467   0.00000  Uiso   1.00
C15    C     0.70055   0.21073   0.28265   0.00000  Uiso   1.00
C16    C     0.64263   0.24893   0.24657   0.00000  Uiso   1.00
C17    C     0.61803   0.09907   0.22133   0.00000  Uiso   1.00
C18    C     0.86047   0.33331   0.32093   0.00000  Uiso   1.00
C19    C     0.93701   0.47460   0.31705   0.00000  Uiso   1.00
C20    C     0.04704   0.42795   0.32404   0.00000  Uiso   1.00
C21    C     0.68772   0.28750   0.35366   0.00000  Uiso   1.00
C22    C     0.61905   0.39028   0.37730   0.00000  Uiso   1.00
C23    C     0.58367   0.30508   0.41185   0.00000  Uiso   1.00
H24    H     0.82042   0.87815   0.34216   0.00000  Uiso   1.00
H25    H     0.73320   0.73892   0.27608   0.00000  Uiso   1.00
H26    H     0.02753   0.96457   0.34655   0.00000  Uiso   1.00
H27    H     0.70961   0.88026   0.40679   0.00000  Uiso   1.00
H28    H     0.62233   0.66459   0.19819   0.00000  Uiso   1.00
H29    H     0.24293   0.14038   0.34679   0.00000  Uiso   1.00
H30    H     0.57255   0.96260   0.47381   0.00000  Uiso   1.00
H31    H     0.71095   0.49476   0.30650   0.00000  Uiso   1.00
H32    H     0.61771   0.38937   0.23846   0.00000  Uiso   1.00
H33    H     0.91205   0.61501   0.30893   0.00000  Uiso   1.00
H34    H     0.59413   0.53070   0.36917   0.00000  Uiso   1.00
H35    H     0.52860   0.19252   0.16765   0.00000  Uiso   1.00
H36    H     0.14921   0.66831   0.31626   0.00000  Uiso   1.00
H37    H     0.47882   0.49053   0.44328   0.00000  Uiso   1.00
O38    O     0.51614   0.84810   0.13880   0.00000  Uiso   1.00
O39    O     0.33035   0.47233   0.33377   0.00000  Uiso   1.00
O40    O     0.45082   0.23908   0.50042   0.00000  Uiso   1.00
N41    N     0.61304   0.80330   0.20034   0.00000  Uiso   1.00
N42    N     0.19328   0.24813   0.33927   0.00000  Uiso   1.00
N43    N     0.56655   0.08193   0.45803   0.00000  Uiso   1.00
N44    N     0.56261   0.08737   0.18391   0.00000  Uiso   1.00
N45    N     0.14284   0.53220   0.32284   0.00000  Uiso   1.00
N46    N     0.51611   0.36601   0.44160   0.00000  Uiso   1.00
C47    C     0.20467   0.01942   0.16601   0.00000  Uiso   1.00
C48    C     0.26724   0.02927   0.20686   0.00000  Uiso   1.00
C49    C     0.29175   0.87933   0.23205   0.00000  Uiso   1.00
C50    C     0.34969   0.91729   0.26815   0.00000  Uiso   1.00
C51    C     0.44191   0.90500   0.32999   0.00000  Uiso   1.00
C52    C     0.10732   0.15187   0.16858   0.00000  Uiso   1.00
C53    C     0.99737   0.10499   0.16157   0.00000  Uiso   1.00
C54    C     0.92069   0.24617   0.16545   0.00000  Uiso   1.00
C55    C     0.76463   0.42425   0.16782   0.00000  Uiso   1.00
C56    C     0.28006   0.10605   0.13585   0.00000  Uiso   1.00
C57    C     0.31533   0.02068   0.10132   0.00000  Uiso   1.00
C58    C     0.38406   0.12330   0.07764   0.00000  Uiso   1.00
C59    C     0.49621   0.23023   0.02920   0.00000  Uiso   1.00
C60    C     0.26397   0.35349   0.18533   0.00000  Uiso   1.00
C61    C     0.29945   0.21073   0.21735   0.00000  Uiso   1.00
C62    C     0.35737   0.24893   0.25343   0.00000  Uiso   1.00
C63    C     0.38197   0.09907   0.27867   0.00000  Uiso   1.00
C64    C     0.13953   0.33331   0.17907   0.00000  Uiso   1.00
C65    C     0.06299   0.47460   0.18295   0.00000  Uiso   1.00
C66    C     0.95296   0.42795   0.17596   0.00000  Uiso   1.00
C67    C     0.31228   0.28750   0.14634   0.00000  Uiso   1.00
C68    C     0.38095   0.39028   0.12270   0.00000  Uiso   1.00
C69    C     0.41633   0.30508   0.08815   0.00000  Uiso   1.00
H70    H     0.17958   0.87815   0.15784   0.00000  Uiso   1.00
H71    H     0.26680   0.73892   0.22392   0.00000  Uiso   1.00
H72    H     0.97247   0.96457   0.15345   0.00000  Uiso   1.00
H73    H     0.29039   0.88026   0.09321   0.00000  Uiso   1.00
H74    H     0.37767   0.66459   0.30181   0.00000  Uiso   1.00
H75    H     0.75707   0.14038   0.15321   0.00000  Uiso   1.00
H76    H     0.42745   0.96260   0.02619   0.00000  Uiso   1.00
H77    H     0.28905   0.49476   0.19350   0.00000  Uiso   1.00
H78    H     0.38229   0.38937   0.26154   0.00000  Uiso   1.00
H79    H     0.08795   0.61501   0.19107   0.00000  Uiso   1.00
H80    H     0.40587   0.53070   0.13083   0.00000  Uiso   1.00
H81    H     0.47140   0.19252   0.33235   0.00000  Uiso   1.00
H82    H     0.85079   0.66831   0.18374   0.00000  Uiso   1.00
H83    H     0.52118   0.49053   0.05672   0.00000  Uiso   1.00
O84    O     0.48386   0.84810   0.36120   0.00000  Uiso   1.00
O85    O     0.66965   0.47233   0.16623   0.00000  Uiso   1.00
O86    O     0.54918   0.23908   0.99958   0.00000  Uiso   1.00
N87    N     0.38696   0.80330   0.29966   0.00000  Uiso   1.00
N88    N     0.80672   0.24813   0.16073   0.00000  Uiso   1.00
N89    N     0.43345   0.08193   0.04197   0.00000  Uiso   1.00
N90    N     0.43739   0.08737   0.31609   0.00000  Uiso   1.00
N91    N     0.85716   0.53220   0.17716   0.00000  Uiso   1.00
N92    N     0.48389   0.36601   0.05840   0.00000  Uiso   1.00
C93    C     0.20467   0.98058   0.66601   0.00000  Uiso   1.00
C94    C     0.26724   0.97073   0.70686   0.00000  Uiso   1.00
C95    C     0.29175   0.12067   0.73205   0.00000  Uiso   1.00
C96    C     0.34969   0.08271   0.76815   0.00000  Uiso   1.00
C97    C     0.44191   0.09500   0.82999   0.00000  Uiso   1.00
C98    C     0.10732   0.84813   0.66858   0.00000  Uiso   1.00
C99    C     0.99737   0.89501   0.66157   0.00000  Uiso   1.00
C100   C     0.92069   0.75383   0.66545   0.00000  Uiso   1.00
C101   C     0.76463   0.57575   0.66782   0.00000  Uiso   1.00
C102   C     0.28006   0.89395   0.63585   0.00000  Uiso   1.00
C103   C     0.31533   0.97932   0.60132   0.00000  Uiso   1.00
C104   C     0.38406   0.87670   0.57764   0.00000  Uiso   1.00
C105   C     0.49621   0.76977   0.52920   0.00000  Uiso   1.00
C106   C     0.26397   0.64651   0.68533   0.00000  Uiso   1.00
C107   C     0.29945   0.78927   0.71735   0.00000  Uiso   1.00
C108   C     0.35737   0.75107   0.75343   0.00000  Uiso   1.00
C109   C     0.38197   0.90093   0.77867   0.00000  Uiso   1.00
C110   C     0.13953   0.66669   0.67907   0.00000  Uiso   1.00
C111   C     0.06299   0.52540   0.68295   0.00000  Uiso   1.00
C112   C     0.95296   0.57205   0.67596   0.00000  Uiso   1.00
C113   C     0.31228   0.71250   0.64634   0.00000  Uiso   1.00
C114   C     0.38095   0.60972   0.62270   0.00000  Uiso   1.00
C115   C     0.41633   0.69492   0.58815   0.00000  Uiso   1.00
H116   H     0.17958   0.12185   0.65784   0.00000  Uiso   1.00
H117   H     0.26680   0.26108   0.72392   0.00000  Uiso   1.00
H118   H     0.97247   0.03543   0.65345   0.00000  Uiso   1.00
H119   H     0.29039   0.11974   0.59321   0.00000  Uiso   1.00
H120   H     0.37767   0.33541   0.80181   0.00000  Uiso   1.00
H121   H     0.75707   0.85962   0.65321   0.00000  Uiso   1.00
H122   H     0.42745   0.03740   0.52619   0.00000  Uiso   1.00
H123   H     0.28905   0.50524   0.69350   0.00000  Uiso   1.00
H124   H     0.38229   0.61063   0.76154   0.00000  Uiso   1.00
H125   H     0.08795   0.38499   0.69107   0.00000  Uiso   1.00
H126   H     0.40587   0.46930   0.63083   0.00000  Uiso   1.00
H127   H     0.47140   0.80748   0.83235   0.00000  Uiso   1.00
H128   H     0.85079   0.33169   0.68374   0.00000  Uiso   1.00
H129   H     0.52118   0.50947   0.55672   0.00000  Uiso   1.00
O130   O     0.48386   0.15190   0.86120   0.00000  Uiso   1.00
O131   O     0.66965   0.52767   0.66623   0.00000  Uiso   1.00
O132   O     0.54918   0.76092   0.49958   0.00000  Uiso   1.00
N133   N     0.38696   0.19670   0.79966   0.00000  Uiso   1.00
N134   N     0.80672   0.75187   0.66073   0.00000  Uiso   1.00
N135   N     0.43345   0.91807   0.54197   0.00000  Uiso   1.00
N136   N     0.43739   0.91263   0.81609   0.00000  Uiso   1.00
N137   N     0.85716   0.46780   0.67716   0.00000  Uiso   1.00
N138   N     0.48389   0.63399   0.55840   0.00000  Uiso   1.00
C139   C     0.79533   0.98058   0.83399   0.00000  Uiso   1.00
C140   C     0.73276   0.97073   0.79314   0.00000  Uiso   1.00
C141   C     0.70825   0.12067   0.76795   0.00000  Uiso   1.00
C142   C     0.65031   0.08271   0.73185   0.00000  Uiso   1.00
C143   C     0.55809   0.09500   0.67001   0.00000  Uiso   1.00
C144   C     0.89268   0.84813   0.83142   0.00000  Uiso   1.00
C145   C     0.00263   0.89501   0.83843   0.00000  Uiso   1.00
C146   C     0.07931   0.75383   0.83455   0.00000  Uiso   1.00
C147   C     0.23537   0.57575   0.83218   0.00000  Uiso   1.00
C148   C     0.71994   0.89395   0.86415   0.00000  Uiso   1.00
C149   C     0.68467   0.97932   0.89868   0.00000  Uiso   1.00
C150   C     0.61594   0.87670   0.92236   0.00000  Uiso   1.00
C151   C     0.50379   0.76977   0.97080   0.00000  Uiso   1.00
C152   C     0.73603   0.64651   0.81467   0.00000  Uiso   1.00
C153   C     0.70055   0.78927   0.78265   0.00000  Uiso   1.00
C154   C     0.64263   0.75107   0.74657   0.00000  Uiso   1.00
C155   C     0.61803   0.90093   0.72133   0.00000  Uiso   1.00
C156   C     0.86047   0.66669   0.82093   0.00000  Uiso   1.00
C157   C     0.93701   0.52540   0.81705   0.00000  Uiso   1.00
C158   C     0.04704   0.57205   0.82404   0.00000  Uiso   1.00
C159   C     0.68772   0.71250   0.85366   0.00000  Uiso   1.00
C160   C     0.61905   0.60972   0.87730   0.00000  Uiso   1.00
C161   C     0.58367   0.69492   0.91185   0.00000  Uiso   1.00
H162   H     0.82042   0.12185   0.84216   0.00000  Uiso   1.00
H163   H     0.73320   0.26108   0.77608   0.00000  Uiso   1.00
H164   H     0.02753   0.03543   0.84655   0.00000  Uiso   1.00
H165   H     0.70961   0.11974   0.90679   0.00000  Uiso   1.00
H166   H     0.62233   0.33541   0.69819   0.00000  Uiso   1.00
H167   H     0.24293   0.85962   0.84679   0.00000  Uiso   1.00
H168   H     0.57255   0.03740   0.97381   0.00000  Uiso   1.00
H169   H     0.71095   0.50524   0.80650   0.00000  Uiso   1.00
H170   H     0.61771   0.61063   0.73846   0.00000  Uiso   1.00
H171   H     0.91205   0.38499   0.80893   0.00000  Uiso   1.00
H172   H     0.59413   0.46930   0.86917   0.00000  Uiso   1.00
H173   H     0.52860   0.80748   0.66765   0.00000  Uiso   1.00
H174   H     0.14921   0.33169   0.81626   0.00000  Uiso   1.00
H175   H     0.47882   0.50947   0.94328   0.00000  Uiso   1.00
O176   O     0.51614   0.15190   0.63880   0.00000  Uiso   1.00
O177   O     0.33035   0.52767   0.83377   0.00000  Uiso   1.00
O178   O     0.45082   0.76092   0.00042   0.00000  Uiso   1.00
N179   N     0.61304   0.19670   0.70034   0.00000  Uiso   1.00
N180   N     0.19328   0.75187   0.83927   0.00000  Uiso   1.00
N181   N     0.56655   0.91807   0.95803   0.00000  Uiso   1.00
N182   N     0.56261   0.91263   0.68391   0.00000  Uiso   1.00
N183   N     0.14284   0.46780   0.82284   0.00000  Uiso   1.00
N184   N     0.51611   0.63399   0.94160   0.00000  Uiso   1.00
