data_job_02290
_audit_creation_date              2018-12-19
_audit_creation_method            'Materials Studio'
_symmetry_space_group_name_H-M    'P1'
_symmetry_Int_Tables_number       1
_symmetry_cell_setting            triclinic
loop_
_symmetry_equiv_pos_as_xyz
  x,y,z
_cell_length_a                    17.0225
_cell_length_b                    19.8893
_cell_length_c                    17.6567
_cell_angle_alpha                 90.0000
_cell_angle_beta                  90.0000
_cell_angle_gamma                 90.0000
loop_
_atom_site_label
_atom_site_type_symbol
_atom_site_fract_x
_atom_site_fract_y
_atom_site_fract_z
_atom_site_U_iso_or_equiv
_atom_site_adp_type
_atom_site_occupancy
C1     C     0.90223   0.65214   0.92800   0.00000  Uiso   1.00
C2     C     0.98549   0.67843   0.91618   0.00000  Uiso   1.00
C3     C     0.03567   0.66017   0.85776   0.00000  Uiso   1.00
C4     C     0.10949   0.68985   0.85691   0.00000  Uiso   1.00
C5     C     0.23532   0.72360   0.83013   0.00000  Uiso   1.00
C6     C     0.90058   0.62241   0.00759   0.00000  Uiso   1.00
C7     C     0.87935   0.55705   0.02601   0.00000  Uiso   1.00
C8     C     0.88167   0.53958   0.10211   0.00000  Uiso   1.00
C9     C     0.87561   0.48638   0.21724   0.00000  Uiso   1.00
C10    C     0.84932   0.71397   0.93040   0.00000  Uiso   1.00
C11    C     0.78498   0.72559   0.88393   0.00000  Uiso   1.00
C12    C     0.74413   0.78520   0.89505   0.00000  Uiso   1.00
C13    C     0.65850   0.87416   0.89033   0.00000  Uiso   1.00
C14    C     0.94409   0.73734   0.03040   0.00000  Uiso   1.00
C15    C     0.00822   0.72470   0.97181   0.00000  Uiso   1.00
C16    C     0.08198   0.75443   0.97105   0.00000  Uiso   1.00
C17    C     0.13226   0.73621   0.91263   0.00000  Uiso   1.00
C18    C     0.92331   0.66868   0.06321   0.00000  Uiso   1.00
C19    C     0.92565   0.65131   0.13930   0.00000  Uiso   1.00
C20    C     0.90444   0.58594   0.15783   0.00000  Uiso   1.00
C21    C     0.87205   0.76025   0.98601   0.00000  Uiso   1.00
C22    C     0.83129   0.81985   0.99722   0.00000  Uiso   1.00
C23    C     0.76691   0.83156   0.95077   0.00000  Uiso   1.00
H24    H     0.88453   0.61612   0.88470   0.00000  Uiso   1.00
H25    H     0.01806   0.62435   0.81473   0.00000  Uiso   1.00
H26    H     0.86175   0.52126   0.98295   0.00000  Uiso   1.00
H27    H     0.76741   0.68977   0.84089   0.00000  Uiso   1.00
H28    H     0.17614   0.65387   0.76170   0.00000  Uiso   1.00
H29    H     0.84653   0.43649   0.11641   0.00000  Uiso   1.00
H30    H     0.64757   0.79184   0.81685   0.00000  Uiso   1.00
H31    H     0.96178   0.77336   0.07370   0.00000  Uiso   1.00
H32    H     0.09955   0.79023   0.01410   0.00000  Uiso   1.00
H33    H     0.94324   0.68713   0.18232   0.00000  Uiso   1.00
H34    H     0.84890   0.85565   0.04026   0.00000  Uiso   1.00
H35    H     0.24228   0.78850   0.92351   0.00000  Uiso   1.00
H36    H     0.91267   0.57112   0.27823   0.00000  Uiso   1.00
H37    H     0.71372   0.92647   0.97867   0.00000  Uiso   1.00
O38    O     0.29845   0.72943   0.80000   0.00000  Uiso   1.00
O39    O     0.86600   0.44424   0.26537   0.00000  Uiso   1.00
O40    O     0.60499   0.91044   0.87235   0.00000  Uiso   1.00
N41    N     0.17279   0.68325   0.80795   0.00000  Uiso   1.00
N42    N     0.86464   0.48001   0.13959   0.00000  Uiso   1.00
N43    N     0.67862   0.81222   0.85954   0.00000  Uiso   1.00
N44    N     0.20838   0.75570   0.89502   0.00000  Uiso   1.00
N45    N     0.90023   0.55246   0.22666   0.00000  Uiso   1.00
N46    N     0.71421   0.88467   0.94661   0.00000  Uiso   1.00
C47    C     0.59777   0.84786   0.42800   0.00000  Uiso   1.00
C48    C     0.51451   0.82157   0.41618   0.00000  Uiso   1.00
C49    C     0.46433   0.83983   0.35776   0.00000  Uiso   1.00
C50    C     0.39051   0.81015   0.35691   0.00000  Uiso   1.00
C51    C     0.26468   0.77640   0.33013   0.00000  Uiso   1.00
C52    C     0.59942   0.87759   0.50759   0.00000  Uiso   1.00
C53    C     0.62065   0.94295   0.52601   0.00000  Uiso   1.00
C54    C     0.61833   0.96042   0.60211   0.00000  Uiso   1.00
C55    C     0.62439   0.01362   0.71724   0.00000  Uiso   1.00
C56    C     0.65068   0.78603   0.43040   0.00000  Uiso   1.00
C57    C     0.71502   0.77441   0.38393   0.00000  Uiso   1.00
C58    C     0.75587   0.71480   0.39505   0.00000  Uiso   1.00
C59    C     0.84150   0.62584   0.39033   0.00000  Uiso   1.00
C60    C     0.55591   0.76266   0.53040   0.00000  Uiso   1.00
C61    C     0.49178   0.77530   0.47181   0.00000  Uiso   1.00
C62    C     0.41802   0.74557   0.47105   0.00000  Uiso   1.00
C63    C     0.36774   0.76379   0.41263   0.00000  Uiso   1.00
C64    C     0.57669   0.83132   0.56321   0.00000  Uiso   1.00
C65    C     0.57435   0.84869   0.63930   0.00000  Uiso   1.00
C66    C     0.59556   0.91406   0.65783   0.00000  Uiso   1.00
C67    C     0.62795   0.73975   0.48601   0.00000  Uiso   1.00
C68    C     0.66871   0.68015   0.49722   0.00000  Uiso   1.00
C69    C     0.73309   0.66844   0.45077   0.00000  Uiso   1.00
H70    H     0.61547   0.88388   0.38470   0.00000  Uiso   1.00
H71    H     0.48194   0.87565   0.31473   0.00000  Uiso   1.00
H72    H     0.63825   0.97874   0.48295   0.00000  Uiso   1.00
H73    H     0.73259   0.81023   0.34089   0.00000  Uiso   1.00
H74    H     0.32386   0.84613   0.26170   0.00000  Uiso   1.00
H75    H     0.65347   0.06351   0.61641   0.00000  Uiso   1.00
H76    H     0.85243   0.70816   0.31685   0.00000  Uiso   1.00
H77    H     0.53822   0.72664   0.57370   0.00000  Uiso   1.00
H78    H     0.40045   0.70977   0.51410   0.00000  Uiso   1.00
H79    H     0.55676   0.81287   0.68232   0.00000  Uiso   1.00
H80    H     0.65110   0.64435   0.54026   0.00000  Uiso   1.00
H81    H     0.25772   0.71150   0.42351   0.00000  Uiso   1.00
H82    H     0.58733   0.92888   0.77823   0.00000  Uiso   1.00
H83    H     0.78628   0.57353   0.47867   0.00000  Uiso   1.00
O84    O     0.20155   0.77057   0.30000   0.00000  Uiso   1.00
O85    O     0.63400   0.05576   0.76537   0.00000  Uiso   1.00
O86    O     0.89501   0.58956   0.37235   0.00000  Uiso   1.00
N87    N     0.32721   0.81675   0.30795   0.00000  Uiso   1.00
N88    N     0.63536   0.01999   0.63959   0.00000  Uiso   1.00
N89    N     0.82138   0.68778   0.35954   0.00000  Uiso   1.00
N90    N     0.29162   0.74430   0.39502   0.00000  Uiso   1.00
N91    N     0.59977   0.94754   0.72666   0.00000  Uiso   1.00
N92    N     0.78579   0.61533   0.44661   0.00000  Uiso   1.00
C93    C     0.09777   0.65214   0.57200   0.00000  Uiso   1.00
C94    C     0.01451   0.67843   0.58382   0.00000  Uiso   1.00
C95    C     0.96433   0.66017   0.64224   0.00000  Uiso   1.00
C96    C     0.89051   0.68985   0.64309   0.00000  Uiso   1.00
C97    C     0.76468   0.72360   0.66987   0.00000  Uiso   1.00
C98    C     0.09942   0.62241   0.49241   0.00000  Uiso   1.00
C99    C     0.12065   0.55705   0.47399   0.00000  Uiso   1.00
C100   C     0.11833   0.53958   0.39789   0.00000  Uiso   1.00
C101   C     0.12439   0.48638   0.28276   0.00000  Uiso   1.00
C102   C     0.15068   0.71397   0.56960   0.00000  Uiso   1.00
C103   C     0.21502   0.72559   0.61607   0.00000  Uiso   1.00
C104   C     0.25587   0.78520   0.60495   0.00000  Uiso   1.00
C105   C     0.34150   0.87416   0.60967   0.00000  Uiso   1.00
C106   C     0.05591   0.73734   0.46960   0.00000  Uiso   1.00
C107   C     0.99178   0.72470   0.52819   0.00000  Uiso   1.00
C108   C     0.91802   0.75443   0.52895   0.00000  Uiso   1.00
C109   C     0.86774   0.73621   0.58737   0.00000  Uiso   1.00
C110   C     0.07669   0.66868   0.43679   0.00000  Uiso   1.00
C111   C     0.07435   0.65131   0.36070   0.00000  Uiso   1.00
C112   C     0.09556   0.58594   0.34217   0.00000  Uiso   1.00
C113   C     0.12795   0.76025   0.51399   0.00000  Uiso   1.00
C114   C     0.16871   0.81985   0.50278   0.00000  Uiso   1.00
C115   C     0.23309   0.83156   0.54923   0.00000  Uiso   1.00
H116   H     0.11547   0.61612   0.61530   0.00000  Uiso   1.00
H117   H     0.98194   0.62435   0.68527   0.00000  Uiso   1.00
H118   H     0.13825   0.52126   0.51705   0.00000  Uiso   1.00
H119   H     0.23259   0.68977   0.65911   0.00000  Uiso   1.00
H120   H     0.82386   0.65387   0.73830   0.00000  Uiso   1.00
H121   H     0.15347   0.43649   0.38359   0.00000  Uiso   1.00
H122   H     0.35243   0.79184   0.68315   0.00000  Uiso   1.00
H123   H     0.03822   0.77336   0.42630   0.00000  Uiso   1.00
H124   H     0.90045   0.79023   0.48590   0.00000  Uiso   1.00
H125   H     0.05676   0.68713   0.31768   0.00000  Uiso   1.00
H126   H     0.15110   0.85565   0.45974   0.00000  Uiso   1.00
H127   H     0.75772   0.78850   0.57649   0.00000  Uiso   1.00
H128   H     0.08733   0.57112   0.22177   0.00000  Uiso   1.00
H129   H     0.28628   0.92647   0.52133   0.00000  Uiso   1.00
O130   O     0.70155   0.72943   0.70000   0.00000  Uiso   1.00
O131   O     0.13400   0.44424   0.23463   0.00000  Uiso   1.00
O132   O     0.39501   0.91044   0.62765   0.00000  Uiso   1.00
N133   N     0.82721   0.68325   0.69205   0.00000  Uiso   1.00
N134   N     0.13536   0.48001   0.36041   0.00000  Uiso   1.00
N135   N     0.32138   0.81222   0.64046   0.00000  Uiso   1.00
N136   N     0.79162   0.75570   0.60498   0.00000  Uiso   1.00
N137   N     0.09977   0.55246   0.27334   0.00000  Uiso   1.00
N138   N     0.28579   0.88467   0.55339   0.00000  Uiso   1.00
C139   C     0.40223   0.84786   0.07200   0.00000  Uiso   1.00
C140   C     0.48549   0.82157   0.08382   0.00000  Uiso   1.00
C141   C     0.53567   0.83983   0.14224   0.00000  Uiso   1.00
C142   C     0.60949   0.81015   0.14309   0.00000  Uiso   1.00
C143   C     0.73532   0.77640   0.16987   0.00000  Uiso   1.00
C144   C     0.40058   0.87759   0.99241   0.00000  Uiso   1.00
C145   C     0.37935   0.94295   0.97399   0.00000  Uiso   1.00
C146   C     0.38167   0.96042   0.89789   0.00000  Uiso   1.00
C147   C     0.37561   0.01362   0.78276   0.00000  Uiso   1.00
C148   C     0.34932   0.78603   0.06960   0.00000  Uiso   1.00
C149   C     0.28498   0.77441   0.11607   0.00000  Uiso   1.00
C150   C     0.24413   0.71480   0.10495   0.00000  Uiso   1.00
C151   C     0.15850   0.62584   0.10967   0.00000  Uiso   1.00
C152   C     0.44409   0.76266   0.96960   0.00000  Uiso   1.00
C153   C     0.50822   0.77530   0.02819   0.00000  Uiso   1.00
C154   C     0.58198   0.74557   0.02895   0.00000  Uiso   1.00
C155   C     0.63226   0.76379   0.08737   0.00000  Uiso   1.00
C156   C     0.42331   0.83132   0.93679   0.00000  Uiso   1.00
C157   C     0.42565   0.84869   0.86070   0.00000  Uiso   1.00
C158   C     0.40444   0.91406   0.84217   0.00000  Uiso   1.00
C159   C     0.37205   0.73975   0.01399   0.00000  Uiso   1.00
C160   C     0.33129   0.68015   0.00278   0.00000  Uiso   1.00
C161   C     0.26691   0.66844   0.04923   0.00000  Uiso   1.00
H162   H     0.38453   0.88388   0.11530   0.00000  Uiso   1.00
H163   H     0.51806   0.87565   0.18527   0.00000  Uiso   1.00
H164   H     0.36175   0.97874   0.01705   0.00000  Uiso   1.00
H165   H     0.26741   0.81023   0.15911   0.00000  Uiso   1.00
H166   H     0.67614   0.84613   0.23830   0.00000  Uiso   1.00
H167   H     0.34653   0.06351   0.88359   0.00000  Uiso   1.00
H168   H     0.14757   0.70816   0.18315   0.00000  Uiso   1.00
H169   H     0.46178   0.72664   0.92630   0.00000  Uiso   1.00
H170   H     0.59955   0.70977   0.98590   0.00000  Uiso   1.00
H171   H     0.44324   0.81287   0.81768   0.00000  Uiso   1.00
H172   H     0.34890   0.64435   0.95974   0.00000  Uiso   1.00
H173   H     0.74228   0.71150   0.07649   0.00000  Uiso   1.00
H174   H     0.41267   0.92888   0.72177   0.00000  Uiso   1.00
H175   H     0.21372   0.57353   0.02133   0.00000  Uiso   1.00
O176   O     0.79845   0.77057   0.20000   0.00000  Uiso   1.00
O177   O     0.36600   0.05576   0.73463   0.00000  Uiso   1.00
O178   O     0.10499   0.58956   0.12765   0.00000  Uiso   1.00
N179   N     0.67279   0.81675   0.19205   0.00000  Uiso   1.00
N180   N     0.36464   0.01999   0.86041   0.00000  Uiso   1.00
N181   N     0.17862   0.68778   0.14046   0.00000  Uiso   1.00
N182   N     0.70838   0.74430   0.10498   0.00000  Uiso   1.00
N183   N     0.40023   0.94754   0.77334   0.00000  Uiso   1.00
N184   N     0.21421   0.61533   0.05339   0.00000  Uiso   1.00
C185   C     0.09777   0.34786   0.07200   0.00000  Uiso   1.00
C186   C     0.01451   0.32157   0.08382   0.00000  Uiso   1.00
C187   C     0.96433   0.33983   0.14224   0.00000  Uiso   1.00
C188   C     0.89051   0.31015   0.14309   0.00000  Uiso   1.00
C189   C     0.76468   0.27640   0.16987   0.00000  Uiso   1.00
C190   C     0.09942   0.37759   0.99241   0.00000  Uiso   1.00
C191   C     0.12065   0.44295   0.97399   0.00000  Uiso   1.00
C192   C     0.11833   0.46042   0.89789   0.00000  Uiso   1.00
C193   C     0.12439   0.51362   0.78276   0.00000  Uiso   1.00
C194   C     0.15068   0.28603   0.06960   0.00000  Uiso   1.00
C195   C     0.21502   0.27441   0.11607   0.00000  Uiso   1.00
C196   C     0.25587   0.21480   0.10495   0.00000  Uiso   1.00
C197   C     0.34150   0.12584   0.10967   0.00000  Uiso   1.00
C198   C     0.05591   0.26266   0.96960   0.00000  Uiso   1.00
C199   C     0.99178   0.27530   0.02819   0.00000  Uiso   1.00
C200   C     0.91802   0.24557   0.02895   0.00000  Uiso   1.00
C201   C     0.86774   0.26379   0.08737   0.00000  Uiso   1.00
C202   C     0.07669   0.33132   0.93679   0.00000  Uiso   1.00
C203   C     0.07435   0.34869   0.86070   0.00000  Uiso   1.00
C204   C     0.09556   0.41406   0.84217   0.00000  Uiso   1.00
C205   C     0.12795   0.23975   0.01399   0.00000  Uiso   1.00
C206   C     0.16871   0.18015   0.00278   0.00000  Uiso   1.00
C207   C     0.23309   0.16844   0.04923   0.00000  Uiso   1.00
H208   H     0.11547   0.38388   0.11530   0.00000  Uiso   1.00
H209   H     0.98194   0.37565   0.18527   0.00000  Uiso   1.00
H210   H     0.13825   0.47874   0.01705   0.00000  Uiso   1.00
H211   H     0.23259   0.31023   0.15911   0.00000  Uiso   1.00
H212   H     0.82386   0.34613   0.23830   0.00000  Uiso   1.00
H213   H     0.15347   0.56351   0.88359   0.00000  Uiso   1.00
H214   H     0.35243   0.20816   0.18315   0.00000  Uiso   1.00
H215   H     0.03822   0.22664   0.92630   0.00000  Uiso   1.00
H216   H     0.90045   0.20977   0.98590   0.00000  Uiso   1.00
H217   H     0.05676   0.31287   0.81768   0.00000  Uiso   1.00
H218   H     0.15110   0.14435   0.95974   0.00000  Uiso   1.00
H219   H     0.75772   0.21150   0.07649   0.00000  Uiso   1.00
H220   H     0.08733   0.42888   0.72177   0.00000  Uiso   1.00
H221   H     0.28628   0.07353   0.02133   0.00000  Uiso   1.00
O222   O     0.70155   0.27057   0.20000   0.00000  Uiso   1.00
O223   O     0.13400   0.55576   0.73463   0.00000  Uiso   1.00
O224   O     0.39501   0.08956   0.12765   0.00000  Uiso   1.00
N225   N     0.82721   0.31675   0.19205   0.00000  Uiso   1.00
N226   N     0.13536   0.51999   0.86041   0.00000  Uiso   1.00
N227   N     0.32138   0.18778   0.14046   0.00000  Uiso   1.00
N228   N     0.79162   0.24430   0.10498   0.00000  Uiso   1.00
N229   N     0.09977   0.44754   0.77334   0.00000  Uiso   1.00
N230   N     0.28579   0.11533   0.05339   0.00000  Uiso   1.00
C231   C     0.40223   0.15214   0.57200   0.00000  Uiso   1.00
C232   C     0.48549   0.17843   0.58382   0.00000  Uiso   1.00
C233   C     0.53567   0.16017   0.64224   0.00000  Uiso   1.00
C234   C     0.60949   0.18985   0.64309   0.00000  Uiso   1.00
C235   C     0.73532   0.22360   0.66987   0.00000  Uiso   1.00
C236   C     0.40058   0.12241   0.49241   0.00000  Uiso   1.00
C237   C     0.37935   0.05705   0.47399   0.00000  Uiso   1.00
C238   C     0.38167   0.03958   0.39789   0.00000  Uiso   1.00
C239   C     0.37561   0.98638   0.28276   0.00000  Uiso   1.00
C240   C     0.34932   0.21397   0.56960   0.00000  Uiso   1.00
C241   C     0.28498   0.22559   0.61607   0.00000  Uiso   1.00
C242   C     0.24413   0.28520   0.60495   0.00000  Uiso   1.00
C243   C     0.15850   0.37416   0.60967   0.00000  Uiso   1.00
C244   C     0.44409   0.23734   0.46960   0.00000  Uiso   1.00
C245   C     0.50822   0.22470   0.52819   0.00000  Uiso   1.00
C246   C     0.58198   0.25443   0.52895   0.00000  Uiso   1.00
C247   C     0.63226   0.23621   0.58737   0.00000  Uiso   1.00
C248   C     0.42331   0.16868   0.43679   0.00000  Uiso   1.00
C249   C     0.42565   0.15131   0.36070   0.00000  Uiso   1.00
C250   C     0.40444   0.08594   0.34217   0.00000  Uiso   1.00
C251   C     0.37205   0.26025   0.51399   0.00000  Uiso   1.00
C252   C     0.33129   0.31985   0.50278   0.00000  Uiso   1.00
C253   C     0.26691   0.33156   0.54923   0.00000  Uiso   1.00
H254   H     0.38453   0.11612   0.61530   0.00000  Uiso   1.00
H255   H     0.51806   0.12435   0.68527   0.00000  Uiso   1.00
H256   H     0.36175   0.02126   0.51705   0.00000  Uiso   1.00
H257   H     0.26741   0.18977   0.65911   0.00000  Uiso   1.00
H258   H     0.67614   0.15387   0.73830   0.00000  Uiso   1.00
H259   H     0.34653   0.93649   0.38359   0.00000  Uiso   1.00
H260   H     0.14757   0.29184   0.68315   0.00000  Uiso   1.00
H261   H     0.46178   0.27336   0.42630   0.00000  Uiso   1.00
H262   H     0.59955   0.29023   0.48590   0.00000  Uiso   1.00
H263   H     0.44324   0.18713   0.31768   0.00000  Uiso   1.00
H264   H     0.34890   0.35565   0.45974   0.00000  Uiso   1.00
H265   H     0.74228   0.28850   0.57649   0.00000  Uiso   1.00
H266   H     0.41267   0.07112   0.22177   0.00000  Uiso   1.00
H267   H     0.21372   0.42647   0.52133   0.00000  Uiso   1.00
O268   O     0.79845   0.22943   0.70000   0.00000  Uiso   1.00
O269   O     0.36600   0.94424   0.23463   0.00000  Uiso   1.00
O270   O     0.10499   0.41044   0.62765   0.00000  Uiso   1.00
N271   N     0.67279   0.18325   0.69205   0.00000  Uiso   1.00
N272   N     0.36464   0.98001   0.36041   0.00000  Uiso   1.00
N273   N     0.17862   0.31222   0.64046   0.00000  Uiso   1.00
N274   N     0.70838   0.25570   0.60498   0.00000  Uiso   1.00
N275   N     0.40023   0.05246   0.27334   0.00000  Uiso   1.00
N276   N     0.21421   0.38467   0.55339   0.00000  Uiso   1.00
C277   C     0.90223   0.34786   0.42800   0.00000  Uiso   1.00
C278   C     0.98549   0.32157   0.41618   0.00000  Uiso   1.00
C279   C     0.03567   0.33983   0.35776   0.00000  Uiso   1.00
C280   C     0.10949   0.31015   0.35691   0.00000  Uiso   1.00
C281   C     0.23532   0.27640   0.33013   0.00000  Uiso   1.00
C282   C     0.90058   0.37759   0.50759   0.00000  Uiso   1.00
C283   C     0.87935   0.44295   0.52601   0.00000  Uiso   1.00
C284   C     0.88167   0.46042   0.60211   0.00000  Uiso   1.00
C285   C     0.87561   0.51362   0.71724   0.00000  Uiso   1.00
C286   C     0.84932   0.28603   0.43040   0.00000  Uiso   1.00
C287   C     0.78498   0.27441   0.38393   0.00000  Uiso   1.00
C288   C     0.74413   0.21480   0.39505   0.00000  Uiso   1.00
C289   C     0.65850   0.12584   0.39033   0.00000  Uiso   1.00
C290   C     0.94409   0.26266   0.53040   0.00000  Uiso   1.00
C291   C     0.00822   0.27530   0.47181   0.00000  Uiso   1.00
C292   C     0.08198   0.24557   0.47105   0.00000  Uiso   1.00
C293   C     0.13226   0.26379   0.41263   0.00000  Uiso   1.00
C294   C     0.92331   0.33132   0.56321   0.00000  Uiso   1.00
C295   C     0.92565   0.34869   0.63930   0.00000  Uiso   1.00
C296   C     0.90444   0.41406   0.65783   0.00000  Uiso   1.00
C297   C     0.87205   0.23975   0.48601   0.00000  Uiso   1.00
C298   C     0.83129   0.18015   0.49722   0.00000  Uiso   1.00
C299   C     0.76691   0.16844   0.45077   0.00000  Uiso   1.00
H300   H     0.88453   0.38388   0.38470   0.00000  Uiso   1.00
H301   H     0.01806   0.37565   0.31473   0.00000  Uiso   1.00
H302   H     0.86175   0.47874   0.48295   0.00000  Uiso   1.00
H303   H     0.76741   0.31023   0.34089   0.00000  Uiso   1.00
H304   H     0.17614   0.34613   0.26170   0.00000  Uiso   1.00
H305   H     0.84653   0.56351   0.61641   0.00000  Uiso   1.00
H306   H     0.64757   0.20816   0.31685   0.00000  Uiso   1.00
H307   H     0.96178   0.22664   0.57370   0.00000  Uiso   1.00
H308   H     0.09955   0.20977   0.51410   0.00000  Uiso   1.00
H309   H     0.94324   0.31287   0.68232   0.00000  Uiso   1.00
H310   H     0.84890   0.14435   0.54026   0.00000  Uiso   1.00
H311   H     0.24228   0.21150   0.42351   0.00000  Uiso   1.00
H312   H     0.91267   0.42888   0.77823   0.00000  Uiso   1.00
H313   H     0.71372   0.07353   0.47867   0.00000  Uiso   1.00
O314   O     0.29845   0.27057   0.30000   0.00000  Uiso   1.00
O315   O     0.86600   0.55576   0.76537   0.00000  Uiso   1.00
O316   O     0.60499   0.08956   0.37235   0.00000  Uiso   1.00
N317   N     0.17279   0.31675   0.30795   0.00000  Uiso   1.00
N318   N     0.86464   0.51999   0.63959   0.00000  Uiso   1.00
N319   N     0.67862   0.18778   0.35954   0.00000  Uiso   1.00
N320   N     0.20838   0.24430   0.39502   0.00000  Uiso   1.00
N321   N     0.90023   0.44754   0.72666   0.00000  Uiso   1.00
N322   N     0.71421   0.11533   0.44661   0.00000  Uiso   1.00
C323   C     0.59777   0.15214   0.92800   0.00000  Uiso   1.00
C324   C     0.51451   0.17843   0.91618   0.00000  Uiso   1.00
C325   C     0.46433   0.16017   0.85776   0.00000  Uiso   1.00
C326   C     0.39051   0.18985   0.85691   0.00000  Uiso   1.00
C327   C     0.26468   0.22360   0.83013   0.00000  Uiso   1.00
C328   C     0.59942   0.12241   0.00759   0.00000  Uiso   1.00
C329   C     0.62065   0.05705   0.02601   0.00000  Uiso   1.00
C330   C     0.61833   0.03958   0.10211   0.00000  Uiso   1.00
C331   C     0.62439   0.98638   0.21724   0.00000  Uiso   1.00
C332   C     0.65068   0.21397   0.93040   0.00000  Uiso   1.00
C333   C     0.71502   0.22559   0.88393   0.00000  Uiso   1.00
C334   C     0.75587   0.28520   0.89505   0.00000  Uiso   1.00
C335   C     0.84150   0.37416   0.89033   0.00000  Uiso   1.00
C336   C     0.55591   0.23734   0.03040   0.00000  Uiso   1.00
C337   C     0.49178   0.22470   0.97181   0.00000  Uiso   1.00
C338   C     0.41802   0.25443   0.97105   0.00000  Uiso   1.00
C339   C     0.36774   0.23621   0.91263   0.00000  Uiso   1.00
C340   C     0.57669   0.16868   0.06321   0.00000  Uiso   1.00
C341   C     0.57435   0.15131   0.13930   0.00000  Uiso   1.00
C342   C     0.59556   0.08594   0.15783   0.00000  Uiso   1.00
C343   C     0.62795   0.26025   0.98601   0.00000  Uiso   1.00
C344   C     0.66871   0.31985   0.99722   0.00000  Uiso   1.00
C345   C     0.73309   0.33156   0.95077   0.00000  Uiso   1.00
H346   H     0.61547   0.11612   0.88470   0.00000  Uiso   1.00
H347   H     0.48194   0.12435   0.81473   0.00000  Uiso   1.00
H348   H     0.63825   0.02126   0.98295   0.00000  Uiso   1.00
H349   H     0.73259   0.18977   0.84089   0.00000  Uiso   1.00
H350   H     0.32386   0.15387   0.76170   0.00000  Uiso   1.00
H351   H     0.65347   0.93649   0.11641   0.00000  Uiso   1.00
H352   H     0.85243   0.29184   0.81685   0.00000  Uiso   1.00
H353   H     0.53822   0.27336   0.07370   0.00000  Uiso   1.00
H354   H     0.40045   0.29023   0.01410   0.00000  Uiso   1.00
H355   H     0.55676   0.18713   0.18232   0.00000  Uiso   1.00
H356   H     0.65110   0.35565   0.04026   0.00000  Uiso   1.00
H357   H     0.25772   0.28850   0.92351   0.00000  Uiso   1.00
H358   H     0.58733   0.07112   0.27823   0.00000  Uiso   1.00
H359   H     0.78628   0.42647   0.97867   0.00000  Uiso   1.00
O360   O     0.20155   0.22943   0.80000   0.00000  Uiso   1.00
O361   O     0.63400   0.94424   0.26537   0.00000  Uiso   1.00
O362   O     0.89501   0.41044   0.87235   0.00000  Uiso   1.00
N363   N     0.32721   0.18325   0.80795   0.00000  Uiso   1.00
N364   N     0.63536   0.98001   0.13959   0.00000  Uiso   1.00
N365   N     0.82138   0.31222   0.85954   0.00000  Uiso   1.00
N366   N     0.29162   0.25570   0.89502   0.00000  Uiso   1.00
N367   N     0.59977   0.05246   0.22666   0.00000  Uiso   1.00
N368   N     0.78579   0.38467   0.94661   0.00000  Uiso   1.00
