data_job_05989
_audit_creation_date              2018-12-19
_audit_creation_method            'Materials Studio'
_symmetry_space_group_name_H-M    'P1'
_symmetry_Int_Tables_number       1
_symmetry_cell_setting            triclinic
loop_
_symmetry_equiv_pos_as_xyz
  x,y,z
_cell_length_a                    15.9258
_cell_length_b                    15.6887
_cell_length_c                    15.2112
_cell_angle_alpha                 91.9035
_cell_angle_beta                  92.0227
_cell_angle_gamma                 91.4925
loop_
_atom_site_label
_atom_site_type_symbol
_atom_site_fract_x
_atom_site_fract_y
_atom_site_fract_z
_atom_site_U_iso_or_equiv
_atom_site_adp_type
_atom_site_occupancy
C1     C     0.12224   0.70055   0.08028   0.00000  Uiso   1.00
C2     C     0.05225   0.65589   0.12863   0.00000  Uiso   1.00
C3     C     0.96933   0.64479   0.09837   0.00000  Uiso   1.00
C4     C     0.91492   0.60225   0.15237   0.00000  Uiso   1.00
C5     C     0.80205   0.53755   0.21509   0.00000  Uiso   1.00
C6     C     0.15754   0.77144   0.14312   0.00000  Uiso   1.00
C7     C     0.16316   0.85749   0.12504   0.00000  Uiso   1.00
C8     C     0.19739   0.91220   0.19124   0.00000  Uiso   1.00
C9     C     0.24804   0.02688   0.27644   0.00000  Uiso   1.00
C10    C     0.19175   0.63609   0.07169   0.00000  Uiso   1.00
C11    C     0.22614   0.60835   0.99356   0.00000  Uiso   1.00
C12    C     0.28919   0.54912   0.99963   0.00000  Uiso   1.00
C13    C     0.39294   0.45365   0.97392   0.00000  Uiso   1.00
C14    C     0.17307   0.64473   0.22999   0.00000  Uiso   1.00
C15    C     0.07986   0.62558   0.20994   0.00000  Uiso   1.00
C16    C     0.02557   0.58303   0.26401   0.00000  Uiso   1.00
C17    C     0.94258   0.57187   0.23383   0.00000  Uiso   1.00
C18    C     0.18515   0.74112   0.22444   0.00000  Uiso   1.00
C19    C     0.21939   0.79572   0.29068   0.00000  Uiso   1.00
C20    C     0.22505   0.88183   0.27271   0.00000  Uiso   1.00
C21    C     0.21936   0.60576   0.15301   0.00000  Uiso   1.00
C22    C     0.28237   0.54658   0.15920   0.00000  Uiso   1.00
C23    C     0.31685   0.51875   0.08109   0.00000  Uiso   1.00
H24    H     0.10074   0.72417   0.01697   0.00000  Uiso   1.00
H25    H     0.94799   0.66827   0.03544   0.00000  Uiso   1.00
H26    H     0.14179   0.88093   0.06210   0.00000  Uiso   1.00
H27    H     0.20476   0.63182   0.93064   0.00000  Uiso   1.00
H28    H     0.79080   0.59296   0.09178   0.00000  Uiso   1.00
H29    H     0.19947   0.04136   0.14800   0.00000  Uiso   1.00
H30    H     0.33226   0.51607   0.87079   0.00000  Uiso   1.00
H31    H     0.19457   0.62113   0.29330   0.00000  Uiso   1.00
H32    H     0.04695   0.55958   0.32693   0.00000  Uiso   1.00
H33    H     0.24076   0.77224   0.35360   0.00000  Uiso   1.00
H34    H     0.30372   0.52313   0.22214   0.00000  Uiso   1.00
H35    H     0.87112   0.50475   0.32837   0.00000  Uiso   1.00
H36    H     0.27980   0.95314   0.38458   0.00000  Uiso   1.00
H37    H     0.41258   0.42785   0.10738   0.00000  Uiso   1.00
O38    O     0.73216   0.51025   0.22723   0.00000  Uiso   1.00
O39    O     0.26833   0.09852   0.30097   0.00000  Uiso   1.00
O40    O     0.44254   0.40936   0.93728   0.00000  Uiso   1.00
N41    N     0.82996   0.58063   0.14284   0.00000  Uiso   1.00
N42    N     0.21203   0.99986   0.19540   0.00000  Uiso   1.00
N43    N     0.33619   0.50877   0.93624   0.00000  Uiso   1.00
N44    N     0.87319   0.53316   0.27015   0.00000  Uiso   1.00
N45    N     0.25526   0.95239   0.32271   0.00000  Uiso   1.00
N46    N     0.37941   0.46130   0.06355   0.00000  Uiso   1.00
C47    C     0.08442   0.12250   0.70050   0.00000  Uiso   1.00
C48    C     0.13127   0.05130   0.65437   0.00000  Uiso   1.00
C49    C     0.10303   0.96715   0.64238   0.00000  Uiso   1.00
C50    C     0.15516   0.91175   0.59853   0.00000  Uiso   1.00
C51    C     0.21613   0.79694   0.53161   0.00000  Uiso   1.00
C52    C     0.14396   0.15843   0.77410   0.00000  Uiso   1.00
C53    C     0.12638   0.16435   0.86277   0.00000  Uiso   1.00
C54    C     0.18919   0.19915   0.91971   0.00000  Uiso   1.00
C55    C     0.26983   0.25071   0.03867   0.00000  Uiso   1.00
C56    C     0.07588   0.19292   0.63429   0.00000  Uiso   1.00
C57    C     0.00107   0.22787   0.60543   0.00000  Uiso   1.00
C58    C     0.00657   0.29172   0.54467   0.00000  Uiso   1.00
C59    C     0.98152   0.39683   0.44655   0.00000  Uiso   1.00
C60    C     0.22721   0.17377   0.64395   0.00000  Uiso   1.00
C61    C     0.20883   0.07915   0.62365   0.00000  Uiso   1.00
C62    C     0.26102   0.02387   0.57981   0.00000  Uiso   1.00
C63    C     0.23286   0.93965   0.56775   0.00000  Uiso   1.00
C64    C     0.22152   0.18627   0.74339   0.00000  Uiso   1.00
C65    C     0.28437   0.22107   0.80021   0.00000  Uiso   1.00
C66    C     0.26689   0.22705   0.88894   0.00000  Uiso   1.00
C67    C     0.15345   0.22077   0.60357   0.00000  Uiso   1.00
C68    C     0.15906   0.28458   0.54286   0.00000  Uiso   1.00
C69    C     0.08427   0.31961   0.51390   0.00000  Uiso   1.00
H70    H     0.02403   0.10083   0.72442   0.00000  Uiso   1.00
H71    H     0.04301   0.94562   0.66616   0.00000  Uiso   1.00
H72    H     0.06635   0.14280   0.88652   0.00000  Uiso   1.00
H73    H     0.94106   0.20630   0.62921   0.00000  Uiso   1.00
H74    H     0.09826   0.78582   0.58806   0.00000  Uiso   1.00
H75    H     0.14746   0.20162   0.05269   0.00000  Uiso   1.00
H76    H     0.88327   0.33551   0.51011   0.00000  Uiso   1.00
H77    H     0.28760   0.19546   0.62004   0.00000  Uiso   1.00
H78    H     0.32104   0.04544   0.55605   0.00000  Uiso   1.00
H79    H     0.34438   0.24262   0.77641   0.00000  Uiso   1.00
H80    H     0.21909   0.30612   0.51910   0.00000  Uiso   1.00
H81    H     0.32392   0.86683   0.49869   0.00000  Uiso   1.00
H82    H     0.37313   0.28264   0.96333   0.00000  Uiso   1.00
H83    H     0.10894   0.41653   0.42074   0.00000  Uiso   1.00
O84    O     0.22834   0.72593   0.50319   0.00000  Uiso   1.00
O85    O     0.29289   0.27145   0.11277   0.00000  Uiso   1.00
O86    O     0.94628   0.44711   0.40091   0.00000  Uiso   1.00
N87    N     0.14677   0.82548   0.57579   0.00000  Uiso   1.00
N88    N     0.19278   0.21421   0.01020   0.00000  Uiso   1.00
N89    N     0.94579   0.33941   0.50294   0.00000  Uiso   1.00
N90    N     0.26820   0.86907   0.52770   0.00000  Uiso   1.00
N91    N     0.31421   0.25780   0.96211   0.00000  Uiso   1.00
N92    N     0.06721   0.38300   0.45485   0.00000  Uiso   1.00
C93    C     0.70047   0.08301   0.12258   0.00000  Uiso   1.00
C94    C     0.65626   0.13046   0.04912   0.00000  Uiso   1.00
C95    C     0.64528   0.10162   0.96213   0.00000  Uiso   1.00
C96    C     0.60317   0.15446   0.90501   0.00000  Uiso   1.00
C97    C     0.53914   0.21616   0.78654   0.00000  Uiso   1.00
C98    C     0.77021   0.14344   0.16029   0.00000  Uiso   1.00
C99    C     0.85503   0.12549   0.16678   0.00000  Uiso   1.00
C100   C     0.90884   0.18926   0.20326   0.00000  Uiso   1.00
C101   C     0.02170   0.27108   0.25744   0.00000  Uiso   1.00
C102   C     0.63707   0.07460   0.19481   0.00000  Uiso   1.00
C103   C     0.60996   0.99879   0.23036   0.00000  Uiso   1.00
C104   C     0.55168   0.00460   0.29591   0.00000  Uiso   1.00
C105   C     0.45782   0.97955   0.40370   0.00000  Uiso   1.00
C106   C     0.64520   0.22815   0.17582   0.00000  Uiso   1.00
C107   C     0.62625   0.20930   0.07804   0.00000  Uiso   1.00
C108   C     0.58414   0.26219   0.02104   0.00000  Uiso   1.00
C109   C     0.57310   0.23343   0.93398   0.00000  Uiso   1.00
C110   C     0.74019   0.22227   0.18921   0.00000  Uiso   1.00
C111   C     0.79389   0.28607   0.22569   0.00000  Uiso   1.00
C112   C     0.87877   0.26823   0.23223   0.00000  Uiso   1.00
C113   C     0.60704   0.15344   0.22373   0.00000  Uiso   1.00
C114   C     0.54881   0.15937   0.28926   0.00000  Uiso   1.00
C115   C     0.52161   0.08357   0.32489   0.00000  Uiso   1.00
H116   H     0.72384   0.02164   0.10007   0.00000  Uiso   1.00
H117   H     0.66853   0.04061   0.93978   0.00000  Uiso   1.00
H118   H     0.87824   0.06448   0.14441   0.00000  Uiso   1.00
H119   H     0.63320   0.93779   0.20796   0.00000  Uiso   1.00
H120   H     0.59399   0.09641   0.77481   0.00000  Uiso   1.00
H121   H     0.03618   0.14674   0.20631   0.00000  Uiso   1.00
H122   H     0.51946   0.87960   0.34033   0.00000  Uiso   1.00
H123   H     0.62183   0.28953   0.19834   0.00000  Uiso   1.00
H124   H     0.56092   0.32320   0.04343   0.00000  Uiso   1.00
H125   H     0.77063   0.34707   0.24806   0.00000  Uiso   1.00
H126   H     0.52559   0.22038   0.31162   0.00000  Uiso   1.00
H127   H     0.50665   0.32578   0.85894   0.00000  Uiso   1.00
H128   H     0.94884   0.37610   0.29044   0.00000  Uiso   1.00
H129   H     0.43212   0.10896   0.42446   0.00000  Uiso   1.00
O130   O     0.51212   0.22842   0.71320   0.00000  Uiso   1.00
O131   O     0.09225   0.29444   0.27932   0.00000  Uiso   1.00
O132   O     0.41433   0.94395   0.45515   0.00000  Uiso   1.00
N133   N     0.58178   0.14577   0.81587   0.00000  Uiso   1.00
N134   N     0.99520   0.19282   0.21929   0.00000  Uiso   1.00
N135   N     0.51213   0.94307   0.34460   0.00000  Uiso   1.00
N136   N     0.53479   0.26918   0.86115   0.00000  Uiso   1.00
N137   N     0.94821   0.31624   0.26456   0.00000  Uiso   1.00
N138   N     0.46514   0.06648   0.38987   0.00000  Uiso   1.00
C139   C     0.87776   0.29945   0.91972   0.00000  Uiso   1.00
C140   C     0.94775   0.34411   0.87137   0.00000  Uiso   1.00
C141   C     0.03067   0.35521   0.90163   0.00000  Uiso   1.00
C142   C     0.08508   0.39775   0.84763   0.00000  Uiso   1.00
C143   C     0.19795   0.46245   0.78491   0.00000  Uiso   1.00
C144   C     0.84246   0.22856   0.85688   0.00000  Uiso   1.00
C145   C     0.83684   0.14251   0.87496   0.00000  Uiso   1.00
C146   C     0.80261   0.08780   0.80876   0.00000  Uiso   1.00
C147   C     0.75196   0.97312   0.72356   0.00000  Uiso   1.00
C148   C     0.80825   0.36391   0.92831   0.00000  Uiso   1.00
C149   C     0.77386   0.39165   0.00644   0.00000  Uiso   1.00
C150   C     0.71081   0.45088   0.00037   0.00000  Uiso   1.00
C151   C     0.60706   0.54635   0.02608   0.00000  Uiso   1.00
C152   C     0.82693   0.35527   0.77001   0.00000  Uiso   1.00
C153   C     0.92014   0.37442   0.79006   0.00000  Uiso   1.00
C154   C     0.97443   0.41697   0.73599   0.00000  Uiso   1.00
C155   C     0.05742   0.42813   0.76617   0.00000  Uiso   1.00
C156   C     0.81485   0.25888   0.77556   0.00000  Uiso   1.00
C157   C     0.78061   0.20428   0.70932   0.00000  Uiso   1.00
C158   C     0.77495   0.11817   0.72729   0.00000  Uiso   1.00
C159   C     0.78064   0.39424   0.84699   0.00000  Uiso   1.00
C160   C     0.71763   0.45342   0.84080   0.00000  Uiso   1.00
C161   C     0.68315   0.48125   0.91891   0.00000  Uiso   1.00
H162   H     0.89926   0.27583   0.98303   0.00000  Uiso   1.00
H163   H     0.05201   0.33173   0.96456   0.00000  Uiso   1.00
H164   H     0.85821   0.11907   0.93790   0.00000  Uiso   1.00
H165   H     0.79524   0.36818   0.06936   0.00000  Uiso   1.00
H166   H     0.20920   0.40704   0.90822   0.00000  Uiso   1.00
H167   H     0.80053   0.95864   0.85200   0.00000  Uiso   1.00
H168   H     0.66775   0.48393   0.12921   0.00000  Uiso   1.00
H169   H     0.80543   0.37887   0.70670   0.00000  Uiso   1.00
H170   H     0.95305   0.44042   0.67307   0.00000  Uiso   1.00
H171   H     0.75924   0.22776   0.64640   0.00000  Uiso   1.00
H172   H     0.69628   0.47687   0.77786   0.00000  Uiso   1.00
H173   H     0.12888   0.49525   0.67163   0.00000  Uiso   1.00
H174   H     0.72020   0.04686   0.61542   0.00000  Uiso   1.00
H175   H     0.58742   0.57215   0.89262   0.00000  Uiso   1.00
O176   O     0.26784   0.48975   0.77277   0.00000  Uiso   1.00
O177   O     0.73167   0.90148   0.69903   0.00000  Uiso   1.00
O178   O     0.55746   0.59064   0.06272   0.00000  Uiso   1.00
N179   N     0.17004   0.41937   0.85716   0.00000  Uiso   1.00
N180   N     0.78797   0.00014   0.80460   0.00000  Uiso   1.00
N181   N     0.66381   0.49123   0.06376   0.00000  Uiso   1.00
N182   N     0.12681   0.46684   0.72985   0.00000  Uiso   1.00
N183   N     0.74474   0.04761   0.67729   0.00000  Uiso   1.00
N184   N     0.62059   0.53870   0.93645   0.00000  Uiso   1.00
C185   C     0.91558   0.87750   0.29950   0.00000  Uiso   1.00
C186   C     0.86873   0.94870   0.34563   0.00000  Uiso   1.00
C187   C     0.89697   0.03285   0.35762   0.00000  Uiso   1.00
C188   C     0.84484   0.08825   0.40147   0.00000  Uiso   1.00
C189   C     0.78387   0.20306   0.46839   0.00000  Uiso   1.00
C190   C     0.85604   0.84157   0.22590   0.00000  Uiso   1.00
C191   C     0.87362   0.83565   0.13723   0.00000  Uiso   1.00
C192   C     0.81081   0.80085   0.08029   0.00000  Uiso   1.00
C193   C     0.73017   0.74929   0.96133   0.00000  Uiso   1.00
C194   C     0.92412   0.80708   0.36571   0.00000  Uiso   1.00
C195   C     0.99893   0.77213   0.39457   0.00000  Uiso   1.00
C196   C     0.99343   0.70828   0.45533   0.00000  Uiso   1.00
C197   C     0.01848   0.60317   0.55345   0.00000  Uiso   1.00
C198   C     0.77279   0.82623   0.35605   0.00000  Uiso   1.00
C199   C     0.79117   0.92085   0.37635   0.00000  Uiso   1.00
C200   C     0.73898   0.97613   0.42019   0.00000  Uiso   1.00
C201   C     0.76714   0.06035   0.43225   0.00000  Uiso   1.00
C202   C     0.77848   0.81373   0.25661   0.00000  Uiso   1.00
C203   C     0.71563   0.77893   0.19979   0.00000  Uiso   1.00
C204   C     0.73311   0.77295   0.11106   0.00000  Uiso   1.00
C205   C     0.84655   0.77923   0.39643   0.00000  Uiso   1.00
C206   C     0.84094   0.71542   0.45714   0.00000  Uiso   1.00
C207   C     0.91573   0.68039   0.48610   0.00000  Uiso   1.00
H208   H     0.97597   0.89917   0.27558   0.00000  Uiso   1.00
H209   H     0.95700   0.05438   0.33384   0.00000  Uiso   1.00
H210   H     0.93365   0.85720   0.11348   0.00000  Uiso   1.00
H211   H     0.05894   0.79370   0.37079   0.00000  Uiso   1.00
H212   H     0.90174   0.21418   0.41194   0.00000  Uiso   1.00
H213   H     0.85254   0.79838   0.94731   0.00000  Uiso   1.00
H214   H     0.11673   0.66449   0.48989   0.00000  Uiso   1.00
H215   H     0.71240   0.80454   0.37996   0.00000  Uiso   1.00
H216   H     0.67896   0.95456   0.44395   0.00000  Uiso   1.00
H217   H     0.65562   0.75738   0.22359   0.00000  Uiso   1.00
H218   H     0.78091   0.69388   0.48090   0.00000  Uiso   1.00
H219   H     0.67608   0.13317   0.50131   0.00000  Uiso   1.00
H220   H     0.62687   0.71736   0.03667   0.00000  Uiso   1.00
H221   H     0.89106   0.58347   0.57926   0.00000  Uiso   1.00
O222   O     0.77166   0.27407   0.49681   0.00000  Uiso   1.00
O223   O     0.70711   0.72855   0.88723   0.00000  Uiso   1.00
O224   O     0.05372   0.55289   0.59909   0.00000  Uiso   1.00
N225   N     0.85323   0.17452   0.42421   0.00000  Uiso   1.00
N226   N     0.80722   0.78579   0.98980   0.00000  Uiso   1.00
N227   N     0.05421   0.66059   0.49706   0.00000  Uiso   1.00
N228   N     0.73180   0.13093   0.47230   0.00000  Uiso   1.00
N229   N     0.68579   0.74220   0.03789   0.00000  Uiso   1.00
N230   N     0.93279   0.61700   0.54515   0.00000  Uiso   1.00
C231   C     0.29953   0.91699   0.87742   0.00000  Uiso   1.00
C232   C     0.34374   0.86954   0.95088   0.00000  Uiso   1.00
C233   C     0.35472   0.89838   0.03787   0.00000  Uiso   1.00
C234   C     0.39683   0.84554   0.09499   0.00000  Uiso   1.00
C235   C     0.46086   0.78384   0.21346   0.00000  Uiso   1.00
C236   C     0.22979   0.85656   0.83971   0.00000  Uiso   1.00
C237   C     0.14497   0.87451   0.83322   0.00000  Uiso   1.00
C238   C     0.09116   0.81074   0.79674   0.00000  Uiso   1.00
C239   C     0.97830   0.72892   0.74256   0.00000  Uiso   1.00
C240   C     0.36293   0.92540   0.80519   0.00000  Uiso   1.00
C241   C     0.39004   0.00121   0.76964   0.00000  Uiso   1.00
C242   C     0.44832   0.99540   0.70409   0.00000  Uiso   1.00
C243   C     0.54218   0.02045   0.59630   0.00000  Uiso   1.00
C244   C     0.35480   0.77185   0.82418   0.00000  Uiso   1.00
C245   C     0.37375   0.79070   0.92196   0.00000  Uiso   1.00
C246   C     0.41586   0.73781   0.97896   0.00000  Uiso   1.00
C247   C     0.42691   0.76657   0.06602   0.00000  Uiso   1.00
C248   C     0.25981   0.77773   0.81079   0.00000  Uiso   1.00
C249   C     0.20611   0.71393   0.77431   0.00000  Uiso   1.00
C250   C     0.12123   0.73177   0.76777   0.00000  Uiso   1.00
C251   C     0.39296   0.84656   0.77627   0.00000  Uiso   1.00
C252   C     0.45119   0.84063   0.71074   0.00000  Uiso   1.00
C253   C     0.47839   0.91643   0.67511   0.00000  Uiso   1.00
H254   H     0.27616   0.97836   0.89993   0.00000  Uiso   1.00
H255   H     0.33147   0.95939   0.06022   0.00000  Uiso   1.00
H256   H     0.12176   0.93552   0.85559   0.00000  Uiso   1.00
H257   H     0.36680   0.06221   0.79204   0.00000  Uiso   1.00
H258   H     0.40601   0.90359   0.22519   0.00000  Uiso   1.00
H259   H     0.96382   0.85326   0.79369   0.00000  Uiso   1.00
H260   H     0.48054   0.12040   0.65967   0.00000  Uiso   1.00
H261   H     0.37817   0.71047   0.80166   0.00000  Uiso   1.00
H262   H     0.43909   0.67680   0.95657   0.00000  Uiso   1.00
H263   H     0.22937   0.65293   0.75194   0.00000  Uiso   1.00
H264   H     0.47441   0.77962   0.68838   0.00000  Uiso   1.00
H265   H     0.49335   0.67422   0.14106   0.00000  Uiso   1.00
H266   H     0.05116   0.62390   0.70956   0.00000  Uiso   1.00
H267   H     0.56788   0.89104   0.57554   0.00000  Uiso   1.00
O268   O     0.48788   0.77158   0.28680   0.00000  Uiso   1.00
O269   O     0.90775   0.70556   0.72068   0.00000  Uiso   1.00
O270   O     0.58567   0.05605   0.54485   0.00000  Uiso   1.00
N271   N     0.41822   0.85423   0.18413   0.00000  Uiso   1.00
N272   N     0.00480   0.80718   0.78071   0.00000  Uiso   1.00
N273   N     0.48787   0.05693   0.65540   0.00000  Uiso   1.00
N274   N     0.46522   0.73082   0.13885   0.00000  Uiso   1.00
N275   N     0.05179   0.68376   0.73545   0.00000  Uiso   1.00
N276   N     0.53486   0.93352   0.61013   0.00000  Uiso   1.00
