data_job_03329
_audit_creation_date              2018-12-19
_audit_creation_method            'Materials Studio'
_symmetry_space_group_name_H-M    'P1'
_symmetry_Int_Tables_number       1
_symmetry_cell_setting            triclinic
loop_
_symmetry_equiv_pos_as_xyz
  x,y,z
_cell_length_a                    17.2807
_cell_length_b                    17.2807
_cell_length_c                    27.3796
_cell_angle_alpha                 90.0000
_cell_angle_beta                  90.0000
_cell_angle_gamma                 90.0000
loop_
_atom_site_label
_atom_site_type_symbol
_atom_site_fract_x
_atom_site_fract_y
_atom_site_fract_z
_atom_site_U_iso_or_equiv
_atom_site_adp_type
_atom_site_occupancy
C1     C     0.86735   0.06344   0.62322   0.00000  Uiso   1.00
C2     C     0.87361   0.14014   0.65047   0.00000  Uiso   1.00
C3     C     0.94096   0.17133   0.66984   0.00000  Uiso   1.00
C4     C     0.93459   0.24214   0.69346   0.00000  Uiso   1.00
C5     C     0.95514   0.35541   0.73518   0.00000  Uiso   1.00
C6     C     0.80699   0.01590   0.65061   0.00000  Uiso   1.00
C7     C     0.81832   0.94261   0.67007   0.00000  Uiso   1.00
C8     C     0.75587   0.90882   0.69380   0.00000  Uiso   1.00
C9     C     0.67297   0.82917   0.73570   0.00000  Uiso   1.00
C10    C     0.83162   0.08246   0.57373   0.00000  Uiso   1.00
C11    C     0.86365   0.06513   0.52855   0.00000  Uiso   1.00
C12    C     0.82192   0.08737   0.48755   0.00000  Uiso   1.00
C13    C     0.77727   0.11107   0.41008   0.00000  Uiso   1.00
C14    C     0.73628   0.13374   0.63073   0.00000  Uiso   1.00
C15    C     0.80242   0.17832   0.65456   0.00000  Uiso   1.00
C16    C     0.79595   0.24910   0.67816   0.00000  Uiso   1.00
C17    C     0.86327   0.28039   0.69755   0.00000  Uiso   1.00
C18    C     0.73580   0.05407   0.65469   0.00000  Uiso   1.00
C19    C     0.67331   0.02038   0.67839   0.00000  Uiso   1.00
C20    C     0.68455   0.94707   0.69789   0.00000  Uiso   1.00
C21    C     0.76043   0.12064   0.57781   0.00000  Uiso   1.00
C22    C     0.71864   0.14290   0.53687   0.00000  Uiso   1.00
C23    C     0.75060   0.12561   0.49164   0.00000  Uiso   1.00
H24    H     0.92277   0.03372   0.62004   0.00000  Uiso   1.00
H25    H     0.99604   0.14176   0.66667   0.00000  Uiso   1.00
H26    H     0.87342   0.91308   0.66690   0.00000  Uiso   1.00
H27    H     0.91874   0.03558   0.52540   0.00000  Uiso   1.00
H28    H     0.04587   0.27838   0.72019   0.00000  Uiso   1.00
H29    H     0.78731   0.79617   0.72066   0.00000  Uiso   1.00
H30    H     0.88288   0.05449   0.42228   0.00000  Uiso   1.00
H31    H     0.68085   0.16346   0.63392   0.00000  Uiso   1.00
H32    H     0.74085   0.27863   0.68131   0.00000  Uiso   1.00
H33    H     0.61823   0.04995   0.68154   0.00000  Uiso   1.00
H34    H     0.66355   0.17245   0.54004   0.00000  Uiso   1.00
H35    H     0.83875   0.38946   0.73208   0.00000  Uiso   1.00
H36    H     0.58019   0.90726   0.73255   0.00000  Uiso   1.00
H37    H     0.67576   0.16558   0.43417   0.00000  Uiso   1.00
O38    O     0.98614   0.40733   0.75708   0.00000  Uiso   1.00
O39    O     0.64691   0.77469   0.75768   0.00000  Uiso   1.00
O40    O     0.77231   0.11360   0.36622   0.00000  Uiso   1.00
N41    N     0.98889   0.28872   0.71648   0.00000  Uiso   1.00
N42    N     0.74716   0.83789   0.71692   0.00000  Uiso   1.00
N43    N     0.83650   0.07938   0.43796   0.00000  Uiso   1.00
N44    N     0.87744   0.34850   0.72287   0.00000  Uiso   1.00
N45    N     0.63571   0.89767   0.72332   0.00000  Uiso   1.00
N46    N     0.72505   0.13916   0.44436   0.00000  Uiso   1.00
C47    C     0.13265   0.93656   0.62322   0.00000  Uiso   1.00
C48    C     0.12639   0.85986   0.65047   0.00000  Uiso   1.00
C49    C     0.05904   0.82867   0.66984   0.00000  Uiso   1.00
C50    C     0.06541   0.75786   0.69346   0.00000  Uiso   1.00
C51    C     0.04486   0.64459   0.73518   0.00000  Uiso   1.00
C52    C     0.19301   0.98410   0.65061   0.00000  Uiso   1.00
C53    C     0.18168   0.05739   0.67007   0.00000  Uiso   1.00
C54    C     0.24413   0.09118   0.69380   0.00000  Uiso   1.00
C55    C     0.32703   0.17083   0.73570   0.00000  Uiso   1.00
C56    C     0.16838   0.91754   0.57373   0.00000  Uiso   1.00
C57    C     0.13635   0.93487   0.52855   0.00000  Uiso   1.00
C58    C     0.17808   0.91263   0.48755   0.00000  Uiso   1.00
C59    C     0.22273   0.88893   0.41008   0.00000  Uiso   1.00
C60    C     0.26372   0.86626   0.63073   0.00000  Uiso   1.00
C61    C     0.19758   0.82168   0.65456   0.00000  Uiso   1.00
C62    C     0.20405   0.75090   0.67816   0.00000  Uiso   1.00
C63    C     0.13673   0.71961   0.69755   0.00000  Uiso   1.00
C64    C     0.26420   0.94593   0.65469   0.00000  Uiso   1.00
C65    C     0.32669   0.97962   0.67839   0.00000  Uiso   1.00
C66    C     0.31545   0.05293   0.69789   0.00000  Uiso   1.00
C67    C     0.23957   0.87936   0.57781   0.00000  Uiso   1.00
C68    C     0.28136   0.85710   0.53687   0.00000  Uiso   1.00
C69    C     0.24940   0.87439   0.49164   0.00000  Uiso   1.00
H70    H     0.07723   0.96628   0.62004   0.00000  Uiso   1.00
H71    H     0.00396   0.85824   0.66667   0.00000  Uiso   1.00
H72    H     0.12658   0.08692   0.66690   0.00000  Uiso   1.00
H73    H     0.08126   0.96442   0.52540   0.00000  Uiso   1.00
H74    H     0.95413   0.72162   0.72019   0.00000  Uiso   1.00
H75    H     0.21269   0.20383   0.72066   0.00000  Uiso   1.00
H76    H     0.11712   0.94551   0.42228   0.00000  Uiso   1.00
H77    H     0.31915   0.83654   0.63392   0.00000  Uiso   1.00
H78    H     0.25915   0.72137   0.68131   0.00000  Uiso   1.00
H79    H     0.38177   0.95005   0.68154   0.00000  Uiso   1.00
H80    H     0.33645   0.82755   0.54004   0.00000  Uiso   1.00
H81    H     0.16125   0.61054   0.73208   0.00000  Uiso   1.00
H82    H     0.41981   0.09274   0.73255   0.00000  Uiso   1.00
H83    H     0.32424   0.83442   0.43417   0.00000  Uiso   1.00
O84    O     0.01386   0.59267   0.75708   0.00000  Uiso   1.00
O85    O     0.35309   0.22531   0.75768   0.00000  Uiso   1.00
O86    O     0.22769   0.88640   0.36622   0.00000  Uiso   1.00
N87    N     0.01111   0.71128   0.71648   0.00000  Uiso   1.00
N88    N     0.25284   0.16211   0.71692   0.00000  Uiso   1.00
N89    N     0.16350   0.92062   0.43796   0.00000  Uiso   1.00
N90    N     0.12256   0.65150   0.72287   0.00000  Uiso   1.00
N91    N     0.36429   0.10233   0.72332   0.00000  Uiso   1.00
N92    N     0.27495   0.86084   0.44436   0.00000  Uiso   1.00
C93    C     0.43656   0.36735   0.12322   0.00000  Uiso   1.00
C94    C     0.35986   0.37361   0.15047   0.00000  Uiso   1.00
C95    C     0.32867   0.44096   0.16984   0.00000  Uiso   1.00
C96    C     0.25786   0.43459   0.19346   0.00000  Uiso   1.00
C97    C     0.14459   0.45514   0.23518   0.00000  Uiso   1.00
C98    C     0.48410   0.30699   0.15061   0.00000  Uiso   1.00
C99    C     0.55739   0.31832   0.17007   0.00000  Uiso   1.00
C100   C     0.59118   0.25587   0.19380   0.00000  Uiso   1.00
C101   C     0.67083   0.17297   0.23570   0.00000  Uiso   1.00
C102   C     0.41754   0.33162   0.07373   0.00000  Uiso   1.00
C103   C     0.43487   0.36365   0.02855   0.00000  Uiso   1.00
C104   C     0.41263   0.32192   0.98755   0.00000  Uiso   1.00
C105   C     0.38893   0.27727   0.91008   0.00000  Uiso   1.00
C106   C     0.36626   0.23628   0.13073   0.00000  Uiso   1.00
C107   C     0.32168   0.30242   0.15456   0.00000  Uiso   1.00
C108   C     0.25090   0.29595   0.17816   0.00000  Uiso   1.00
C109   C     0.21961   0.36327   0.19755   0.00000  Uiso   1.00
C110   C     0.44593   0.23580   0.15469   0.00000  Uiso   1.00
C111   C     0.47962   0.17331   0.17839   0.00000  Uiso   1.00
C112   C     0.55293   0.18455   0.19789   0.00000  Uiso   1.00
C113   C     0.37936   0.26043   0.07781   0.00000  Uiso   1.00
C114   C     0.35710   0.21864   0.03687   0.00000  Uiso   1.00
C115   C     0.37439   0.25060   0.99164   0.00000  Uiso   1.00
H116   H     0.46628   0.42277   0.12004   0.00000  Uiso   1.00
H117   H     0.35824   0.49604   0.16667   0.00000  Uiso   1.00
H118   H     0.58692   0.37342   0.16690   0.00000  Uiso   1.00
H119   H     0.46442   0.41874   0.02540   0.00000  Uiso   1.00
H120   H     0.22162   0.54587   0.22019   0.00000  Uiso   1.00
H121   H     0.70383   0.28731   0.22066   0.00000  Uiso   1.00
H122   H     0.44551   0.38288   0.92228   0.00000  Uiso   1.00
H123   H     0.33654   0.18085   0.13392   0.00000  Uiso   1.00
H124   H     0.22137   0.24085   0.18131   0.00000  Uiso   1.00
H125   H     0.45005   0.11823   0.18154   0.00000  Uiso   1.00
H126   H     0.32755   0.16355   0.04004   0.00000  Uiso   1.00
H127   H     0.11054   0.33875   0.23208   0.00000  Uiso   1.00
H128   H     0.59274   0.08019   0.23255   0.00000  Uiso   1.00
H129   H     0.33442   0.17576   0.93417   0.00000  Uiso   1.00
O130   O     0.09267   0.48614   0.25708   0.00000  Uiso   1.00
O131   O     0.72531   0.14691   0.25768   0.00000  Uiso   1.00
O132   O     0.38640   0.27231   0.86622   0.00000  Uiso   1.00
N133   N     0.21128   0.48889   0.21648   0.00000  Uiso   1.00
N134   N     0.66211   0.24716   0.21692   0.00000  Uiso   1.00
N135   N     0.42062   0.33650   0.93796   0.00000  Uiso   1.00
N136   N     0.15150   0.37744   0.22287   0.00000  Uiso   1.00
N137   N     0.60233   0.13571   0.22332   0.00000  Uiso   1.00
N138   N     0.36084   0.22505   0.94436   0.00000  Uiso   1.00
C139   C     0.56344   0.63265   0.12322   0.00000  Uiso   1.00
C140   C     0.64014   0.62639   0.15047   0.00000  Uiso   1.00
C141   C     0.67133   0.55904   0.16984   0.00000  Uiso   1.00
C142   C     0.74214   0.56541   0.19346   0.00000  Uiso   1.00
C143   C     0.85541   0.54486   0.23518   0.00000  Uiso   1.00
C144   C     0.51590   0.69301   0.15061   0.00000  Uiso   1.00
C145   C     0.44261   0.68168   0.17007   0.00000  Uiso   1.00
C146   C     0.40882   0.74413   0.19380   0.00000  Uiso   1.00
C147   C     0.32917   0.82703   0.23570   0.00000  Uiso   1.00
C148   C     0.58246   0.66838   0.07373   0.00000  Uiso   1.00
C149   C     0.56513   0.63635   0.02855   0.00000  Uiso   1.00
C150   C     0.58737   0.67808   0.98755   0.00000  Uiso   1.00
C151   C     0.61107   0.72273   0.91008   0.00000  Uiso   1.00
C152   C     0.63374   0.76372   0.13073   0.00000  Uiso   1.00
C153   C     0.67832   0.69758   0.15456   0.00000  Uiso   1.00
C154   C     0.74910   0.70405   0.17816   0.00000  Uiso   1.00
C155   C     0.78039   0.63673   0.19755   0.00000  Uiso   1.00
C156   C     0.55407   0.76420   0.15469   0.00000  Uiso   1.00
C157   C     0.52038   0.82669   0.17839   0.00000  Uiso   1.00
C158   C     0.44707   0.81545   0.19789   0.00000  Uiso   1.00
C159   C     0.62064   0.73957   0.07781   0.00000  Uiso   1.00
C160   C     0.64290   0.78136   0.03687   0.00000  Uiso   1.00
C161   C     0.62561   0.74940   0.99164   0.00000  Uiso   1.00
H162   H     0.53372   0.57723   0.12004   0.00000  Uiso   1.00
H163   H     0.64176   0.50396   0.16667   0.00000  Uiso   1.00
H164   H     0.41308   0.62658   0.16690   0.00000  Uiso   1.00
H165   H     0.53558   0.58126   0.02540   0.00000  Uiso   1.00
H166   H     0.77838   0.45413   0.22019   0.00000  Uiso   1.00
H167   H     0.29617   0.71269   0.22066   0.00000  Uiso   1.00
H168   H     0.55449   0.61712   0.92228   0.00000  Uiso   1.00
H169   H     0.66346   0.81915   0.13392   0.00000  Uiso   1.00
H170   H     0.77863   0.75915   0.18131   0.00000  Uiso   1.00
H171   H     0.54995   0.88177   0.18154   0.00000  Uiso   1.00
H172   H     0.67245   0.83645   0.04004   0.00000  Uiso   1.00
H173   H     0.88946   0.66125   0.23208   0.00000  Uiso   1.00
H174   H     0.40726   0.91981   0.23255   0.00000  Uiso   1.00
H175   H     0.66558   0.82424   0.93417   0.00000  Uiso   1.00
O176   O     0.90733   0.51386   0.25708   0.00000  Uiso   1.00
O177   O     0.27469   0.85309   0.25768   0.00000  Uiso   1.00
O178   O     0.61360   0.72769   0.86622   0.00000  Uiso   1.00
N179   N     0.78872   0.51111   0.21648   0.00000  Uiso   1.00
N180   N     0.33789   0.75284   0.21692   0.00000  Uiso   1.00
N181   N     0.57938   0.66350   0.93796   0.00000  Uiso   1.00
N182   N     0.84850   0.62256   0.22287   0.00000  Uiso   1.00
N183   N     0.39767   0.86429   0.22332   0.00000  Uiso   1.00
N184   N     0.63916   0.77495   0.94436   0.00000  Uiso   1.00
C185   C     0.63265   0.43656   0.87678   0.00000  Uiso   1.00
C186   C     0.62639   0.35986   0.84953   0.00000  Uiso   1.00
C187   C     0.55904   0.32867   0.83016   0.00000  Uiso   1.00
C188   C     0.56541   0.25786   0.80654   0.00000  Uiso   1.00
C189   C     0.54486   0.14459   0.76482   0.00000  Uiso   1.00
C190   C     0.69301   0.48410   0.84939   0.00000  Uiso   1.00
C191   C     0.68168   0.55739   0.82993   0.00000  Uiso   1.00
C192   C     0.74413   0.59118   0.80620   0.00000  Uiso   1.00
C193   C     0.82703   0.67083   0.76430   0.00000  Uiso   1.00
C194   C     0.66838   0.41754   0.92627   0.00000  Uiso   1.00
C195   C     0.63635   0.43487   0.97145   0.00000  Uiso   1.00
C196   C     0.67808   0.41263   0.01245   0.00000  Uiso   1.00
C197   C     0.72273   0.38893   0.08992   0.00000  Uiso   1.00
C198   C     0.76372   0.36626   0.86927   0.00000  Uiso   1.00
C199   C     0.69758   0.32168   0.84544   0.00000  Uiso   1.00
C200   C     0.70405   0.25090   0.82184   0.00000  Uiso   1.00
C201   C     0.63673   0.21961   0.80245   0.00000  Uiso   1.00
C202   C     0.76420   0.44593   0.84531   0.00000  Uiso   1.00
C203   C     0.82669   0.47962   0.82161   0.00000  Uiso   1.00
C204   C     0.81545   0.55293   0.80211   0.00000  Uiso   1.00
C205   C     0.73957   0.37936   0.92219   0.00000  Uiso   1.00
C206   C     0.78136   0.35710   0.96313   0.00000  Uiso   1.00
C207   C     0.74940   0.37439   0.00836   0.00000  Uiso   1.00
H208   H     0.57723   0.46628   0.87996   0.00000  Uiso   1.00
H209   H     0.50396   0.35824   0.83333   0.00000  Uiso   1.00
H210   H     0.62658   0.58692   0.83310   0.00000  Uiso   1.00
H211   H     0.58126   0.46442   0.97460   0.00000  Uiso   1.00
H212   H     0.45413   0.22162   0.77981   0.00000  Uiso   1.00
H213   H     0.71269   0.70383   0.77934   0.00000  Uiso   1.00
H214   H     0.61712   0.44551   0.07772   0.00000  Uiso   1.00
H215   H     0.81915   0.33654   0.86608   0.00000  Uiso   1.00
H216   H     0.75915   0.22137   0.81869   0.00000  Uiso   1.00
H217   H     0.88177   0.45005   0.81846   0.00000  Uiso   1.00
H218   H     0.83645   0.32755   0.95996   0.00000  Uiso   1.00
H219   H     0.66125   0.11054   0.76792   0.00000  Uiso   1.00
H220   H     0.91981   0.59274   0.76745   0.00000  Uiso   1.00
H221   H     0.82424   0.33442   0.06583   0.00000  Uiso   1.00
O222   O     0.51386   0.09267   0.74292   0.00000  Uiso   1.00
O223   O     0.85309   0.72531   0.74232   0.00000  Uiso   1.00
O224   O     0.72769   0.38640   0.13378   0.00000  Uiso   1.00
N225   N     0.51111   0.21128   0.78352   0.00000  Uiso   1.00
N226   N     0.75284   0.66211   0.78308   0.00000  Uiso   1.00
N227   N     0.66350   0.42062   0.06204   0.00000  Uiso   1.00
N228   N     0.62256   0.15150   0.77713   0.00000  Uiso   1.00
N229   N     0.86429   0.60233   0.77668   0.00000  Uiso   1.00
N230   N     0.77495   0.36084   0.05564   0.00000  Uiso   1.00
C231   C     0.36735   0.56344   0.87678   0.00000  Uiso   1.00
C232   C     0.37361   0.64014   0.84953   0.00000  Uiso   1.00
C233   C     0.44096   0.67133   0.83016   0.00000  Uiso   1.00
C234   C     0.43459   0.74214   0.80654   0.00000  Uiso   1.00
C235   C     0.45514   0.85541   0.76482   0.00000  Uiso   1.00
C236   C     0.30699   0.51590   0.84939   0.00000  Uiso   1.00
C237   C     0.31832   0.44261   0.82993   0.00000  Uiso   1.00
C238   C     0.25587   0.40882   0.80620   0.00000  Uiso   1.00
C239   C     0.17297   0.32917   0.76430   0.00000  Uiso   1.00
C240   C     0.33162   0.58246   0.92627   0.00000  Uiso   1.00
C241   C     0.36365   0.56513   0.97145   0.00000  Uiso   1.00
C242   C     0.32192   0.58737   0.01245   0.00000  Uiso   1.00
C243   C     0.27727   0.61107   0.08992   0.00000  Uiso   1.00
C244   C     0.23628   0.63374   0.86927   0.00000  Uiso   1.00
C245   C     0.30242   0.67832   0.84544   0.00000  Uiso   1.00
C246   C     0.29595   0.74910   0.82184   0.00000  Uiso   1.00
C247   C     0.36327   0.78039   0.80245   0.00000  Uiso   1.00
C248   C     0.23580   0.55407   0.84531   0.00000  Uiso   1.00
C249   C     0.17331   0.52038   0.82161   0.00000  Uiso   1.00
C250   C     0.18455   0.44707   0.80211   0.00000  Uiso   1.00
C251   C     0.26043   0.62064   0.92219   0.00000  Uiso   1.00
C252   C     0.21864   0.64290   0.96313   0.00000  Uiso   1.00
C253   C     0.25060   0.62561   0.00836   0.00000  Uiso   1.00
H254   H     0.42277   0.53372   0.87996   0.00000  Uiso   1.00
H255   H     0.49604   0.64176   0.83333   0.00000  Uiso   1.00
H256   H     0.37342   0.41308   0.83310   0.00000  Uiso   1.00
H257   H     0.41874   0.53558   0.97460   0.00000  Uiso   1.00
H258   H     0.54587   0.77838   0.77981   0.00000  Uiso   1.00
H259   H     0.28731   0.29617   0.77934   0.00000  Uiso   1.00
H260   H     0.38288   0.55449   0.07772   0.00000  Uiso   1.00
H261   H     0.18085   0.66346   0.86608   0.00000  Uiso   1.00
H262   H     0.24085   0.77863   0.81869   0.00000  Uiso   1.00
H263   H     0.11823   0.54995   0.81846   0.00000  Uiso   1.00
H264   H     0.16355   0.67245   0.95996   0.00000  Uiso   1.00
H265   H     0.33875   0.88946   0.76792   0.00000  Uiso   1.00
H266   H     0.08019   0.40726   0.76745   0.00000  Uiso   1.00
H267   H     0.17576   0.66558   0.06583   0.00000  Uiso   1.00
O268   O     0.48614   0.90733   0.74292   0.00000  Uiso   1.00
O269   O     0.14691   0.27469   0.74232   0.00000  Uiso   1.00
O270   O     0.27231   0.61360   0.13378   0.00000  Uiso   1.00
N271   N     0.48889   0.78872   0.78352   0.00000  Uiso   1.00
N272   N     0.24716   0.33789   0.78308   0.00000  Uiso   1.00
N273   N     0.33650   0.57938   0.06204   0.00000  Uiso   1.00
N274   N     0.37744   0.84850   0.77713   0.00000  Uiso   1.00
N275   N     0.13571   0.39767   0.77668   0.00000  Uiso   1.00
N276   N     0.22505   0.63916   0.05564   0.00000  Uiso   1.00
C277   C     0.06344   0.13265   0.37678   0.00000  Uiso   1.00
C278   C     0.14014   0.12639   0.34953   0.00000  Uiso   1.00
C279   C     0.17133   0.05904   0.33016   0.00000  Uiso   1.00
C280   C     0.24214   0.06541   0.30654   0.00000  Uiso   1.00
C281   C     0.35541   0.04486   0.26482   0.00000  Uiso   1.00
C282   C     0.01590   0.19301   0.34939   0.00000  Uiso   1.00
C283   C     0.94261   0.18168   0.32993   0.00000  Uiso   1.00
C284   C     0.90882   0.24413   0.30620   0.00000  Uiso   1.00
C285   C     0.82917   0.32703   0.26430   0.00000  Uiso   1.00
C286   C     0.08246   0.16838   0.42627   0.00000  Uiso   1.00
C287   C     0.06513   0.13635   0.47145   0.00000  Uiso   1.00
C288   C     0.08737   0.17808   0.51245   0.00000  Uiso   1.00
C289   C     0.11107   0.22273   0.58992   0.00000  Uiso   1.00
C290   C     0.13374   0.26372   0.36927   0.00000  Uiso   1.00
C291   C     0.17832   0.19758   0.34544   0.00000  Uiso   1.00
C292   C     0.24910   0.20405   0.32184   0.00000  Uiso   1.00
C293   C     0.28039   0.13673   0.30245   0.00000  Uiso   1.00
C294   C     0.05407   0.26420   0.34531   0.00000  Uiso   1.00
C295   C     0.02038   0.32669   0.32161   0.00000  Uiso   1.00
C296   C     0.94707   0.31545   0.30211   0.00000  Uiso   1.00
C297   C     0.12064   0.23957   0.42219   0.00000  Uiso   1.00
C298   C     0.14290   0.28136   0.46313   0.00000  Uiso   1.00
C299   C     0.12561   0.24940   0.50836   0.00000  Uiso   1.00
H300   H     0.03372   0.07723   0.37996   0.00000  Uiso   1.00
H301   H     0.14176   0.00396   0.33333   0.00000  Uiso   1.00
H302   H     0.91308   0.12658   0.33310   0.00000  Uiso   1.00
H303   H     0.03558   0.08126   0.47460   0.00000  Uiso   1.00
H304   H     0.27838   0.95413   0.27981   0.00000  Uiso   1.00
H305   H     0.79617   0.21269   0.27934   0.00000  Uiso   1.00
H306   H     0.05449   0.11712   0.57772   0.00000  Uiso   1.00
H307   H     0.16346   0.31915   0.36608   0.00000  Uiso   1.00
H308   H     0.27863   0.25915   0.31869   0.00000  Uiso   1.00
H309   H     0.04995   0.38177   0.31846   0.00000  Uiso   1.00
H310   H     0.17245   0.33645   0.45996   0.00000  Uiso   1.00
H311   H     0.38946   0.16125   0.26792   0.00000  Uiso   1.00
H312   H     0.90726   0.41981   0.26745   0.00000  Uiso   1.00
H313   H     0.16558   0.32424   0.56583   0.00000  Uiso   1.00
O314   O     0.40733   0.01386   0.24292   0.00000  Uiso   1.00
O315   O     0.77469   0.35309   0.24232   0.00000  Uiso   1.00
O316   O     0.11360   0.22769   0.63378   0.00000  Uiso   1.00
N317   N     0.28872   0.01111   0.28352   0.00000  Uiso   1.00
N318   N     0.83789   0.25284   0.28308   0.00000  Uiso   1.00
N319   N     0.07938   0.16350   0.56204   0.00000  Uiso   1.00
N320   N     0.34850   0.12256   0.27713   0.00000  Uiso   1.00
N321   N     0.89767   0.36429   0.27668   0.00000  Uiso   1.00
N322   N     0.13916   0.27495   0.55564   0.00000  Uiso   1.00
C323   C     0.93656   0.86735   0.37678   0.00000  Uiso   1.00
C324   C     0.85986   0.87361   0.34953   0.00000  Uiso   1.00
C325   C     0.82867   0.94096   0.33016   0.00000  Uiso   1.00
C326   C     0.75786   0.93459   0.30654   0.00000  Uiso   1.00
C327   C     0.64459   0.95514   0.26482   0.00000  Uiso   1.00
C328   C     0.98410   0.80699   0.34939   0.00000  Uiso   1.00
C329   C     0.05739   0.81832   0.32993   0.00000  Uiso   1.00
C330   C     0.09118   0.75587   0.30620   0.00000  Uiso   1.00
C331   C     0.17083   0.67297   0.26430   0.00000  Uiso   1.00
C332   C     0.91754   0.83162   0.42627   0.00000  Uiso   1.00
C333   C     0.93487   0.86365   0.47145   0.00000  Uiso   1.00
C334   C     0.91263   0.82192   0.51245   0.00000  Uiso   1.00
C335   C     0.88893   0.77727   0.58992   0.00000  Uiso   1.00
C336   C     0.86626   0.73628   0.36927   0.00000  Uiso   1.00
C337   C     0.82168   0.80242   0.34544   0.00000  Uiso   1.00
C338   C     0.75090   0.79595   0.32184   0.00000  Uiso   1.00
C339   C     0.71961   0.86327   0.30245   0.00000  Uiso   1.00
C340   C     0.94593   0.73580   0.34531   0.00000  Uiso   1.00
C341   C     0.97962   0.67331   0.32161   0.00000  Uiso   1.00
C342   C     0.05293   0.68455   0.30211   0.00000  Uiso   1.00
C343   C     0.87936   0.76043   0.42219   0.00000  Uiso   1.00
C344   C     0.85710   0.71864   0.46313   0.00000  Uiso   1.00
C345   C     0.87439   0.75060   0.50836   0.00000  Uiso   1.00
H346   H     0.96628   0.92277   0.37996   0.00000  Uiso   1.00
H347   H     0.85824   0.99604   0.33333   0.00000  Uiso   1.00
H348   H     0.08692   0.87342   0.33310   0.00000  Uiso   1.00
H349   H     0.96442   0.91874   0.47460   0.00000  Uiso   1.00
H350   H     0.72162   0.04587   0.27981   0.00000  Uiso   1.00
H351   H     0.20383   0.78731   0.27934   0.00000  Uiso   1.00
H352   H     0.94551   0.88288   0.57772   0.00000  Uiso   1.00
H353   H     0.83654   0.68085   0.36608   0.00000  Uiso   1.00
H354   H     0.72137   0.74085   0.31869   0.00000  Uiso   1.00
H355   H     0.95005   0.61823   0.31846   0.00000  Uiso   1.00
H356   H     0.82755   0.66355   0.45996   0.00000  Uiso   1.00
H357   H     0.61054   0.83875   0.26792   0.00000  Uiso   1.00
H358   H     0.09274   0.58019   0.26745   0.00000  Uiso   1.00
H359   H     0.83442   0.67576   0.56583   0.00000  Uiso   1.00
O360   O     0.59267   0.98614   0.24292   0.00000  Uiso   1.00
O361   O     0.22531   0.64691   0.24232   0.00000  Uiso   1.00
O362   O     0.88640   0.77231   0.63378   0.00000  Uiso   1.00
N363   N     0.71128   0.98889   0.28352   0.00000  Uiso   1.00
N364   N     0.16211   0.74716   0.28308   0.00000  Uiso   1.00
N365   N     0.92062   0.83650   0.56204   0.00000  Uiso   1.00
N366   N     0.65150   0.87744   0.27713   0.00000  Uiso   1.00
N367   N     0.10233   0.63571   0.27668   0.00000  Uiso   1.00
N368   N     0.86084   0.72505   0.55564   0.00000  Uiso   1.00
