data_job_00609
_audit_creation_date              2018-12-19
_audit_creation_method            'Materials Studio'
_symmetry_space_group_name_H-M    'P1'
_symmetry_Int_Tables_number       1
_symmetry_cell_setting            triclinic
loop_
_symmetry_equiv_pos_as_xyz
  x,y,z
_cell_length_a                    15.1214
_cell_length_b                    15.1214
_cell_length_c                    20.5056
_cell_angle_alpha                 90.0000
_cell_angle_beta                  90.0000
_cell_angle_gamma                 90.0000
loop_
_atom_site_label
_atom_site_type_symbol
_atom_site_fract_x
_atom_site_fract_y
_atom_site_fract_z
_atom_site_U_iso_or_equiv
_atom_site_adp_type
_atom_site_occupancy
C1     C     0.39583   0.79060   0.27479   0.00000  Uiso   1.00
C2     C     0.36045   0.76564   0.34196   0.00000  Uiso   1.00
C3     C     0.27192   0.75713   0.35865   0.00000  Uiso   1.00
C4     C     0.25316   0.73380   0.42265   0.00000  Uiso   1.00
C5     C     0.18798   0.69726   0.52001   0.00000  Uiso   1.00
C6     C     0.45377   0.87195   0.28508   0.00000  Uiso   1.00
C7     C     0.44370   0.95282   0.25394   0.00000  Uiso   1.00
C8     C     0.50351   0.01897   0.27007   0.00000  Uiso   1.00
C9     C     0.58324   0.14745   0.27909   0.00000  Uiso   1.00
C10    C     0.45831   0.71619   0.25490   0.00000  Uiso   1.00
C11    C     0.45208   0.66611   0.19837   0.00000  Uiso   1.00
C12    C     0.51573   0.60113   0.18908   0.00000  Uiso   1.00
C13    C     0.60252   0.48778   0.15123   0.00000  Uiso   1.00
C14    C     0.51995   0.76429   0.35879   0.00000  Uiso   1.00
C15    C     0.42788   0.75136   0.38758   0.00000  Uiso   1.00
C16    C     0.40925   0.72803   0.45158   0.00000  Uiso   1.00
C17    C     0.32070   0.71948   0.46836   0.00000  Uiso   1.00
C18    C     0.52119   0.85767   0.33070   0.00000  Uiso   1.00
C19    C     0.58103   0.92371   0.34687   0.00000  Uiso   1.00
C20    C     0.57105   0.00465   0.31577   0.00000  Uiso   1.00
C21    C     0.52573   0.70190   0.30052   0.00000  Uiso   1.00
C22    C     0.58941   0.63700   0.29131   0.00000  Uiso   1.00
C23    C     0.58327   0.58682   0.23478   0.00000  Uiso   1.00
H24    H     0.34334   0.80173   0.23927   0.00000  Uiso   1.00
H25    H     0.21977   0.76821   0.32333   0.00000  Uiso   1.00
H26    H     0.39153   0.96385   0.21863   0.00000  Uiso   1.00
H27    H     0.39990   0.67719   0.16308   0.00000  Uiso   1.00
H28    H     0.11249   0.72476   0.43664   0.00000  Uiso   1.00
H29    H     0.47468   0.13729   0.21588   0.00000  Uiso   1.00
H30    H     0.49234   0.53280   0.09872   0.00000  Uiso   1.00
H31    H     0.57244   0.75317   0.39431   0.00000  Uiso   1.00
H32    H     0.46143   0.71697   0.48687   0.00000  Uiso   1.00
H33    H     0.63319   0.91262   0.38218   0.00000  Uiso   1.00
H34    H     0.64157   0.62596   0.32662   0.00000  Uiso   1.00
H35    H     0.30863   0.68319   0.56938   0.00000  Uiso   1.00
H36    H     0.67083   0.09571   0.34862   0.00000  Uiso   1.00
H37    H     0.68848   0.49122   0.23146   0.00000  Uiso   1.00
O38    O     0.13340   0.68107   0.56111   0.00000  Uiso   1.00
O39    O     0.60859   0.22228   0.27147   0.00000  Uiso   1.00
O40    O     0.63175   0.42920   0.11776   0.00000  Uiso   1.00
N41    N     0.17389   0.71993   0.45518   0.00000  Uiso   1.00
N42    N     0.51250   0.10562   0.24878   0.00000  Uiso   1.00
N43    N     0.52903   0.54049   0.13924   0.00000  Uiso   1.00
N44    N     0.27943   0.69755   0.52660   0.00000  Uiso   1.00
N45    N     0.61805   0.08325   0.32021   0.00000  Uiso   1.00
N46    N     0.63457   0.51811   0.21067   0.00000  Uiso   1.00
C47    C     0.60417   0.20940   0.77479   0.00000  Uiso   1.00
C48    C     0.63955   0.23436   0.84196   0.00000  Uiso   1.00
C49    C     0.72808   0.24287   0.85865   0.00000  Uiso   1.00
C50    C     0.74684   0.26620   0.92265   0.00000  Uiso   1.00
C51    C     0.81202   0.30274   0.02001   0.00000  Uiso   1.00
C52    C     0.54623   0.12805   0.78508   0.00000  Uiso   1.00
C53    C     0.55630   0.04718   0.75394   0.00000  Uiso   1.00
C54    C     0.49649   0.98103   0.77007   0.00000  Uiso   1.00
C55    C     0.41676   0.85255   0.77909   0.00000  Uiso   1.00
C56    C     0.54169   0.28381   0.75490   0.00000  Uiso   1.00
C57    C     0.54792   0.33389   0.69837   0.00000  Uiso   1.00
C58    C     0.48427   0.39887   0.68908   0.00000  Uiso   1.00
C59    C     0.39748   0.51222   0.65123   0.00000  Uiso   1.00
C60    C     0.48005   0.23571   0.85879   0.00000  Uiso   1.00
C61    C     0.57212   0.24864   0.88758   0.00000  Uiso   1.00
C62    C     0.59075   0.27197   0.95158   0.00000  Uiso   1.00
C63    C     0.67930   0.28052   0.96836   0.00000  Uiso   1.00
C64    C     0.47881   0.14233   0.83070   0.00000  Uiso   1.00
C65    C     0.41897   0.07629   0.84687   0.00000  Uiso   1.00
C66    C     0.42895   0.99535   0.81577   0.00000  Uiso   1.00
C67    C     0.47427   0.29810   0.80052   0.00000  Uiso   1.00
C68    C     0.41059   0.36300   0.79131   0.00000  Uiso   1.00
C69    C     0.41673   0.41318   0.73478   0.00000  Uiso   1.00
H70    H     0.65666   0.19827   0.73927   0.00000  Uiso   1.00
H71    H     0.78023   0.23179   0.82333   0.00000  Uiso   1.00
H72    H     0.60847   0.03615   0.71863   0.00000  Uiso   1.00
H73    H     0.60010   0.32281   0.66308   0.00000  Uiso   1.00
H74    H     0.88751   0.27524   0.93664   0.00000  Uiso   1.00
H75    H     0.52532   0.86271   0.71588   0.00000  Uiso   1.00
H76    H     0.50766   0.46720   0.59872   0.00000  Uiso   1.00
H77    H     0.42756   0.24683   0.89431   0.00000  Uiso   1.00
H78    H     0.53857   0.28303   0.98687   0.00000  Uiso   1.00
H79    H     0.36681   0.08738   0.88218   0.00000  Uiso   1.00
H80    H     0.35843   0.37404   0.82662   0.00000  Uiso   1.00
H81    H     0.69137   0.31681   0.06938   0.00000  Uiso   1.00
H82    H     0.32917   0.90429   0.84862   0.00000  Uiso   1.00
H83    H     0.31152   0.50878   0.73146   0.00000  Uiso   1.00
O84    O     0.86660   0.31893   0.06111   0.00000  Uiso   1.00
O85    O     0.39141   0.77772   0.77147   0.00000  Uiso   1.00
O86    O     0.36825   0.57080   0.61776   0.00000  Uiso   1.00
N87    N     0.82611   0.28007   0.95518   0.00000  Uiso   1.00
N88    N     0.48750   0.89438   0.74878   0.00000  Uiso   1.00
N89    N     0.47097   0.45951   0.63924   0.00000  Uiso   1.00
N90    N     0.72057   0.30245   0.02660   0.00000  Uiso   1.00
N91    N     0.38195   0.91675   0.82021   0.00000  Uiso   1.00
N92    N     0.36543   0.48189   0.71067   0.00000  Uiso   1.00
C93    C     0.70940   0.89583   0.02479   0.00000  Uiso   1.00
C94    C     0.73436   0.86045   0.09196   0.00000  Uiso   1.00
C95    C     0.74287   0.77192   0.10865   0.00000  Uiso   1.00
C96    C     0.76620   0.75316   0.17265   0.00000  Uiso   1.00
C97    C     0.80274   0.68798   0.27001   0.00000  Uiso   1.00
C98    C     0.62805   0.95377   0.03508   0.00000  Uiso   1.00
C99    C     0.54718   0.94370   0.00394   0.00000  Uiso   1.00
C100   C     0.48103   0.00351   0.02007   0.00000  Uiso   1.00
C101   C     0.35255   0.08324   0.02909   0.00000  Uiso   1.00
C102   C     0.78381   0.95831   0.00490   0.00000  Uiso   1.00
C103   C     0.83389   0.95208   0.94837   0.00000  Uiso   1.00
C104   C     0.89887   0.01573   0.93908   0.00000  Uiso   1.00
C105   C     0.01222   0.10252   0.90123   0.00000  Uiso   1.00
C106   C     0.73571   0.01995   0.10879   0.00000  Uiso   1.00
C107   C     0.74864   0.92788   0.13758   0.00000  Uiso   1.00
C108   C     0.77197   0.90925   0.20158   0.00000  Uiso   1.00
C109   C     0.78052   0.82070   0.21836   0.00000  Uiso   1.00
C110   C     0.64233   0.02119   0.08070   0.00000  Uiso   1.00
C111   C     0.57629   0.08103   0.09687   0.00000  Uiso   1.00
C112   C     0.49535   0.07105   0.06577   0.00000  Uiso   1.00
C113   C     0.79810   0.02573   0.05052   0.00000  Uiso   1.00
C114   C     0.86300   0.08941   0.04131   0.00000  Uiso   1.00
C115   C     0.91318   0.08327   0.98478   0.00000  Uiso   1.00
H116   H     0.69827   0.84334   0.98927   0.00000  Uiso   1.00
H117   H     0.73179   0.71977   0.07333   0.00000  Uiso   1.00
H118   H     0.53615   0.89153   0.96863   0.00000  Uiso   1.00
H119   H     0.82281   0.89990   0.91308   0.00000  Uiso   1.00
H120   H     0.77524   0.61249   0.18664   0.00000  Uiso   1.00
H121   H     0.36271   0.97468   0.96588   0.00000  Uiso   1.00
H122   H     0.96720   0.99234   0.84872   0.00000  Uiso   1.00
H123   H     0.74683   0.07244   0.14431   0.00000  Uiso   1.00
H124   H     0.78303   0.96143   0.23687   0.00000  Uiso   1.00
H125   H     0.58738   0.13319   0.13218   0.00000  Uiso   1.00
H126   H     0.87404   0.14157   0.07662   0.00000  Uiso   1.00
H127   H     0.81681   0.80863   0.31938   0.00000  Uiso   1.00
H128   H     0.40429   0.17083   0.09862   0.00000  Uiso   1.00
H129   H     0.00878   0.18848   0.98146   0.00000  Uiso   1.00
O130   O     0.81893   0.63340   0.31111   0.00000  Uiso   1.00
O131   O     0.27772   0.10859   0.02147   0.00000  Uiso   1.00
O132   O     0.07080   0.13175   0.86776   0.00000  Uiso   1.00
N133   N     0.78007   0.67389   0.20518   0.00000  Uiso   1.00
N134   N     0.39438   0.01250   0.99878   0.00000  Uiso   1.00
N135   N     0.95951   0.02903   0.88924   0.00000  Uiso   1.00
N136   N     0.80245   0.77943   0.27660   0.00000  Uiso   1.00
N137   N     0.41675   0.11805   0.07021   0.00000  Uiso   1.00
N138   N     0.98189   0.13457   0.96067   0.00000  Uiso   1.00
C139   C     0.29060   0.10417   0.52479   0.00000  Uiso   1.00
C140   C     0.26564   0.13955   0.59196   0.00000  Uiso   1.00
C141   C     0.25713   0.22808   0.60865   0.00000  Uiso   1.00
C142   C     0.23380   0.24684   0.67265   0.00000  Uiso   1.00
C143   C     0.19726   0.31202   0.77001   0.00000  Uiso   1.00
C144   C     0.37195   0.04623   0.53508   0.00000  Uiso   1.00
C145   C     0.45282   0.05630   0.50394   0.00000  Uiso   1.00
C146   C     0.51897   0.99649   0.52007   0.00000  Uiso   1.00
C147   C     0.64745   0.91676   0.52909   0.00000  Uiso   1.00
C148   C     0.21619   0.04169   0.50490   0.00000  Uiso   1.00
C149   C     0.16611   0.04792   0.44837   0.00000  Uiso   1.00
C150   C     0.10113   0.98427   0.43908   0.00000  Uiso   1.00
C151   C     0.98778   0.89748   0.40123   0.00000  Uiso   1.00
C152   C     0.26429   0.98005   0.60879   0.00000  Uiso   1.00
C153   C     0.25136   0.07212   0.63758   0.00000  Uiso   1.00
C154   C     0.22803   0.09075   0.70158   0.00000  Uiso   1.00
C155   C     0.21948   0.17930   0.71836   0.00000  Uiso   1.00
C156   C     0.35767   0.97881   0.58070   0.00000  Uiso   1.00
C157   C     0.42371   0.91897   0.59687   0.00000  Uiso   1.00
C158   C     0.50465   0.92895   0.56577   0.00000  Uiso   1.00
C159   C     0.20190   0.97427   0.55052   0.00000  Uiso   1.00
C160   C     0.13700   0.91059   0.54131   0.00000  Uiso   1.00
C161   C     0.08682   0.91673   0.48478   0.00000  Uiso   1.00
H162   H     0.30173   0.15666   0.48927   0.00000  Uiso   1.00
H163   H     0.26821   0.28023   0.57333   0.00000  Uiso   1.00
H164   H     0.46385   0.10847   0.46863   0.00000  Uiso   1.00
H165   H     0.17719   0.10010   0.41308   0.00000  Uiso   1.00
H166   H     0.22476   0.38751   0.68664   0.00000  Uiso   1.00
H167   H     0.63729   0.02532   0.46588   0.00000  Uiso   1.00
H168   H     0.03280   0.00766   0.34872   0.00000  Uiso   1.00
H169   H     0.25317   0.92756   0.64431   0.00000  Uiso   1.00
H170   H     0.21697   0.03857   0.73687   0.00000  Uiso   1.00
H171   H     0.41262   0.86681   0.63218   0.00000  Uiso   1.00
H172   H     0.12596   0.85843   0.57662   0.00000  Uiso   1.00
H173   H     0.18319   0.19137   0.81938   0.00000  Uiso   1.00
H174   H     0.59571   0.82917   0.59862   0.00000  Uiso   1.00
H175   H     0.99122   0.81152   0.48146   0.00000  Uiso   1.00
O176   O     0.18107   0.36660   0.81111   0.00000  Uiso   1.00
O177   O     0.72228   0.89141   0.52147   0.00000  Uiso   1.00
O178   O     0.92920   0.86825   0.36776   0.00000  Uiso   1.00
N179   N     0.21993   0.32611   0.70518   0.00000  Uiso   1.00
N180   N     0.60562   0.98750   0.49878   0.00000  Uiso   1.00
N181   N     0.04049   0.97097   0.38924   0.00000  Uiso   1.00
N182   N     0.19755   0.22057   0.77660   0.00000  Uiso   1.00
N183   N     0.58325   0.88195   0.57021   0.00000  Uiso   1.00
N184   N     0.01811   0.86543   0.46067   0.00000  Uiso   1.00
C185   C     0.10417   0.29060   0.47521   0.00000  Uiso   1.00
C186   C     0.13955   0.26564   0.40804   0.00000  Uiso   1.00
C187   C     0.22808   0.25713   0.39135   0.00000  Uiso   1.00
C188   C     0.24684   0.23380   0.32735   0.00000  Uiso   1.00
C189   C     0.31202   0.19726   0.22999   0.00000  Uiso   1.00
C190   C     0.04623   0.37195   0.46492   0.00000  Uiso   1.00
C191   C     0.05630   0.45282   0.49606   0.00000  Uiso   1.00
C192   C     0.99649   0.51897   0.47993   0.00000  Uiso   1.00
C193   C     0.91676   0.64745   0.47091   0.00000  Uiso   1.00
C194   C     0.04169   0.21619   0.49510   0.00000  Uiso   1.00
C195   C     0.04792   0.16611   0.55163   0.00000  Uiso   1.00
C196   C     0.98427   0.10113   0.56092   0.00000  Uiso   1.00
C197   C     0.89748   0.98778   0.59877   0.00000  Uiso   1.00
C198   C     0.98005   0.26429   0.39121   0.00000  Uiso   1.00
C199   C     0.07212   0.25136   0.36242   0.00000  Uiso   1.00
C200   C     0.09075   0.22803   0.29842   0.00000  Uiso   1.00
C201   C     0.17930   0.21948   0.28164   0.00000  Uiso   1.00
C202   C     0.97881   0.35767   0.41930   0.00000  Uiso   1.00
C203   C     0.91897   0.42371   0.40313   0.00000  Uiso   1.00
C204   C     0.92895   0.50465   0.43423   0.00000  Uiso   1.00
C205   C     0.97427   0.20190   0.44948   0.00000  Uiso   1.00
C206   C     0.91059   0.13700   0.45869   0.00000  Uiso   1.00
C207   C     0.91673   0.08682   0.51522   0.00000  Uiso   1.00
H208   H     0.15666   0.30173   0.51073   0.00000  Uiso   1.00
H209   H     0.28023   0.26821   0.42667   0.00000  Uiso   1.00
H210   H     0.10847   0.46385   0.53137   0.00000  Uiso   1.00
H211   H     0.10010   0.17719   0.58692   0.00000  Uiso   1.00
H212   H     0.38751   0.22476   0.31336   0.00000  Uiso   1.00
H213   H     0.02532   0.63729   0.53412   0.00000  Uiso   1.00
H214   H     0.00766   0.03280   0.65128   0.00000  Uiso   1.00
H215   H     0.92756   0.25317   0.35569   0.00000  Uiso   1.00
H216   H     0.03857   0.21697   0.26313   0.00000  Uiso   1.00
H217   H     0.86681   0.41262   0.36782   0.00000  Uiso   1.00
H218   H     0.85843   0.12596   0.42338   0.00000  Uiso   1.00
H219   H     0.19137   0.18319   0.18062   0.00000  Uiso   1.00
H220   H     0.82917   0.59571   0.40138   0.00000  Uiso   1.00
H221   H     0.81152   0.99122   0.51854   0.00000  Uiso   1.00
O222   O     0.36660   0.18107   0.18889   0.00000  Uiso   1.00
O223   O     0.89141   0.72228   0.47853   0.00000  Uiso   1.00
O224   O     0.86825   0.92920   0.63224   0.00000  Uiso   1.00
N225   N     0.32611   0.21993   0.29482   0.00000  Uiso   1.00
N226   N     0.98750   0.60562   0.50122   0.00000  Uiso   1.00
N227   N     0.97097   0.04049   0.61076   0.00000  Uiso   1.00
N228   N     0.22057   0.19755   0.22340   0.00000  Uiso   1.00
N229   N     0.88195   0.58325   0.42979   0.00000  Uiso   1.00
N230   N     0.86543   0.01811   0.53933   0.00000  Uiso   1.00
C231   C     0.89583   0.70940   0.97521   0.00000  Uiso   1.00
C232   C     0.86045   0.73436   0.90804   0.00000  Uiso   1.00
C233   C     0.77192   0.74287   0.89135   0.00000  Uiso   1.00
C234   C     0.75316   0.76620   0.82735   0.00000  Uiso   1.00
C235   C     0.68798   0.80274   0.72999   0.00000  Uiso   1.00
C236   C     0.95377   0.62805   0.96492   0.00000  Uiso   1.00
C237   C     0.94370   0.54718   0.99606   0.00000  Uiso   1.00
C238   C     0.00351   0.48103   0.97993   0.00000  Uiso   1.00
C239   C     0.08324   0.35255   0.97091   0.00000  Uiso   1.00
C240   C     0.95831   0.78381   0.99510   0.00000  Uiso   1.00
C241   C     0.95208   0.83389   0.05163   0.00000  Uiso   1.00
C242   C     0.01573   0.89887   0.06092   0.00000  Uiso   1.00
C243   C     0.10252   0.01222   0.09877   0.00000  Uiso   1.00
C244   C     0.01995   0.73571   0.89121   0.00000  Uiso   1.00
C245   C     0.92788   0.74864   0.86242   0.00000  Uiso   1.00
C246   C     0.90925   0.77197   0.79842   0.00000  Uiso   1.00
C247   C     0.82070   0.78052   0.78164   0.00000  Uiso   1.00
C248   C     0.02119   0.64233   0.91930   0.00000  Uiso   1.00
C249   C     0.08103   0.57629   0.90313   0.00000  Uiso   1.00
C250   C     0.07105   0.49535   0.93423   0.00000  Uiso   1.00
C251   C     0.02573   0.79810   0.94948   0.00000  Uiso   1.00
C252   C     0.08941   0.86300   0.95869   0.00000  Uiso   1.00
C253   C     0.08327   0.91318   0.01522   0.00000  Uiso   1.00
H254   H     0.84334   0.69827   0.01073   0.00000  Uiso   1.00
H255   H     0.71977   0.73179   0.92667   0.00000  Uiso   1.00
H256   H     0.89153   0.53615   0.03137   0.00000  Uiso   1.00
H257   H     0.89990   0.82281   0.08692   0.00000  Uiso   1.00
H258   H     0.61249   0.77524   0.81336   0.00000  Uiso   1.00
H259   H     0.97468   0.36271   0.03412   0.00000  Uiso   1.00
H260   H     0.99234   0.96720   0.15128   0.00000  Uiso   1.00
H261   H     0.07244   0.74683   0.85569   0.00000  Uiso   1.00
H262   H     0.96143   0.78303   0.76313   0.00000  Uiso   1.00
H263   H     0.13319   0.58738   0.86782   0.00000  Uiso   1.00
H264   H     0.14157   0.87404   0.92338   0.00000  Uiso   1.00
H265   H     0.80863   0.81681   0.68062   0.00000  Uiso   1.00
H266   H     0.17083   0.40429   0.90138   0.00000  Uiso   1.00
H267   H     0.18848   0.00878   0.01854   0.00000  Uiso   1.00
O268   O     0.63340   0.81893   0.68889   0.00000  Uiso   1.00
O269   O     0.10859   0.27772   0.97853   0.00000  Uiso   1.00
O270   O     0.13175   0.07080   0.13224   0.00000  Uiso   1.00
N271   N     0.67389   0.78007   0.79482   0.00000  Uiso   1.00
N272   N     0.01250   0.39438   0.00122   0.00000  Uiso   1.00
N273   N     0.02903   0.95951   0.11076   0.00000  Uiso   1.00
N274   N     0.77943   0.80245   0.72340   0.00000  Uiso   1.00
N275   N     0.11805   0.41675   0.92979   0.00000  Uiso   1.00
N276   N     0.13457   0.98189   0.03933   0.00000  Uiso   1.00
C277   C     0.79060   0.39583   0.72521   0.00000  Uiso   1.00
C278   C     0.76564   0.36045   0.65804   0.00000  Uiso   1.00
C279   C     0.75713   0.27192   0.64135   0.00000  Uiso   1.00
C280   C     0.73380   0.25316   0.57735   0.00000  Uiso   1.00
C281   C     0.69726   0.18798   0.47999   0.00000  Uiso   1.00
C282   C     0.87195   0.45377   0.71492   0.00000  Uiso   1.00
C283   C     0.95282   0.44370   0.74606   0.00000  Uiso   1.00
C284   C     0.01897   0.50351   0.72993   0.00000  Uiso   1.00
C285   C     0.14745   0.58324   0.72091   0.00000  Uiso   1.00
C286   C     0.71619   0.45831   0.74510   0.00000  Uiso   1.00
C287   C     0.66611   0.45208   0.80163   0.00000  Uiso   1.00
C288   C     0.60113   0.51573   0.81092   0.00000  Uiso   1.00
C289   C     0.48778   0.60252   0.84877   0.00000  Uiso   1.00
C290   C     0.76429   0.51995   0.64121   0.00000  Uiso   1.00
C291   C     0.75136   0.42788   0.61242   0.00000  Uiso   1.00
C292   C     0.72803   0.40925   0.54842   0.00000  Uiso   1.00
C293   C     0.71948   0.32070   0.53164   0.00000  Uiso   1.00
C294   C     0.85767   0.52119   0.66930   0.00000  Uiso   1.00
C295   C     0.92371   0.58103   0.65313   0.00000  Uiso   1.00
C296   C     0.00465   0.57105   0.68423   0.00000  Uiso   1.00
C297   C     0.70190   0.52573   0.69948   0.00000  Uiso   1.00
C298   C     0.63700   0.58941   0.70869   0.00000  Uiso   1.00
C299   C     0.58682   0.58327   0.76522   0.00000  Uiso   1.00
H300   H     0.80173   0.34334   0.76073   0.00000  Uiso   1.00
H301   H     0.76821   0.21977   0.67667   0.00000  Uiso   1.00
H302   H     0.96385   0.39153   0.78137   0.00000  Uiso   1.00
H303   H     0.67719   0.39990   0.83692   0.00000  Uiso   1.00
H304   H     0.72476   0.11249   0.56336   0.00000  Uiso   1.00
H305   H     0.13729   0.47468   0.78412   0.00000  Uiso   1.00
H306   H     0.53280   0.49234   0.90128   0.00000  Uiso   1.00
H307   H     0.75317   0.57244   0.60569   0.00000  Uiso   1.00
H308   H     0.71697   0.46143   0.51313   0.00000  Uiso   1.00
H309   H     0.91262   0.63319   0.61782   0.00000  Uiso   1.00
H310   H     0.62596   0.64157   0.67338   0.00000  Uiso   1.00
H311   H     0.68319   0.30863   0.43062   0.00000  Uiso   1.00
H312   H     0.09571   0.67083   0.65138   0.00000  Uiso   1.00
H313   H     0.49122   0.68848   0.76854   0.00000  Uiso   1.00
O314   O     0.68107   0.13340   0.43889   0.00000  Uiso   1.00
O315   O     0.22228   0.60859   0.72853   0.00000  Uiso   1.00
O316   O     0.42920   0.63175   0.88224   0.00000  Uiso   1.00
N317   N     0.71993   0.17389   0.54482   0.00000  Uiso   1.00
N318   N     0.10562   0.51250   0.75122   0.00000  Uiso   1.00
N319   N     0.54049   0.52903   0.86076   0.00000  Uiso   1.00
N320   N     0.69755   0.27943   0.47340   0.00000  Uiso   1.00
N321   N     0.08325   0.61805   0.67979   0.00000  Uiso   1.00
N322   N     0.51811   0.63457   0.78933   0.00000  Uiso   1.00
C323   C     0.20940   0.60417   0.22521   0.00000  Uiso   1.00
C324   C     0.23436   0.63955   0.15804   0.00000  Uiso   1.00
C325   C     0.24287   0.72808   0.14135   0.00000  Uiso   1.00
C326   C     0.26620   0.74684   0.07735   0.00000  Uiso   1.00
C327   C     0.30274   0.81202   0.97999   0.00000  Uiso   1.00
C328   C     0.12805   0.54623   0.21492   0.00000  Uiso   1.00
C329   C     0.04718   0.55630   0.24606   0.00000  Uiso   1.00
C330   C     0.98103   0.49649   0.22993   0.00000  Uiso   1.00
C331   C     0.85255   0.41676   0.22091   0.00000  Uiso   1.00
C332   C     0.28381   0.54169   0.24510   0.00000  Uiso   1.00
C333   C     0.33389   0.54792   0.30163   0.00000  Uiso   1.00
C334   C     0.39887   0.48427   0.31092   0.00000  Uiso   1.00
C335   C     0.51222   0.39748   0.34877   0.00000  Uiso   1.00
C336   C     0.23571   0.48005   0.14121   0.00000  Uiso   1.00
C337   C     0.24864   0.57212   0.11242   0.00000  Uiso   1.00
C338   C     0.27197   0.59075   0.04842   0.00000  Uiso   1.00
C339   C     0.28052   0.67930   0.03164   0.00000  Uiso   1.00
C340   C     0.14233   0.47881   0.16930   0.00000  Uiso   1.00
C341   C     0.07629   0.41897   0.15313   0.00000  Uiso   1.00
C342   C     0.99535   0.42895   0.18423   0.00000  Uiso   1.00
C343   C     0.29810   0.47427   0.19948   0.00000  Uiso   1.00
C344   C     0.36300   0.41059   0.20869   0.00000  Uiso   1.00
C345   C     0.41318   0.41673   0.26522   0.00000  Uiso   1.00
H346   H     0.19827   0.65666   0.26073   0.00000  Uiso   1.00
H347   H     0.23179   0.78023   0.17667   0.00000  Uiso   1.00
H348   H     0.03615   0.60847   0.28137   0.00000  Uiso   1.00
H349   H     0.32281   0.60010   0.33692   0.00000  Uiso   1.00
H350   H     0.27524   0.88751   0.06336   0.00000  Uiso   1.00
H351   H     0.86271   0.52532   0.28412   0.00000  Uiso   1.00
H352   H     0.46720   0.50766   0.40128   0.00000  Uiso   1.00
H353   H     0.24683   0.42756   0.10569   0.00000  Uiso   1.00
H354   H     0.28303   0.53857   0.01313   0.00000  Uiso   1.00
H355   H     0.08738   0.36681   0.11782   0.00000  Uiso   1.00
H356   H     0.37404   0.35843   0.17338   0.00000  Uiso   1.00
H357   H     0.31681   0.69137   0.93062   0.00000  Uiso   1.00
H358   H     0.90429   0.32917   0.15138   0.00000  Uiso   1.00
H359   H     0.50878   0.31152   0.26854   0.00000  Uiso   1.00
O360   O     0.31893   0.86660   0.93889   0.00000  Uiso   1.00
O361   O     0.77772   0.39141   0.22853   0.00000  Uiso   1.00
O362   O     0.57080   0.36825   0.38224   0.00000  Uiso   1.00
N363   N     0.28007   0.82611   0.04482   0.00000  Uiso   1.00
N364   N     0.89438   0.48750   0.25122   0.00000  Uiso   1.00
N365   N     0.45951   0.47097   0.36076   0.00000  Uiso   1.00
N366   N     0.30245   0.72057   0.97340   0.00000  Uiso   1.00
N367   N     0.91675   0.38195   0.17979   0.00000  Uiso   1.00
N368   N     0.48189   0.36543   0.28933   0.00000  Uiso   1.00
