data_job_05096
_audit_creation_date              2018-12-19
_audit_creation_method            'Materials Studio'
_symmetry_space_group_name_H-M    'P1'
_symmetry_Int_Tables_number       1
_symmetry_cell_setting            triclinic
loop_
_symmetry_equiv_pos_as_xyz
  x,y,z
_cell_length_a                    15.9983
_cell_length_b                    27.3858
_cell_length_c                    10.2664
_cell_angle_alpha                 90.0000
_cell_angle_beta                  145.1092
_cell_angle_gamma                 90.0000
loop_
_atom_site_label
_atom_site_type_symbol
_atom_site_fract_x
_atom_site_fract_y
_atom_site_fract_z
_atom_site_U_iso_or_equiv
_atom_site_adp_type
_atom_site_occupancy
C1     C     0.77839   0.58865   0.75299   0.00000  Uiso   1.00
C2     C     0.65147   0.56962   0.50899   0.00000  Uiso   1.00
C3     C     0.62437   0.52100   0.44488   0.00000  Uiso   1.00
C4     C     0.50261   0.51109   0.21301   0.00000  Uiso   1.00
C5     C     0.31946   0.47586   0.85874   0.00000  Uiso   1.00
C6     C     0.85867   0.62546   0.77017   0.00000  Uiso   1.00
C7     C     0.00579   0.62379   0.92569   0.00000  Uiso   1.00
C8     C     0.05845   0.66090   0.91371   0.00000  Uiso   1.00
C9     C     0.19702   0.71237   0.96505   0.00000  Uiso   1.00
C10    C     0.70987   0.61806   0.77575   0.00000  Uiso   1.00
C11    C     0.73190   0.61018   0.93600   0.00000  Uiso   1.00
C12    C     0.65931   0.64107   0.92874   0.00000  Uiso   1.00
C13    C     0.56684   0.68106   0.98873   0.00000  Uiso   1.00
C14    C     0.61034   0.65751   0.45522   0.00000  Uiso   1.00
C15    C     0.56020   0.60703   0.34725   0.00000  Uiso   1.00
C16    C     0.43844   0.59719   0.11542   0.00000  Uiso   1.00
C17    C     0.41116   0.54857   0.05098   0.00000  Uiso   1.00
C18    C     0.76740   0.66286   0.60844   0.00000  Uiso   1.00
C19    C     0.81986   0.69998   0.59624   0.00000  Uiso   1.00
C20    C     0.96702   0.69837   0.75168   0.00000  Uiso   1.00
C21    C     0.61859   0.65547   0.61401   0.00000  Uiso   1.00
C22    C     0.54597   0.68638   0.60652   0.00000  Uiso   1.00
C23    C     0.56788   0.67855   0.76671   0.00000  Uiso   1.00
H24    H     0.84946   0.55953   0.87892   0.00000  Uiso   1.00
H25    H     0.69504   0.49206   0.57010   0.00000  Uiso   1.00
H26    H     0.07640   0.59484   0.05085   0.00000  Uiso   1.00
H27    H     0.80254   0.58123   0.06113   0.00000  Uiso   1.00
H28    H     0.48361   0.43376   0.15638   0.00000  Uiso   1.00
H29    H     0.28774   0.65048   0.17013   0.00000  Uiso   1.00
H30    H     0.71028   0.62180   0.19182   0.00000  Uiso   1.00
H31    H     0.53928   0.68664   0.32929   0.00000  Uiso   1.00
H32    H     0.36783   0.62615   0.99030   0.00000  Uiso   1.00
H33    H     0.74920   0.72893   0.47106   0.00000  Uiso   1.00
H34    H     0.47534   0.71532   0.48134   0.00000  Uiso   1.00
H35    H     0.21804   0.54259   0.68580   0.00000  Uiso   1.00
H36    H     0.02218   0.75932   0.69956   0.00000  Uiso   1.00
H37    H     0.44471   0.73062   0.72124   0.00000  Uiso   1.00
O38    O     0.24367   0.44609   0.70801   0.00000  Uiso   1.00
O39    O     0.29867   0.73043   0.03803   0.00000  Uiso   1.00
O40    O     0.54103   0.69279   0.06648   0.00000  Uiso   1.00
N41    N     0.44462   0.46767   0.09215   0.00000  Uiso   1.00
N42    N     0.19644   0.67029   0.03992   0.00000  Uiso   1.00
N43    N     0.65658   0.64348   0.06024   0.00000  Uiso   1.00
N44    N     0.30172   0.52623   0.83894   0.00000  Uiso   1.00
N45    N     0.05353   0.72885   0.78670   0.00000  Uiso   1.00
N46    N     0.51368   0.70204   0.80702   0.00000  Uiso   1.00
C47    C     0.22161   0.08865   0.74701   0.00000  Uiso   1.00
C48    C     0.34853   0.06962   0.99101   0.00000  Uiso   1.00
C49    C     0.37563   0.02100   0.05512   0.00000  Uiso   1.00
C50    C     0.49739   0.01109   0.28699   0.00000  Uiso   1.00
C51    C     0.68054   0.97586   0.64126   0.00000  Uiso   1.00
C52    C     0.14133   0.12546   0.72983   0.00000  Uiso   1.00
C53    C     0.99421   0.12379   0.57431   0.00000  Uiso   1.00
C54    C     0.94155   0.16090   0.58629   0.00000  Uiso   1.00
C55    C     0.80298   0.21237   0.53495   0.00000  Uiso   1.00
C56    C     0.29013   0.11806   0.72425   0.00000  Uiso   1.00
C57    C     0.26810   0.11018   0.56400   0.00000  Uiso   1.00
C58    C     0.34069   0.14107   0.57126   0.00000  Uiso   1.00
C59    C     0.43316   0.18106   0.51127   0.00000  Uiso   1.00
C60    C     0.38966   0.15751   0.04478   0.00000  Uiso   1.00
C61    C     0.43980   0.10703   0.15275   0.00000  Uiso   1.00
C62    C     0.56156   0.09719   0.38458   0.00000  Uiso   1.00
C63    C     0.58884   0.04857   0.44902   0.00000  Uiso   1.00
C64    C     0.23260   0.16286   0.89156   0.00000  Uiso   1.00
C65    C     0.18014   0.19998   0.90376   0.00000  Uiso   1.00
C66    C     0.03298   0.19837   0.74832   0.00000  Uiso   1.00
C67    C     0.38141   0.15547   0.88599   0.00000  Uiso   1.00
C68    C     0.45403   0.18638   0.89348   0.00000  Uiso   1.00
C69    C     0.43212   0.17855   0.73329   0.00000  Uiso   1.00
H70    H     0.15054   0.05953   0.62108   0.00000  Uiso   1.00
H71    H     0.30496   0.99206   0.92990   0.00000  Uiso   1.00
H72    H     0.92360   0.09484   0.44915   0.00000  Uiso   1.00
H73    H     0.19746   0.08123   0.43887   0.00000  Uiso   1.00
H74    H     0.51639   0.93376   0.34362   0.00000  Uiso   1.00
H75    H     0.71226   0.15048   0.32987   0.00000  Uiso   1.00
H76    H     0.28972   0.12180   0.30818   0.00000  Uiso   1.00
H77    H     0.46072   0.18664   0.17071   0.00000  Uiso   1.00
H78    H     0.63217   0.12615   0.50970   0.00000  Uiso   1.00
H79    H     0.25080   0.22893   0.02894   0.00000  Uiso   1.00
H80    H     0.52466   0.21532   0.01866   0.00000  Uiso   1.00
H81    H     0.78196   0.04259   0.81420   0.00000  Uiso   1.00
H82    H     0.97782   0.25932   0.80044   0.00000  Uiso   1.00
H83    H     0.55529   0.23062   0.77876   0.00000  Uiso   1.00
O84    O     0.75633   0.94609   0.79199   0.00000  Uiso   1.00
O85    O     0.70133   0.23043   0.46197   0.00000  Uiso   1.00
O86    O     0.45897   0.19279   0.43352   0.00000  Uiso   1.00
N87    N     0.55538   0.96767   0.40785   0.00000  Uiso   1.00
N88    N     0.80356   0.17029   0.46008   0.00000  Uiso   1.00
N89    N     0.34342   0.14348   0.43976   0.00000  Uiso   1.00
N90    N     0.69828   0.02623   0.66106   0.00000  Uiso   1.00
N91    N     0.94647   0.22885   0.71330   0.00000  Uiso   1.00
N92    N     0.48632   0.20204   0.69298   0.00000  Uiso   1.00
C93    C     0.22161   0.41135   0.24701   0.00000  Uiso   1.00
C94    C     0.34853   0.43038   0.49101   0.00000  Uiso   1.00
C95    C     0.37563   0.47900   0.55512   0.00000  Uiso   1.00
C96    C     0.49739   0.48891   0.78699   0.00000  Uiso   1.00
C97    C     0.68054   0.52414   0.14126   0.00000  Uiso   1.00
C98    C     0.14133   0.37454   0.22983   0.00000  Uiso   1.00
C99    C     0.99421   0.37621   0.07431   0.00000  Uiso   1.00
C100   C     0.94155   0.33910   0.08629   0.00000  Uiso   1.00
C101   C     0.80298   0.28763   0.03495   0.00000  Uiso   1.00
C102   C     0.29013   0.38194   0.22425   0.00000  Uiso   1.00
C103   C     0.26810   0.38982   0.06400   0.00000  Uiso   1.00
C104   C     0.34069   0.35893   0.07126   0.00000  Uiso   1.00
C105   C     0.43316   0.31894   0.01127   0.00000  Uiso   1.00
C106   C     0.38966   0.34249   0.54478   0.00000  Uiso   1.00
C107   C     0.43980   0.39297   0.65275   0.00000  Uiso   1.00
C108   C     0.56156   0.40281   0.88458   0.00000  Uiso   1.00
C109   C     0.58884   0.45143   0.94902   0.00000  Uiso   1.00
C110   C     0.23260   0.33714   0.39156   0.00000  Uiso   1.00
C111   C     0.18014   0.30002   0.40376   0.00000  Uiso   1.00
C112   C     0.03298   0.30163   0.24832   0.00000  Uiso   1.00
C113   C     0.38141   0.34453   0.38599   0.00000  Uiso   1.00
C114   C     0.45403   0.31362   0.39348   0.00000  Uiso   1.00
C115   C     0.43212   0.32145   0.23329   0.00000  Uiso   1.00
H116   H     0.15054   0.44047   0.12108   0.00000  Uiso   1.00
H117   H     0.30496   0.50794   0.42990   0.00000  Uiso   1.00
H118   H     0.92360   0.40516   0.94915   0.00000  Uiso   1.00
H119   H     0.19746   0.41877   0.93887   0.00000  Uiso   1.00
H120   H     0.51639   0.56624   0.84362   0.00000  Uiso   1.00
H121   H     0.71226   0.34952   0.82987   0.00000  Uiso   1.00
H122   H     0.28972   0.37820   0.80818   0.00000  Uiso   1.00
H123   H     0.46072   0.31336   0.67071   0.00000  Uiso   1.00
H124   H     0.63217   0.37385   0.00970   0.00000  Uiso   1.00
H125   H     0.25080   0.27107   0.52894   0.00000  Uiso   1.00
H126   H     0.52466   0.28468   0.51866   0.00000  Uiso   1.00
H127   H     0.78196   0.45741   0.31420   0.00000  Uiso   1.00
H128   H     0.97782   0.24068   0.30044   0.00000  Uiso   1.00
H129   H     0.55529   0.26938   0.27876   0.00000  Uiso   1.00
O130   O     0.75633   0.55391   0.29199   0.00000  Uiso   1.00
O131   O     0.70133   0.26957   0.96197   0.00000  Uiso   1.00
O132   O     0.45897   0.30721   0.93352   0.00000  Uiso   1.00
N133   N     0.55538   0.53233   0.90785   0.00000  Uiso   1.00
N134   N     0.80356   0.32971   0.96008   0.00000  Uiso   1.00
N135   N     0.34342   0.35652   0.93976   0.00000  Uiso   1.00
N136   N     0.69828   0.47377   0.16106   0.00000  Uiso   1.00
N137   N     0.94647   0.27115   0.21330   0.00000  Uiso   1.00
N138   N     0.48632   0.29796   0.19298   0.00000  Uiso   1.00
C139   C     0.77839   0.91135   0.25299   0.00000  Uiso   1.00
C140   C     0.65147   0.93038   0.00899   0.00000  Uiso   1.00
C141   C     0.62437   0.97900   0.94488   0.00000  Uiso   1.00
C142   C     0.50261   0.98891   0.71301   0.00000  Uiso   1.00
C143   C     0.31946   0.02414   0.35874   0.00000  Uiso   1.00
C144   C     0.85867   0.87454   0.27017   0.00000  Uiso   1.00
C145   C     0.00579   0.87621   0.42569   0.00000  Uiso   1.00
C146   C     0.05845   0.83910   0.41371   0.00000  Uiso   1.00
C147   C     0.19702   0.78763   0.46505   0.00000  Uiso   1.00
C148   C     0.70987   0.88194   0.27575   0.00000  Uiso   1.00
C149   C     0.73190   0.88982   0.43600   0.00000  Uiso   1.00
C150   C     0.65931   0.85893   0.42874   0.00000  Uiso   1.00
C151   C     0.56684   0.81894   0.48873   0.00000  Uiso   1.00
C152   C     0.61034   0.84249   0.95522   0.00000  Uiso   1.00
C153   C     0.56020   0.89297   0.84725   0.00000  Uiso   1.00
C154   C     0.43844   0.90281   0.61542   0.00000  Uiso   1.00
C155   C     0.41116   0.95143   0.55098   0.00000  Uiso   1.00
C156   C     0.76740   0.83714   0.10844   0.00000  Uiso   1.00
C157   C     0.81986   0.80002   0.09624   0.00000  Uiso   1.00
C158   C     0.96702   0.80163   0.25168   0.00000  Uiso   1.00
C159   C     0.61859   0.84453   0.11401   0.00000  Uiso   1.00
C160   C     0.54597   0.81362   0.10652   0.00000  Uiso   1.00
C161   C     0.56788   0.82145   0.26671   0.00000  Uiso   1.00
H162   H     0.84946   0.94047   0.37892   0.00000  Uiso   1.00
H163   H     0.69504   0.00794   0.07010   0.00000  Uiso   1.00
H164   H     0.07640   0.90516   0.55085   0.00000  Uiso   1.00
H165   H     0.80254   0.91877   0.56113   0.00000  Uiso   1.00
H166   H     0.48361   0.06624   0.65638   0.00000  Uiso   1.00
H167   H     0.28774   0.84952   0.67013   0.00000  Uiso   1.00
H168   H     0.71028   0.87820   0.69182   0.00000  Uiso   1.00
H169   H     0.53928   0.81336   0.82929   0.00000  Uiso   1.00
H170   H     0.36783   0.87385   0.49030   0.00000  Uiso   1.00
H171   H     0.74920   0.77107   0.97106   0.00000  Uiso   1.00
H172   H     0.47534   0.78468   0.98134   0.00000  Uiso   1.00
H173   H     0.21804   0.95741   0.18580   0.00000  Uiso   1.00
H174   H     0.02218   0.74068   0.19956   0.00000  Uiso   1.00
H175   H     0.44471   0.76938   0.22124   0.00000  Uiso   1.00
O176   O     0.24367   0.05391   0.20801   0.00000  Uiso   1.00
O177   O     0.29867   0.76957   0.53803   0.00000  Uiso   1.00
O178   O     0.54103   0.80721   0.56648   0.00000  Uiso   1.00
N179   N     0.44462   0.03233   0.59215   0.00000  Uiso   1.00
N180   N     0.19644   0.82971   0.53992   0.00000  Uiso   1.00
N181   N     0.65658   0.85652   0.56024   0.00000  Uiso   1.00
N182   N     0.30172   0.97377   0.33894   0.00000  Uiso   1.00
N183   N     0.05353   0.77115   0.28670   0.00000  Uiso   1.00
N184   N     0.51368   0.79796   0.30702   0.00000  Uiso   1.00
