data_job_04316
_audit_creation_date              2018-12-19
_audit_creation_method            'Materials Studio'
_symmetry_space_group_name_H-M    'P1'
_symmetry_Int_Tables_number       1
_symmetry_cell_setting            triclinic
loop_
_symmetry_equiv_pos_as_xyz
  x,y,z
_cell_length_a                    7.1494
_cell_length_b                    23.7723
_cell_length_c                    28.9557
_cell_angle_alpha                 90.0000
_cell_angle_beta                  110.7114
_cell_angle_gamma                 90.0000
loop_
_atom_site_label
_atom_site_type_symbol
_atom_site_fract_x
_atom_site_fract_y
_atom_site_fract_z
_atom_site_U_iso_or_equiv
_atom_site_adp_type
_atom_site_occupancy
C1     C     0.88202   0.52948   0.09328   0.00000  Uiso   1.00
C2     C     0.98847   0.58142   0.12130   0.00000  Uiso   1.00
C3     C     0.89899   0.62514   0.13760   0.00000  Uiso   1.00
C4     C     0.02215   0.66887   0.16254   0.00000  Uiso   1.00
C5     C     0.15620   0.74954   0.20476   0.00000  Uiso   1.00
C6     C     0.92656   0.52799   0.04553   0.00000  Uiso   1.00
C7     C     0.78502   0.52678   0.99813   0.00000  Uiso   1.00
C8     C     0.85608   0.52552   0.95929   0.00000  Uiso   1.00
C9     C     0.89401   0.52320   0.88389   0.00000  Uiso   1.00
C10    C     0.98997   0.47897   0.12349   0.00000  Uiso   1.00
C11    C     0.90174   0.43652   0.14162   0.00000  Uiso   1.00
C12    C     0.02619   0.39398   0.16841   0.00000  Uiso   1.00
C13    C     0.16257   0.31554   0.21404   0.00000  Uiso   1.00
C14    C     0.25988   0.52939   0.10858   0.00000  Uiso   1.00
C15    C     0.19371   0.58137   0.12961   0.00000  Uiso   1.00
C16    C     0.31704   0.62504   0.15453   0.00000  Uiso   1.00
C17    C     0.22776   0.66882   0.17087   0.00000  Uiso   1.00
C18    C     0.13179   0.52794   0.05384   0.00000  Uiso   1.00
C19    C     0.20308   0.52668   0.01507   0.00000  Uiso   1.00
C20    C     0.06169   0.52547   0.96762   0.00000  Uiso   1.00
C21    C     0.19521   0.47892   0.13180   0.00000  Uiso   1.00
C22    C     0.31981   0.43643   0.15856   0.00000  Uiso   1.00
C23    C     0.23179   0.39393   0.17673   0.00000  Uiso   1.00
H24    H     0.72223   0.52952   0.08680   0.00000  Uiso   1.00
H25    H     0.74014   0.62516   0.13116   0.00000  Uiso   1.00
H26    H     0.62621   0.52681   0.99171   0.00000  Uiso   1.00
H27    H     0.74292   0.43657   0.13518   0.00000  Uiso   1.00
H28    H     0.85050   0.73120   0.18398   0.00000  Uiso   1.00
H29    H     0.61025   0.52380   0.88995   0.00000  Uiso   1.00
H30    H     0.85635   0.33351   0.19249   0.00000  Uiso   1.00
H31    H     0.41967   0.52935   0.11505   0.00000  Uiso   1.00
H32    H     0.47586   0.62499   0.16096   0.00000  Uiso   1.00
H33    H     0.36191   0.52664   0.02151   0.00000  Uiso   1.00
H34    H     0.47863   0.43640   0.16498   0.00000  Uiso   1.00
H35    H     0.44763   0.73106   0.20817   0.00000  Uiso   1.00
H36    H     0.20738   0.52366   0.91414   0.00000  Uiso   1.00
H37    H     0.45349   0.33337   0.21668   0.00000  Uiso   1.00
O38    O     0.17343   0.79406   0.22575   0.00000  Uiso   1.00
O39    O     0.85823   0.52194   0.84000   0.00000  Uiso   1.00
O40    O     0.18111   0.27229   0.23692   0.00000  Uiso   1.00
N41    N     0.98333   0.71803   0.18338   0.00000  Uiso   1.00
N42    N     0.75871   0.52414   0.90848   0.00000  Uiso   1.00
N43    N     0.98879   0.34622   0.19132   0.00000  Uiso   1.00
N44    N     0.30464   0.71796   0.19640   0.00000  Uiso   1.00
N45    N     0.08002   0.52406   0.92150   0.00000  Uiso   1.00
N46    N     0.31010   0.34615   0.20433   0.00000  Uiso   1.00
C47    C     0.04045   0.77470   0.37782   0.00000  Uiso   1.00
C48    C     0.93402   0.82709   0.35067   0.00000  Uiso   1.00
C49    C     0.02345   0.87134   0.33501   0.00000  Uiso   1.00
C50    C     0.90032   0.91542   0.31081   0.00000  Uiso   1.00
C51    C     0.76629   0.99683   0.26993   0.00000  Uiso   1.00
C52    C     0.99635   0.77202   0.42559   0.00000  Uiso   1.00
C53    C     0.13819   0.76996   0.47293   0.00000  Uiso   1.00
C54    C     0.06752   0.76767   0.51180   0.00000  Uiso   1.00
C55    C     0.03026   0.76353   0.58723   0.00000  Uiso   1.00
C56    C     0.93214   0.72471   0.34684   0.00000  Uiso   1.00
C57    C     0.01999   0.68285   0.32797   0.00000  Uiso   1.00
C58    C     0.89526   0.64071   0.30055   0.00000  Uiso   1.00
C59    C     0.75831   0.56311   0.25371   0.00000  Uiso   1.00
C60    C     0.66274   0.77430   0.36270   0.00000  Uiso   1.00
C61    C     0.72887   0.82688   0.34246   0.00000  Uiso   1.00
C62    C     0.60556   0.87090   0.31828   0.00000  Uiso   1.00
C63    C     0.69479   0.91521   0.30259   0.00000  Uiso   1.00
C64    C     0.79120   0.77180   0.41738   0.00000  Uiso   1.00
C65    C     0.72031   0.76951   0.45620   0.00000  Uiso   1.00
C66    C     0.86200   0.76745   0.50358   0.00000  Uiso   1.00
C67    C     0.72698   0.72449   0.33863   0.00000  Uiso   1.00
C68    C     0.60210   0.68241   0.31124   0.00000  Uiso   1.00
C69    C     0.68974   0.64050   0.29233   0.00000  Uiso   1.00
H70    H     0.20017   0.77487   0.38422   0.00000  Uiso   1.00
H71    H     0.18223   0.87150   0.34137   0.00000  Uiso   1.00
H72    H     0.29694   0.77012   0.47927   0.00000  Uiso   1.00
H73    H     0.17875   0.68303   0.33433   0.00000  Uiso   1.00
H74    H     0.07187   0.97854   0.29027   0.00000  Uiso   1.00
H75    H     0.31376   0.76476   0.58103   0.00000  Uiso   1.00
H76    H     0.06454   0.58111   0.27541   0.00000  Uiso   1.00
H77    H     0.50302   0.77413   0.35631   0.00000  Uiso   1.00
H78    H     0.44681   0.87072   0.31193   0.00000  Uiso   1.00
H79    H     0.56153   0.76934   0.44983   0.00000  Uiso   1.00
H80    H     0.44335   0.68225   0.30489   0.00000  Uiso   1.00
H81    H     0.47498   0.97792   0.26638   0.00000  Uiso   1.00
H82    H     0.71687   0.76413   0.55713   0.00000  Uiso   1.00
H83    H     0.46765   0.58049   0.25151   0.00000  Uiso   1.00
O84    O     0.74904   0.04179   0.24965   0.00000  Uiso   1.00
O85    O     0.06639   0.76131   0.63111   0.00000  Uiso   1.00
O86    O     0.73943   0.52037   0.23014   0.00000  Uiso   1.00
N87    N     0.93910   0.96513   0.29073   0.00000  Uiso   1.00
N88    N     0.16525   0.76527   0.56257   0.00000  Uiso   1.00
N89    N     0.93227   0.59357   0.27685   0.00000  Uiso   1.00
N90    N     0.61792   0.96480   0.27787   0.00000  Uiso   1.00
N91    N     0.84407   0.76494   0.54971   0.00000  Uiso   1.00
N92    N     0.61108   0.59323   0.26399   0.00000  Uiso   1.00
C93    C     0.38202   0.02948   0.09328   0.00000  Uiso   1.00
C94    C     0.48847   0.08142   0.12130   0.00000  Uiso   1.00
C95    C     0.39899   0.12514   0.13760   0.00000  Uiso   1.00
C96    C     0.52215   0.16887   0.16254   0.00000  Uiso   1.00
C97    C     0.65620   0.24954   0.20476   0.00000  Uiso   1.00
C98    C     0.42656   0.02799   0.04553   0.00000  Uiso   1.00
C99    C     0.28502   0.02678   0.99813   0.00000  Uiso   1.00
C100   C     0.35608   0.02552   0.95929   0.00000  Uiso   1.00
C101   C     0.39401   0.02320   0.88389   0.00000  Uiso   1.00
C102   C     0.48997   0.97897   0.12349   0.00000  Uiso   1.00
C103   C     0.40174   0.93652   0.14162   0.00000  Uiso   1.00
C104   C     0.52619   0.89398   0.16841   0.00000  Uiso   1.00
C105   C     0.66257   0.81554   0.21404   0.00000  Uiso   1.00
C106   C     0.75988   0.02939   0.10858   0.00000  Uiso   1.00
C107   C     0.69371   0.08137   0.12961   0.00000  Uiso   1.00
C108   C     0.81704   0.12504   0.15453   0.00000  Uiso   1.00
C109   C     0.72776   0.16882   0.17087   0.00000  Uiso   1.00
C110   C     0.63179   0.02794   0.05384   0.00000  Uiso   1.00
C111   C     0.70308   0.02668   0.01507   0.00000  Uiso   1.00
C112   C     0.56169   0.02547   0.96762   0.00000  Uiso   1.00
C113   C     0.69521   0.97892   0.13180   0.00000  Uiso   1.00
C114   C     0.81981   0.93643   0.15856   0.00000  Uiso   1.00
C115   C     0.73179   0.89393   0.17673   0.00000  Uiso   1.00
H116   H     0.22223   0.02952   0.08680   0.00000  Uiso   1.00
H117   H     0.24014   0.12516   0.13116   0.00000  Uiso   1.00
H118   H     0.12621   0.02681   0.99171   0.00000  Uiso   1.00
H119   H     0.24292   0.93657   0.13518   0.00000  Uiso   1.00
H120   H     0.35050   0.23120   0.18398   0.00000  Uiso   1.00
H121   H     0.11025   0.02380   0.88995   0.00000  Uiso   1.00
H122   H     0.35635   0.83351   0.19249   0.00000  Uiso   1.00
H123   H     0.91967   0.02935   0.11505   0.00000  Uiso   1.00
H124   H     0.97586   0.12499   0.16096   0.00000  Uiso   1.00
H125   H     0.86191   0.02664   0.02151   0.00000  Uiso   1.00
H126   H     0.97863   0.93640   0.16498   0.00000  Uiso   1.00
H127   H     0.94763   0.23106   0.20817   0.00000  Uiso   1.00
H128   H     0.70738   0.02366   0.91414   0.00000  Uiso   1.00
H129   H     0.95349   0.83337   0.21668   0.00000  Uiso   1.00
O130   O     0.67343   0.29406   0.22575   0.00000  Uiso   1.00
O131   O     0.35823   0.02194   0.84000   0.00000  Uiso   1.00
O132   O     0.68111   0.77229   0.23692   0.00000  Uiso   1.00
N133   N     0.48333   0.21803   0.18338   0.00000  Uiso   1.00
N134   N     0.25871   0.02414   0.90848   0.00000  Uiso   1.00
N135   N     0.48879   0.84622   0.19132   0.00000  Uiso   1.00
N136   N     0.80464   0.21796   0.19640   0.00000  Uiso   1.00
N137   N     0.58002   0.02406   0.92150   0.00000  Uiso   1.00
N138   N     0.81010   0.84615   0.20433   0.00000  Uiso   1.00
C139   C     0.54045   0.27470   0.37782   0.00000  Uiso   1.00
C140   C     0.43402   0.32709   0.35067   0.00000  Uiso   1.00
C141   C     0.52345   0.37134   0.33501   0.00000  Uiso   1.00
C142   C     0.40032   0.41542   0.31081   0.00000  Uiso   1.00
C143   C     0.26629   0.49683   0.26993   0.00000  Uiso   1.00
C144   C     0.49635   0.27202   0.42559   0.00000  Uiso   1.00
C145   C     0.63819   0.26996   0.47293   0.00000  Uiso   1.00
C146   C     0.56752   0.26767   0.51180   0.00000  Uiso   1.00
C147   C     0.53026   0.26353   0.58723   0.00000  Uiso   1.00
C148   C     0.43214   0.22471   0.34684   0.00000  Uiso   1.00
C149   C     0.51999   0.18285   0.32797   0.00000  Uiso   1.00
C150   C     0.39526   0.14071   0.30055   0.00000  Uiso   1.00
C151   C     0.25831   0.06311   0.25371   0.00000  Uiso   1.00
C152   C     0.16274   0.27430   0.36270   0.00000  Uiso   1.00
C153   C     0.22887   0.32688   0.34246   0.00000  Uiso   1.00
C154   C     0.10556   0.37090   0.31828   0.00000  Uiso   1.00
C155   C     0.19479   0.41521   0.30259   0.00000  Uiso   1.00
C156   C     0.29120   0.27180   0.41738   0.00000  Uiso   1.00
C157   C     0.22031   0.26951   0.45620   0.00000  Uiso   1.00
C158   C     0.36200   0.26745   0.50358   0.00000  Uiso   1.00
C159   C     0.22698   0.22449   0.33863   0.00000  Uiso   1.00
C160   C     0.10210   0.18241   0.31124   0.00000  Uiso   1.00
C161   C     0.18974   0.14050   0.29233   0.00000  Uiso   1.00
H162   H     0.70017   0.27487   0.38422   0.00000  Uiso   1.00
H163   H     0.68223   0.37150   0.34137   0.00000  Uiso   1.00
H164   H     0.79694   0.27012   0.47927   0.00000  Uiso   1.00
H165   H     0.67875   0.18303   0.33433   0.00000  Uiso   1.00
H166   H     0.57187   0.47854   0.29027   0.00000  Uiso   1.00
H167   H     0.81376   0.26476   0.58103   0.00000  Uiso   1.00
H168   H     0.56454   0.08111   0.27541   0.00000  Uiso   1.00
H169   H     0.00302   0.27413   0.35631   0.00000  Uiso   1.00
H170   H     0.94681   0.37072   0.31193   0.00000  Uiso   1.00
H171   H     0.06153   0.26934   0.44983   0.00000  Uiso   1.00
H172   H     0.94335   0.18225   0.30489   0.00000  Uiso   1.00
H173   H     0.97498   0.47792   0.26638   0.00000  Uiso   1.00
H174   H     0.21687   0.26413   0.55713   0.00000  Uiso   1.00
H175   H     0.96765   0.08049   0.25151   0.00000  Uiso   1.00
O176   O     0.24904   0.54179   0.24965   0.00000  Uiso   1.00
O177   O     0.56639   0.26131   0.63111   0.00000  Uiso   1.00
O178   O     0.23943   0.02037   0.23014   0.00000  Uiso   1.00
N179   N     0.43910   0.46513   0.29073   0.00000  Uiso   1.00
N180   N     0.66525   0.26527   0.56257   0.00000  Uiso   1.00
N181   N     0.43227   0.09357   0.27685   0.00000  Uiso   1.00
N182   N     0.11792   0.46480   0.27787   0.00000  Uiso   1.00
N183   N     0.34407   0.26494   0.54971   0.00000  Uiso   1.00
N184   N     0.11108   0.09323   0.26399   0.00000  Uiso   1.00
C185   C     0.88202   0.47052   0.59328   0.00000  Uiso   1.00
C186   C     0.98847   0.41858   0.62130   0.00000  Uiso   1.00
C187   C     0.89899   0.37486   0.63760   0.00000  Uiso   1.00
C188   C     0.02215   0.33113   0.66254   0.00000  Uiso   1.00
C189   C     0.15620   0.25046   0.70476   0.00000  Uiso   1.00
C190   C     0.92656   0.47201   0.54553   0.00000  Uiso   1.00
C191   C     0.78502   0.47322   0.49813   0.00000  Uiso   1.00
C192   C     0.85608   0.47448   0.45929   0.00000  Uiso   1.00
C193   C     0.89401   0.47680   0.38389   0.00000  Uiso   1.00
C194   C     0.98997   0.52103   0.62349   0.00000  Uiso   1.00
C195   C     0.90174   0.56348   0.64162   0.00000  Uiso   1.00
C196   C     0.02619   0.60602   0.66841   0.00000  Uiso   1.00
C197   C     0.16257   0.68446   0.71404   0.00000  Uiso   1.00
C198   C     0.25988   0.47061   0.60858   0.00000  Uiso   1.00
C199   C     0.19371   0.41863   0.62961   0.00000  Uiso   1.00
C200   C     0.31704   0.37496   0.65453   0.00000  Uiso   1.00
C201   C     0.22776   0.33118   0.67087   0.00000  Uiso   1.00
C202   C     0.13179   0.47206   0.55384   0.00000  Uiso   1.00
C203   C     0.20308   0.47332   0.51507   0.00000  Uiso   1.00
C204   C     0.06169   0.47453   0.46762   0.00000  Uiso   1.00
C205   C     0.19521   0.52108   0.63180   0.00000  Uiso   1.00
C206   C     0.31981   0.56357   0.65856   0.00000  Uiso   1.00
C207   C     0.23179   0.60607   0.67673   0.00000  Uiso   1.00
H208   H     0.72223   0.47048   0.58680   0.00000  Uiso   1.00
H209   H     0.74014   0.37484   0.63116   0.00000  Uiso   1.00
H210   H     0.62621   0.47319   0.49171   0.00000  Uiso   1.00
H211   H     0.74292   0.56343   0.63518   0.00000  Uiso   1.00
H212   H     0.85050   0.26880   0.68398   0.00000  Uiso   1.00
H213   H     0.61025   0.47620   0.38995   0.00000  Uiso   1.00
H214   H     0.85635   0.66649   0.69249   0.00000  Uiso   1.00
H215   H     0.41967   0.47065   0.61505   0.00000  Uiso   1.00
H216   H     0.47586   0.37501   0.66096   0.00000  Uiso   1.00
H217   H     0.36191   0.47336   0.52151   0.00000  Uiso   1.00
H218   H     0.47863   0.56360   0.66498   0.00000  Uiso   1.00
H219   H     0.44763   0.26894   0.70817   0.00000  Uiso   1.00
H220   H     0.20738   0.47634   0.41414   0.00000  Uiso   1.00
H221   H     0.45349   0.66663   0.71668   0.00000  Uiso   1.00
O222   O     0.17343   0.20594   0.72575   0.00000  Uiso   1.00
O223   O     0.85823   0.47806   0.34000   0.00000  Uiso   1.00
O224   O     0.18111   0.72771   0.73692   0.00000  Uiso   1.00
N225   N     0.98333   0.28197   0.68338   0.00000  Uiso   1.00
N226   N     0.75871   0.47586   0.40848   0.00000  Uiso   1.00
N227   N     0.98879   0.65378   0.69132   0.00000  Uiso   1.00
N228   N     0.30464   0.28204   0.69640   0.00000  Uiso   1.00
N229   N     0.08002   0.47594   0.42150   0.00000  Uiso   1.00
N230   N     0.31010   0.65385   0.70433   0.00000  Uiso   1.00
C231   C     0.04045   0.22530   0.87782   0.00000  Uiso   1.00
C232   C     0.93402   0.17291   0.85067   0.00000  Uiso   1.00
C233   C     0.02345   0.12866   0.83501   0.00000  Uiso   1.00
C234   C     0.90032   0.08458   0.81081   0.00000  Uiso   1.00
C235   C     0.76629   0.00317   0.76993   0.00000  Uiso   1.00
C236   C     0.99635   0.22798   0.92559   0.00000  Uiso   1.00
C237   C     0.13819   0.23004   0.97293   0.00000  Uiso   1.00
C238   C     0.06752   0.23233   0.01180   0.00000  Uiso   1.00
C239   C     0.03026   0.23647   0.08723   0.00000  Uiso   1.00
C240   C     0.93214   0.27529   0.84684   0.00000  Uiso   1.00
C241   C     0.01999   0.31715   0.82797   0.00000  Uiso   1.00
C242   C     0.89526   0.35929   0.80055   0.00000  Uiso   1.00
C243   C     0.75831   0.43689   0.75371   0.00000  Uiso   1.00
C244   C     0.66274   0.22570   0.86270   0.00000  Uiso   1.00
C245   C     0.72887   0.17312   0.84246   0.00000  Uiso   1.00
C246   C     0.60556   0.12910   0.81828   0.00000  Uiso   1.00
C247   C     0.69479   0.08479   0.80259   0.00000  Uiso   1.00
C248   C     0.79120   0.22820   0.91738   0.00000  Uiso   1.00
C249   C     0.72031   0.23049   0.95620   0.00000  Uiso   1.00
C250   C     0.86200   0.23255   0.00358   0.00000  Uiso   1.00
C251   C     0.72698   0.27551   0.83863   0.00000  Uiso   1.00
C252   C     0.60210   0.31759   0.81124   0.00000  Uiso   1.00
C253   C     0.68974   0.35950   0.79233   0.00000  Uiso   1.00
H254   H     0.20017   0.22513   0.88422   0.00000  Uiso   1.00
H255   H     0.18223   0.12850   0.84137   0.00000  Uiso   1.00
H256   H     0.29694   0.22988   0.97927   0.00000  Uiso   1.00
H257   H     0.17875   0.31697   0.83433   0.00000  Uiso   1.00
H258   H     0.07187   0.02146   0.79027   0.00000  Uiso   1.00
H259   H     0.31376   0.23524   0.08103   0.00000  Uiso   1.00
H260   H     0.06454   0.41889   0.77541   0.00000  Uiso   1.00
H261   H     0.50302   0.22587   0.85631   0.00000  Uiso   1.00
H262   H     0.44681   0.12928   0.81193   0.00000  Uiso   1.00
H263   H     0.56153   0.23066   0.94983   0.00000  Uiso   1.00
H264   H     0.44335   0.31775   0.80489   0.00000  Uiso   1.00
H265   H     0.47498   0.02208   0.76638   0.00000  Uiso   1.00
H266   H     0.71687   0.23587   0.05713   0.00000  Uiso   1.00
H267   H     0.46765   0.41951   0.75151   0.00000  Uiso   1.00
O268   O     0.74904   0.95821   0.74965   0.00000  Uiso   1.00
O269   O     0.06639   0.23869   0.13111   0.00000  Uiso   1.00
O270   O     0.73943   0.47963   0.73014   0.00000  Uiso   1.00
N271   N     0.93910   0.03487   0.79073   0.00000  Uiso   1.00
N272   N     0.16525   0.23473   0.06257   0.00000  Uiso   1.00
N273   N     0.93227   0.40643   0.77685   0.00000  Uiso   1.00
N274   N     0.61792   0.03520   0.77787   0.00000  Uiso   1.00
N275   N     0.84407   0.23506   0.04971   0.00000  Uiso   1.00
N276   N     0.61108   0.40677   0.76399   0.00000  Uiso   1.00
C277   C     0.38202   0.97052   0.59328   0.00000  Uiso   1.00
C278   C     0.48847   0.91858   0.62130   0.00000  Uiso   1.00
C279   C     0.39899   0.87486   0.63760   0.00000  Uiso   1.00
C280   C     0.52215   0.83113   0.66254   0.00000  Uiso   1.00
C281   C     0.65620   0.75046   0.70476   0.00000  Uiso   1.00
C282   C     0.42656   0.97201   0.54553   0.00000  Uiso   1.00
C283   C     0.28502   0.97322   0.49813   0.00000  Uiso   1.00
C284   C     0.35608   0.97448   0.45929   0.00000  Uiso   1.00
C285   C     0.39401   0.97680   0.38389   0.00000  Uiso   1.00
C286   C     0.48997   0.02103   0.62349   0.00000  Uiso   1.00
C287   C     0.40174   0.06348   0.64162   0.00000  Uiso   1.00
C288   C     0.52619   0.10602   0.66841   0.00000  Uiso   1.00
C289   C     0.66257   0.18446   0.71404   0.00000  Uiso   1.00
C290   C     0.75988   0.97061   0.60858   0.00000  Uiso   1.00
C291   C     0.69371   0.91863   0.62961   0.00000  Uiso   1.00
C292   C     0.81704   0.87496   0.65453   0.00000  Uiso   1.00
C293   C     0.72776   0.83118   0.67087   0.00000  Uiso   1.00
C294   C     0.63179   0.97206   0.55384   0.00000  Uiso   1.00
C295   C     0.70308   0.97332   0.51507   0.00000  Uiso   1.00
C296   C     0.56169   0.97453   0.46762   0.00000  Uiso   1.00
C297   C     0.69521   0.02108   0.63180   0.00000  Uiso   1.00
C298   C     0.81981   0.06357   0.65856   0.00000  Uiso   1.00
C299   C     0.73179   0.10607   0.67673   0.00000  Uiso   1.00
H300   H     0.22223   0.97048   0.58680   0.00000  Uiso   1.00
H301   H     0.24014   0.87484   0.63116   0.00000  Uiso   1.00
H302   H     0.12621   0.97319   0.49171   0.00000  Uiso   1.00
H303   H     0.24292   0.06343   0.63518   0.00000  Uiso   1.00
H304   H     0.35050   0.76880   0.68398   0.00000  Uiso   1.00
H305   H     0.11025   0.97620   0.38995   0.00000  Uiso   1.00
H306   H     0.35635   0.16649   0.69249   0.00000  Uiso   1.00
H307   H     0.91967   0.97065   0.61505   0.00000  Uiso   1.00
H308   H     0.97586   0.87501   0.66096   0.00000  Uiso   1.00
H309   H     0.86191   0.97336   0.52151   0.00000  Uiso   1.00
H310   H     0.97863   0.06360   0.66498   0.00000  Uiso   1.00
H311   H     0.94763   0.76894   0.70817   0.00000  Uiso   1.00
H312   H     0.70738   0.97634   0.41414   0.00000  Uiso   1.00
H313   H     0.95349   0.16663   0.71668   0.00000  Uiso   1.00
O314   O     0.67343   0.70594   0.72575   0.00000  Uiso   1.00
O315   O     0.35823   0.97806   0.34000   0.00000  Uiso   1.00
O316   O     0.68111   0.22771   0.73692   0.00000  Uiso   1.00
N317   N     0.48333   0.78197   0.68338   0.00000  Uiso   1.00
N318   N     0.25871   0.97586   0.40848   0.00000  Uiso   1.00
N319   N     0.48879   0.15378   0.69132   0.00000  Uiso   1.00
N320   N     0.80464   0.78204   0.69640   0.00000  Uiso   1.00
N321   N     0.58002   0.97594   0.42150   0.00000  Uiso   1.00
N322   N     0.81010   0.15385   0.70433   0.00000  Uiso   1.00
C323   C     0.54045   0.72530   0.87782   0.00000  Uiso   1.00
C324   C     0.43402   0.67291   0.85067   0.00000  Uiso   1.00
C325   C     0.52345   0.62866   0.83501   0.00000  Uiso   1.00
C326   C     0.40032   0.58458   0.81081   0.00000  Uiso   1.00
C327   C     0.26629   0.50317   0.76993   0.00000  Uiso   1.00
C328   C     0.49635   0.72798   0.92559   0.00000  Uiso   1.00
C329   C     0.63819   0.73004   0.97293   0.00000  Uiso   1.00
C330   C     0.56752   0.73233   0.01180   0.00000  Uiso   1.00
C331   C     0.53026   0.73647   0.08723   0.00000  Uiso   1.00
C332   C     0.43214   0.77529   0.84684   0.00000  Uiso   1.00
C333   C     0.51999   0.81715   0.82797   0.00000  Uiso   1.00
C334   C     0.39526   0.85929   0.80055   0.00000  Uiso   1.00
C335   C     0.25831   0.93689   0.75371   0.00000  Uiso   1.00
C336   C     0.16274   0.72570   0.86270   0.00000  Uiso   1.00
C337   C     0.22887   0.67312   0.84246   0.00000  Uiso   1.00
C338   C     0.10556   0.62910   0.81828   0.00000  Uiso   1.00
C339   C     0.19479   0.58479   0.80259   0.00000  Uiso   1.00
C340   C     0.29120   0.72820   0.91738   0.00000  Uiso   1.00
C341   C     0.22031   0.73049   0.95620   0.00000  Uiso   1.00
C342   C     0.36200   0.73255   0.00358   0.00000  Uiso   1.00
C343   C     0.22698   0.77551   0.83863   0.00000  Uiso   1.00
C344   C     0.10210   0.81759   0.81124   0.00000  Uiso   1.00
C345   C     0.18974   0.85950   0.79233   0.00000  Uiso   1.00
H346   H     0.70017   0.72513   0.88422   0.00000  Uiso   1.00
H347   H     0.68223   0.62850   0.84137   0.00000  Uiso   1.00
H348   H     0.79694   0.72988   0.97927   0.00000  Uiso   1.00
H349   H     0.67875   0.81697   0.83433   0.00000  Uiso   1.00
H350   H     0.57187   0.52146   0.79027   0.00000  Uiso   1.00
H351   H     0.81376   0.73524   0.08103   0.00000  Uiso   1.00
H352   H     0.56454   0.91889   0.77541   0.00000  Uiso   1.00
H353   H     0.00302   0.72587   0.85631   0.00000  Uiso   1.00
H354   H     0.94681   0.62928   0.81193   0.00000  Uiso   1.00
H355   H     0.06153   0.73066   0.94983   0.00000  Uiso   1.00
H356   H     0.94335   0.81775   0.80489   0.00000  Uiso   1.00
H357   H     0.97498   0.52208   0.76638   0.00000  Uiso   1.00
H358   H     0.21687   0.73587   0.05713   0.00000  Uiso   1.00
H359   H     0.96765   0.91951   0.75151   0.00000  Uiso   1.00
O360   O     0.24904   0.45821   0.74965   0.00000  Uiso   1.00
O361   O     0.56639   0.73869   0.13111   0.00000  Uiso   1.00
O362   O     0.23943   0.97963   0.73014   0.00000  Uiso   1.00
N363   N     0.43910   0.53487   0.79073   0.00000  Uiso   1.00
N364   N     0.66525   0.73473   0.06257   0.00000  Uiso   1.00
N365   N     0.43227   0.90643   0.77685   0.00000  Uiso   1.00
N366   N     0.11792   0.53520   0.77787   0.00000  Uiso   1.00
N367   N     0.34407   0.73506   0.04971   0.00000  Uiso   1.00
N368   N     0.11108   0.90677   0.76399   0.00000  Uiso   1.00
