data_job_00234
_audit_creation_date              2018-12-19
_audit_creation_method            'Materials Studio'
_symmetry_space_group_name_H-M    'P1'
_symmetry_Int_Tables_number       1
_symmetry_cell_setting            triclinic
loop_
_symmetry_equiv_pos_as_xyz
  x,y,z
_cell_length_a                    21.7753
_cell_length_b                    10.2672
_cell_length_c                    23.7156
_cell_angle_alpha                 90.0000
_cell_angle_beta                  64.9337
_cell_angle_gamma                 90.0000
loop_
_atom_site_label
_atom_site_type_symbol
_atom_site_fract_x
_atom_site_fract_y
_atom_site_fract_z
_atom_site_U_iso_or_equiv
_atom_site_adp_type
_atom_site_occupancy
C1     C     0.09387   0.30002   0.83992   0.00000  Uiso   1.00
C2     C     0.15158   0.27822   0.85921   0.00000  Uiso   1.00
C3     C     0.15240   0.18618   0.90174   0.00000  Uiso   1.00
C4     C     0.20992   0.18166   0.91306   0.00000  Uiso   1.00
C5     C     0.29119   0.13499   0.94762   0.00000  Uiso   1.00
C6     C     0.07406   0.44301   0.85321   0.00000  Uiso   1.00
C7     C     0.00971   0.48951   0.89068   0.00000  Uiso   1.00
C8     C     0.00197   0.62371   0.89694   0.00000  Uiso   1.00
C9     C     0.96289   0.83288   0.92216   0.00000  Uiso   1.00
C10    C     0.12497   0.28551   0.76929   0.00000  Uiso   1.00
C11    C     0.10341   0.19961   0.73620   0.00000  Uiso   1.00
C12    C     0.13852   0.20123   0.67181   0.00000  Uiso   1.00
C13    C     0.17847   0.16586   0.56672   0.00000  Uiso   1.00
C14    C     0.19455   0.45566   0.78439   0.00000  Uiso   1.00
C15    C     0.20626   0.36276   0.82905   0.00000  Uiso   1.00
C16    C     0.26379   0.35838   0.84030   0.00000  Uiso   1.00
C17    C     0.26470   0.26634   0.88284   0.00000  Uiso   1.00
C18    C     0.12874   0.52754   0.82305   0.00000  Uiso   1.00
C19    C     0.12110   0.66171   0.82925   0.00000  Uiso   1.00
C20    C     0.05676   0.70840   0.86673   0.00000  Uiso   1.00
C21    C     0.17965   0.37004   0.73913   0.00000  Uiso   1.00
C22    C     0.21480   0.37181   0.67477   0.00000  Uiso   1.00
C23    C     0.19330   0.28593   0.64159   0.00000  Uiso   1.00
H24    H     0.05130   0.23421   0.86340   0.00000  Uiso   1.00
H25    H     0.11007   0.12078   0.92507   0.00000  Uiso   1.00
H26    H     0.96740   0.42407   0.91401   0.00000  Uiso   1.00
H27    H     0.06109   0.13421   0.75956   0.00000  Uiso   1.00
H28    H     0.19934   0.03233   0.98016   0.00000  Uiso   1.00
H29    H     0.89851   0.67183   0.95683   0.00000  Uiso   1.00
H30    H     0.09606   0.06061   0.63113   0.00000  Uiso   1.00
H31    H     0.23712   0.52148   0.76091   0.00000  Uiso   1.00
H32    H     0.30610   0.42381   0.81696   0.00000  Uiso   1.00
H33    H     0.16343   0.72710   0.80590   0.00000  Uiso   1.00
H34    H     0.25712   0.43724   0.65145   0.00000  Uiso   1.00
H35    H     0.35844   0.27829   0.89242   0.00000  Uiso   1.00
H36    H     0.05761   0.91778   0.86908   0.00000  Uiso   1.00
H37    H     0.25517   0.30657   0.54338   0.00000  Uiso   1.00
O38    O     0.32090   0.08591   0.97502   0.00000  Uiso   1.00
O39    O     0.92622   0.92489   0.94440   0.00000  Uiso   1.00
O40    O     0.18541   0.12299   0.51709   0.00000  Uiso   1.00
N41    N     0.22732   0.10361   0.95181   0.00000  Uiso   1.00
N42    N     0.94607   0.70149   0.93000   0.00000  Uiso   1.00
N43    N     0.13075   0.13008   0.62550   0.00000  Uiso   1.00
N44    N     0.31294   0.23595   0.90459   0.00000  Uiso   1.00
N45    N     0.03168   0.83384   0.88279   0.00000  Uiso   1.00
N46    N     0.21637   0.26243   0.57828   0.00000  Uiso   1.00
C47    C     0.59387   0.80002   0.83992   0.00000  Uiso   1.00
C48    C     0.65158   0.77822   0.85921   0.00000  Uiso   1.00
C49    C     0.65240   0.68618   0.90174   0.00000  Uiso   1.00
C50    C     0.70992   0.68166   0.91306   0.00000  Uiso   1.00
C51    C     0.79119   0.63499   0.94762   0.00000  Uiso   1.00
C52    C     0.57406   0.94301   0.85321   0.00000  Uiso   1.00
C53    C     0.50971   0.98951   0.89068   0.00000  Uiso   1.00
C54    C     0.50197   0.12371   0.89694   0.00000  Uiso   1.00
C55    C     0.46289   0.33288   0.92216   0.00000  Uiso   1.00
C56    C     0.62497   0.78551   0.76929   0.00000  Uiso   1.00
C57    C     0.60341   0.69961   0.73620   0.00000  Uiso   1.00
C58    C     0.63852   0.70123   0.67181   0.00000  Uiso   1.00
C59    C     0.67847   0.66586   0.56672   0.00000  Uiso   1.00
C60    C     0.69455   0.95566   0.78439   0.00000  Uiso   1.00
C61    C     0.70626   0.86276   0.82905   0.00000  Uiso   1.00
C62    C     0.76379   0.85838   0.84030   0.00000  Uiso   1.00
C63    C     0.76470   0.76634   0.88284   0.00000  Uiso   1.00
C64    C     0.62874   0.02754   0.82305   0.00000  Uiso   1.00
C65    C     0.62110   0.16171   0.82925   0.00000  Uiso   1.00
C66    C     0.55676   0.20840   0.86673   0.00000  Uiso   1.00
C67    C     0.67965   0.87004   0.73913   0.00000  Uiso   1.00
C68    C     0.71480   0.87181   0.67477   0.00000  Uiso   1.00
C69    C     0.69330   0.78593   0.64159   0.00000  Uiso   1.00
H70    H     0.55130   0.73421   0.86340   0.00000  Uiso   1.00
H71    H     0.61007   0.62078   0.92507   0.00000  Uiso   1.00
H72    H     0.46740   0.92407   0.91401   0.00000  Uiso   1.00
H73    H     0.56109   0.63421   0.75956   0.00000  Uiso   1.00
H74    H     0.69934   0.53233   0.98016   0.00000  Uiso   1.00
H75    H     0.39851   0.17183   0.95683   0.00000  Uiso   1.00
H76    H     0.59606   0.56061   0.63113   0.00000  Uiso   1.00
H77    H     0.73712   0.02148   0.76091   0.00000  Uiso   1.00
H78    H     0.80610   0.92381   0.81696   0.00000  Uiso   1.00
H79    H     0.66343   0.22710   0.80590   0.00000  Uiso   1.00
H80    H     0.75712   0.93724   0.65145   0.00000  Uiso   1.00
H81    H     0.85844   0.77829   0.89242   0.00000  Uiso   1.00
H82    H     0.55761   0.41778   0.86908   0.00000  Uiso   1.00
H83    H     0.75517   0.80657   0.54338   0.00000  Uiso   1.00
O84    O     0.82090   0.58591   0.97502   0.00000  Uiso   1.00
O85    O     0.42622   0.42489   0.94440   0.00000  Uiso   1.00
O86    O     0.68541   0.62299   0.51709   0.00000  Uiso   1.00
N87    N     0.72732   0.60361   0.95181   0.00000  Uiso   1.00
N88    N     0.44607   0.20149   0.93000   0.00000  Uiso   1.00
N89    N     0.63075   0.63008   0.62550   0.00000  Uiso   1.00
N90    N     0.81294   0.73595   0.90459   0.00000  Uiso   1.00
N91    N     0.53168   0.33384   0.88279   0.00000  Uiso   1.00
N92    N     0.71637   0.76243   0.57828   0.00000  Uiso   1.00
C93    C     0.90613   0.30002   0.66008   0.00000  Uiso   1.00
C94    C     0.84842   0.27822   0.64079   0.00000  Uiso   1.00
C95    C     0.84760   0.18618   0.59826   0.00000  Uiso   1.00
C96    C     0.79008   0.18166   0.58694   0.00000  Uiso   1.00
C97    C     0.70881   0.13499   0.55238   0.00000  Uiso   1.00
C98    C     0.92594   0.44301   0.64679   0.00000  Uiso   1.00
C99    C     0.99029   0.48951   0.60932   0.00000  Uiso   1.00
C100   C     0.99803   0.62371   0.60306   0.00000  Uiso   1.00
C101   C     0.03711   0.83288   0.57784   0.00000  Uiso   1.00
C102   C     0.87503   0.28551   0.73071   0.00000  Uiso   1.00
C103   C     0.89659   0.19961   0.76380   0.00000  Uiso   1.00
C104   C     0.86148   0.20123   0.82819   0.00000  Uiso   1.00
C105   C     0.82153   0.16586   0.93328   0.00000  Uiso   1.00
C106   C     0.80545   0.45566   0.71561   0.00000  Uiso   1.00
C107   C     0.79374   0.36276   0.67095   0.00000  Uiso   1.00
C108   C     0.73621   0.35838   0.65970   0.00000  Uiso   1.00
C109   C     0.73530   0.26634   0.61716   0.00000  Uiso   1.00
C110   C     0.87126   0.52754   0.67695   0.00000  Uiso   1.00
C111   C     0.87890   0.66171   0.67075   0.00000  Uiso   1.00
C112   C     0.94324   0.70840   0.63327   0.00000  Uiso   1.00
C113   C     0.82035   0.37004   0.76087   0.00000  Uiso   1.00
C114   C     0.78520   0.37181   0.82523   0.00000  Uiso   1.00
C115   C     0.80670   0.28593   0.85841   0.00000  Uiso   1.00
H116   H     0.94870   0.23421   0.63660   0.00000  Uiso   1.00
H117   H     0.88993   0.12078   0.57493   0.00000  Uiso   1.00
H118   H     0.03260   0.42407   0.58599   0.00000  Uiso   1.00
H119   H     0.93891   0.13421   0.74044   0.00000  Uiso   1.00
H120   H     0.80066   0.03233   0.51984   0.00000  Uiso   1.00
H121   H     0.10149   0.67183   0.54317   0.00000  Uiso   1.00
H122   H     0.90394   0.06061   0.86887   0.00000  Uiso   1.00
H123   H     0.76288   0.52148   0.73909   0.00000  Uiso   1.00
H124   H     0.69390   0.42381   0.68304   0.00000  Uiso   1.00
H125   H     0.83657   0.72710   0.69410   0.00000  Uiso   1.00
H126   H     0.74288   0.43724   0.84855   0.00000  Uiso   1.00
H127   H     0.64156   0.27829   0.60758   0.00000  Uiso   1.00
H128   H     0.94239   0.91778   0.63092   0.00000  Uiso   1.00
H129   H     0.74483   0.30657   0.95662   0.00000  Uiso   1.00
O130   O     0.67910   0.08591   0.52498   0.00000  Uiso   1.00
O131   O     0.07378   0.92489   0.55560   0.00000  Uiso   1.00
O132   O     0.81459   0.12299   0.98291   0.00000  Uiso   1.00
N133   N     0.77268   0.10361   0.54819   0.00000  Uiso   1.00
N134   N     0.05393   0.70149   0.57000   0.00000  Uiso   1.00
N135   N     0.86925   0.13008   0.87450   0.00000  Uiso   1.00
N136   N     0.68706   0.23595   0.59541   0.00000  Uiso   1.00
N137   N     0.96832   0.83384   0.61721   0.00000  Uiso   1.00
N138   N     0.78363   0.26243   0.92172   0.00000  Uiso   1.00
C139   C     0.40613   0.80002   0.66008   0.00000  Uiso   1.00
C140   C     0.34842   0.77822   0.64079   0.00000  Uiso   1.00
C141   C     0.34760   0.68618   0.59826   0.00000  Uiso   1.00
C142   C     0.29008   0.68166   0.58694   0.00000  Uiso   1.00
C143   C     0.20881   0.63499   0.55238   0.00000  Uiso   1.00
C144   C     0.42594   0.94301   0.64679   0.00000  Uiso   1.00
C145   C     0.49029   0.98951   0.60932   0.00000  Uiso   1.00
C146   C     0.49803   0.12371   0.60306   0.00000  Uiso   1.00
C147   C     0.53711   0.33288   0.57784   0.00000  Uiso   1.00
C148   C     0.37503   0.78551   0.73071   0.00000  Uiso   1.00
C149   C     0.39659   0.69961   0.76380   0.00000  Uiso   1.00
C150   C     0.36148   0.70123   0.82819   0.00000  Uiso   1.00
C151   C     0.32153   0.66586   0.93328   0.00000  Uiso   1.00
C152   C     0.30545   0.95566   0.71561   0.00000  Uiso   1.00
C153   C     0.29374   0.86276   0.67095   0.00000  Uiso   1.00
C154   C     0.23621   0.85838   0.65970   0.00000  Uiso   1.00
C155   C     0.23530   0.76634   0.61716   0.00000  Uiso   1.00
C156   C     0.37126   0.02754   0.67695   0.00000  Uiso   1.00
C157   C     0.37890   0.16171   0.67075   0.00000  Uiso   1.00
C158   C     0.44324   0.20840   0.63327   0.00000  Uiso   1.00
C159   C     0.32035   0.87004   0.76087   0.00000  Uiso   1.00
C160   C     0.28520   0.87181   0.82523   0.00000  Uiso   1.00
C161   C     0.30670   0.78593   0.85841   0.00000  Uiso   1.00
H162   H     0.44870   0.73421   0.63660   0.00000  Uiso   1.00
H163   H     0.38993   0.62078   0.57493   0.00000  Uiso   1.00
H164   H     0.53260   0.92407   0.58599   0.00000  Uiso   1.00
H165   H     0.43891   0.63421   0.74044   0.00000  Uiso   1.00
H166   H     0.30066   0.53233   0.51984   0.00000  Uiso   1.00
H167   H     0.60149   0.17183   0.54317   0.00000  Uiso   1.00
H168   H     0.40394   0.56061   0.86887   0.00000  Uiso   1.00
H169   H     0.26288   0.02148   0.73909   0.00000  Uiso   1.00
H170   H     0.19390   0.92381   0.68304   0.00000  Uiso   1.00
H171   H     0.33657   0.22710   0.69410   0.00000  Uiso   1.00
H172   H     0.24288   0.93724   0.84855   0.00000  Uiso   1.00
H173   H     0.14156   0.77829   0.60758   0.00000  Uiso   1.00
H174   H     0.44239   0.41778   0.63092   0.00000  Uiso   1.00
H175   H     0.24483   0.80657   0.95662   0.00000  Uiso   1.00
O176   O     0.17910   0.58591   0.52498   0.00000  Uiso   1.00
O177   O     0.57378   0.42489   0.55560   0.00000  Uiso   1.00
O178   O     0.31459   0.62299   0.98291   0.00000  Uiso   1.00
N179   N     0.27268   0.60361   0.54819   0.00000  Uiso   1.00
N180   N     0.55393   0.20149   0.57000   0.00000  Uiso   1.00
N181   N     0.36925   0.63008   0.87450   0.00000  Uiso   1.00
N182   N     0.18706   0.73595   0.59541   0.00000  Uiso   1.00
N183   N     0.46832   0.33384   0.61721   0.00000  Uiso   1.00
N184   N     0.28363   0.76243   0.92172   0.00000  Uiso   1.00
C185   C     0.90613   0.69998   0.16008   0.00000  Uiso   1.00
C186   C     0.84842   0.72178   0.14079   0.00000  Uiso   1.00
C187   C     0.84760   0.81382   0.09826   0.00000  Uiso   1.00
C188   C     0.79008   0.81834   0.08694   0.00000  Uiso   1.00
C189   C     0.70881   0.86501   0.05238   0.00000  Uiso   1.00
C190   C     0.92594   0.55699   0.14679   0.00000  Uiso   1.00
C191   C     0.99029   0.51049   0.10932   0.00000  Uiso   1.00
C192   C     0.99803   0.37629   0.10306   0.00000  Uiso   1.00
C193   C     0.03711   0.16712   0.07784   0.00000  Uiso   1.00
C194   C     0.87503   0.71449   0.23071   0.00000  Uiso   1.00
C195   C     0.89659   0.80039   0.26380   0.00000  Uiso   1.00
C196   C     0.86148   0.79877   0.32819   0.00000  Uiso   1.00
C197   C     0.82153   0.83414   0.43328   0.00000  Uiso   1.00
C198   C     0.80545   0.54434   0.21561   0.00000  Uiso   1.00
C199   C     0.79374   0.63724   0.17095   0.00000  Uiso   1.00
C200   C     0.73621   0.64162   0.15970   0.00000  Uiso   1.00
C201   C     0.73530   0.73366   0.11716   0.00000  Uiso   1.00
C202   C     0.87126   0.47246   0.17695   0.00000  Uiso   1.00
C203   C     0.87890   0.33829   0.17075   0.00000  Uiso   1.00
C204   C     0.94324   0.29160   0.13327   0.00000  Uiso   1.00
C205   C     0.82035   0.62996   0.26087   0.00000  Uiso   1.00
C206   C     0.78520   0.62819   0.32523   0.00000  Uiso   1.00
C207   C     0.80670   0.71407   0.35841   0.00000  Uiso   1.00
H208   H     0.94870   0.76579   0.13660   0.00000  Uiso   1.00
H209   H     0.88993   0.87922   0.07493   0.00000  Uiso   1.00
H210   H     0.03260   0.57593   0.08599   0.00000  Uiso   1.00
H211   H     0.93891   0.86579   0.24044   0.00000  Uiso   1.00
H212   H     0.80066   0.96767   0.01984   0.00000  Uiso   1.00
H213   H     0.10149   0.32817   0.04317   0.00000  Uiso   1.00
H214   H     0.90394   0.93939   0.36887   0.00000  Uiso   1.00
H215   H     0.76288   0.47852   0.23909   0.00000  Uiso   1.00
H216   H     0.69390   0.57619   0.18304   0.00000  Uiso   1.00
H217   H     0.83657   0.27290   0.19410   0.00000  Uiso   1.00
H218   H     0.74288   0.56276   0.34855   0.00000  Uiso   1.00
H219   H     0.64156   0.72171   0.10758   0.00000  Uiso   1.00
H220   H     0.94239   0.08222   0.13092   0.00000  Uiso   1.00
H221   H     0.74483   0.69343   0.45662   0.00000  Uiso   1.00
O222   O     0.67910   0.91409   0.02498   0.00000  Uiso   1.00
O223   O     0.07378   0.07511   0.05560   0.00000  Uiso   1.00
O224   O     0.81459   0.87701   0.48291   0.00000  Uiso   1.00
N225   N     0.77268   0.89639   0.04819   0.00000  Uiso   1.00
N226   N     0.05393   0.29851   0.07000   0.00000  Uiso   1.00
N227   N     0.86925   0.86992   0.37450   0.00000  Uiso   1.00
N228   N     0.68706   0.76405   0.09541   0.00000  Uiso   1.00
N229   N     0.96832   0.16616   0.11721   0.00000  Uiso   1.00
N230   N     0.78363   0.73757   0.42172   0.00000  Uiso   1.00
C231   C     0.40613   0.19998   0.16008   0.00000  Uiso   1.00
C232   C     0.34842   0.22178   0.14079   0.00000  Uiso   1.00
C233   C     0.34760   0.31382   0.09826   0.00000  Uiso   1.00
C234   C     0.29008   0.31834   0.08694   0.00000  Uiso   1.00
C235   C     0.20881   0.36501   0.05238   0.00000  Uiso   1.00
C236   C     0.42594   0.05699   0.14679   0.00000  Uiso   1.00
C237   C     0.49029   0.01049   0.10932   0.00000  Uiso   1.00
C238   C     0.49803   0.87629   0.10306   0.00000  Uiso   1.00
C239   C     0.53711   0.66712   0.07784   0.00000  Uiso   1.00
C240   C     0.37503   0.21449   0.23071   0.00000  Uiso   1.00
C241   C     0.39659   0.30039   0.26380   0.00000  Uiso   1.00
C242   C     0.36148   0.29877   0.32819   0.00000  Uiso   1.00
C243   C     0.32153   0.33414   0.43328   0.00000  Uiso   1.00
C244   C     0.30545   0.04434   0.21561   0.00000  Uiso   1.00
C245   C     0.29374   0.13724   0.17095   0.00000  Uiso   1.00
C246   C     0.23621   0.14162   0.15970   0.00000  Uiso   1.00
C247   C     0.23530   0.23366   0.11716   0.00000  Uiso   1.00
C248   C     0.37126   0.97246   0.17695   0.00000  Uiso   1.00
C249   C     0.37890   0.83829   0.17075   0.00000  Uiso   1.00
C250   C     0.44324   0.79160   0.13327   0.00000  Uiso   1.00
C251   C     0.32035   0.12996   0.26087   0.00000  Uiso   1.00
C252   C     0.28520   0.12819   0.32523   0.00000  Uiso   1.00
C253   C     0.30670   0.21407   0.35841   0.00000  Uiso   1.00
H254   H     0.44870   0.26579   0.13660   0.00000  Uiso   1.00
H255   H     0.38993   0.37922   0.07493   0.00000  Uiso   1.00
H256   H     0.53260   0.07593   0.08599   0.00000  Uiso   1.00
H257   H     0.43891   0.36579   0.24044   0.00000  Uiso   1.00
H258   H     0.30066   0.46767   0.01984   0.00000  Uiso   1.00
H259   H     0.60149   0.82817   0.04317   0.00000  Uiso   1.00
H260   H     0.40394   0.43939   0.36887   0.00000  Uiso   1.00
H261   H     0.26288   0.97852   0.23909   0.00000  Uiso   1.00
H262   H     0.19390   0.07619   0.18304   0.00000  Uiso   1.00
H263   H     0.33657   0.77290   0.19410   0.00000  Uiso   1.00
H264   H     0.24288   0.06276   0.34855   0.00000  Uiso   1.00
H265   H     0.14156   0.22171   0.10758   0.00000  Uiso   1.00
H266   H     0.44239   0.58222   0.13092   0.00000  Uiso   1.00
H267   H     0.24483   0.19343   0.45662   0.00000  Uiso   1.00
O268   O     0.17910   0.41409   0.02498   0.00000  Uiso   1.00
O269   O     0.57378   0.57511   0.05560   0.00000  Uiso   1.00
O270   O     0.31459   0.37701   0.48291   0.00000  Uiso   1.00
N271   N     0.27268   0.39639   0.04819   0.00000  Uiso   1.00
N272   N     0.55393   0.79851   0.07000   0.00000  Uiso   1.00
N273   N     0.36925   0.36992   0.37450   0.00000  Uiso   1.00
N274   N     0.18706   0.26405   0.09541   0.00000  Uiso   1.00
N275   N     0.46832   0.66616   0.11721   0.00000  Uiso   1.00
N276   N     0.28363   0.23757   0.42172   0.00000  Uiso   1.00
C277   C     0.09387   0.69998   0.33992   0.00000  Uiso   1.00
C278   C     0.15158   0.72178   0.35921   0.00000  Uiso   1.00
C279   C     0.15240   0.81382   0.40174   0.00000  Uiso   1.00
C280   C     0.20992   0.81834   0.41306   0.00000  Uiso   1.00
C281   C     0.29119   0.86501   0.44762   0.00000  Uiso   1.00
C282   C     0.07406   0.55699   0.35321   0.00000  Uiso   1.00
C283   C     0.00971   0.51049   0.39068   0.00000  Uiso   1.00
C284   C     0.00197   0.37629   0.39694   0.00000  Uiso   1.00
C285   C     0.96289   0.16712   0.42216   0.00000  Uiso   1.00
C286   C     0.12497   0.71449   0.26929   0.00000  Uiso   1.00
C287   C     0.10341   0.80039   0.23620   0.00000  Uiso   1.00
C288   C     0.13852   0.79877   0.17181   0.00000  Uiso   1.00
C289   C     0.17847   0.83414   0.06672   0.00000  Uiso   1.00
C290   C     0.19455   0.54434   0.28439   0.00000  Uiso   1.00
C291   C     0.20626   0.63724   0.32905   0.00000  Uiso   1.00
C292   C     0.26379   0.64162   0.34030   0.00000  Uiso   1.00
C293   C     0.26470   0.73366   0.38284   0.00000  Uiso   1.00
C294   C     0.12874   0.47246   0.32305   0.00000  Uiso   1.00
C295   C     0.12110   0.33829   0.32925   0.00000  Uiso   1.00
C296   C     0.05676   0.29160   0.36673   0.00000  Uiso   1.00
C297   C     0.17965   0.62996   0.23913   0.00000  Uiso   1.00
C298   C     0.21480   0.62819   0.17477   0.00000  Uiso   1.00
C299   C     0.19330   0.71407   0.14159   0.00000  Uiso   1.00
H300   H     0.05130   0.76579   0.36340   0.00000  Uiso   1.00
H301   H     0.11007   0.87922   0.42507   0.00000  Uiso   1.00
H302   H     0.96740   0.57593   0.41401   0.00000  Uiso   1.00
H303   H     0.06109   0.86579   0.25956   0.00000  Uiso   1.00
H304   H     0.19934   0.96767   0.48016   0.00000  Uiso   1.00
H305   H     0.89851   0.32817   0.45683   0.00000  Uiso   1.00
H306   H     0.09606   0.93939   0.13113   0.00000  Uiso   1.00
H307   H     0.23712   0.47852   0.26091   0.00000  Uiso   1.00
H308   H     0.30610   0.57619   0.31696   0.00000  Uiso   1.00
H309   H     0.16343   0.27290   0.30590   0.00000  Uiso   1.00
H310   H     0.25712   0.56276   0.15145   0.00000  Uiso   1.00
H311   H     0.35844   0.72171   0.39242   0.00000  Uiso   1.00
H312   H     0.05761   0.08222   0.36908   0.00000  Uiso   1.00
H313   H     0.25517   0.69343   0.04338   0.00000  Uiso   1.00
O314   O     0.32090   0.91409   0.47502   0.00000  Uiso   1.00
O315   O     0.92622   0.07511   0.44440   0.00000  Uiso   1.00
O316   O     0.18541   0.87701   0.01709   0.00000  Uiso   1.00
N317   N     0.22732   0.89639   0.45181   0.00000  Uiso   1.00
N318   N     0.94607   0.29851   0.43000   0.00000  Uiso   1.00
N319   N     0.13075   0.86992   0.12550   0.00000  Uiso   1.00
N320   N     0.31294   0.76405   0.40459   0.00000  Uiso   1.00
N321   N     0.03168   0.16616   0.38279   0.00000  Uiso   1.00
N322   N     0.21637   0.73757   0.07828   0.00000  Uiso   1.00
C323   C     0.59387   0.19998   0.33992   0.00000  Uiso   1.00
C324   C     0.65158   0.22178   0.35921   0.00000  Uiso   1.00
C325   C     0.65240   0.31382   0.40174   0.00000  Uiso   1.00
C326   C     0.70992   0.31834   0.41306   0.00000  Uiso   1.00
C327   C     0.79119   0.36501   0.44762   0.00000  Uiso   1.00
C328   C     0.57406   0.05699   0.35321   0.00000  Uiso   1.00
C329   C     0.50971   0.01049   0.39068   0.00000  Uiso   1.00
C330   C     0.50197   0.87629   0.39694   0.00000  Uiso   1.00
C331   C     0.46289   0.66712   0.42216   0.00000  Uiso   1.00
C332   C     0.62497   0.21449   0.26929   0.00000  Uiso   1.00
C333   C     0.60341   0.30039   0.23620   0.00000  Uiso   1.00
C334   C     0.63852   0.29877   0.17181   0.00000  Uiso   1.00
C335   C     0.67847   0.33414   0.06672   0.00000  Uiso   1.00
C336   C     0.69455   0.04434   0.28439   0.00000  Uiso   1.00
C337   C     0.70626   0.13724   0.32905   0.00000  Uiso   1.00
C338   C     0.76379   0.14162   0.34030   0.00000  Uiso   1.00
C339   C     0.76470   0.23366   0.38284   0.00000  Uiso   1.00
C340   C     0.62874   0.97246   0.32305   0.00000  Uiso   1.00
C341   C     0.62110   0.83829   0.32925   0.00000  Uiso   1.00
C342   C     0.55676   0.79160   0.36673   0.00000  Uiso   1.00
C343   C     0.67965   0.12996   0.23913   0.00000  Uiso   1.00
C344   C     0.71480   0.12819   0.17477   0.00000  Uiso   1.00
C345   C     0.69330   0.21407   0.14159   0.00000  Uiso   1.00
H346   H     0.55130   0.26579   0.36340   0.00000  Uiso   1.00
H347   H     0.61007   0.37922   0.42507   0.00000  Uiso   1.00
H348   H     0.46740   0.07593   0.41401   0.00000  Uiso   1.00
H349   H     0.56109   0.36579   0.25956   0.00000  Uiso   1.00
H350   H     0.69934   0.46767   0.48016   0.00000  Uiso   1.00
H351   H     0.39851   0.82817   0.45683   0.00000  Uiso   1.00
H352   H     0.59606   0.43939   0.13113   0.00000  Uiso   1.00
H353   H     0.73712   0.97852   0.26091   0.00000  Uiso   1.00
H354   H     0.80610   0.07619   0.31696   0.00000  Uiso   1.00
H355   H     0.66343   0.77290   0.30590   0.00000  Uiso   1.00
H356   H     0.75712   0.06276   0.15145   0.00000  Uiso   1.00
H357   H     0.85844   0.22171   0.39242   0.00000  Uiso   1.00
H358   H     0.55761   0.58222   0.36908   0.00000  Uiso   1.00
H359   H     0.75517   0.19343   0.04338   0.00000  Uiso   1.00
O360   O     0.82090   0.41409   0.47502   0.00000  Uiso   1.00
O361   O     0.42622   0.57511   0.44440   0.00000  Uiso   1.00
O362   O     0.68541   0.37701   0.01709   0.00000  Uiso   1.00
N363   N     0.72732   0.39639   0.45181   0.00000  Uiso   1.00
N364   N     0.44607   0.79851   0.43000   0.00000  Uiso   1.00
N365   N     0.63075   0.36992   0.12550   0.00000  Uiso   1.00
N366   N     0.81294   0.26405   0.40459   0.00000  Uiso   1.00
N367   N     0.53168   0.66616   0.38279   0.00000  Uiso   1.00
N368   N     0.71637   0.23757   0.07828   0.00000  Uiso   1.00
