data_job_03359
_audit_creation_date              2018-12-19
_audit_creation_method            'Materials Studio'
_symmetry_space_group_name_H-M    'P1'
_symmetry_Int_Tables_number       1
_symmetry_cell_setting            triclinic
loop_
_symmetry_equiv_pos_as_xyz
  x,y,z
_cell_length_a                    21.1288
_cell_length_b                    10.8500
_cell_length_c                    30.6541
_cell_angle_alpha                 90.0000
_cell_angle_beta                  90.0000
_cell_angle_gamma                 90.0000
loop_
_atom_site_label
_atom_site_type_symbol
_atom_site_fract_x
_atom_site_fract_y
_atom_site_fract_z
_atom_site_U_iso_or_equiv
_atom_site_adp_type
_atom_site_occupancy
C1     C     0.57907   0.89962   0.10409   0.00000  Uiso   1.00
C2     C     0.52520   0.87744   0.13625   0.00000  Uiso   1.00
C3     C     0.48628   0.77444   0.13727   0.00000  Uiso   1.00
C4     C     0.43972   0.77159   0.16922   0.00000  Uiso   1.00
C5     C     0.35716   0.72246   0.21460   0.00000  Uiso   1.00
C6     C     0.56466   0.02234   0.08197   0.00000  Uiso   1.00
C7     C     0.55894   0.04118   0.03736   0.00000  Uiso   1.00
C8     C     0.54561   0.16031   0.02362   0.00000  Uiso   1.00
C9     C     0.52437   0.33616   0.98473   0.00000  Uiso   1.00
C10    C     0.63811   0.92113   0.13167   0.00000  Uiso   1.00
C11    C     0.69415   0.85489   0.12884   0.00000  Uiso   1.00
C12    C     0.74266   0.88884   0.15694   0.00000  Uiso   1.00
C13    C     0.83545   0.90755   0.19522   0.00000  Uiso   1.00
C14    C     0.56558   0.07772   0.15899   0.00000  Uiso   1.00
C15    C     0.51787   0.97418   0.16607   0.00000  Uiso   1.00
C16    C     0.47136   0.97148   0.19802   0.00000  Uiso   1.00
C17    C     0.43238   0.86849   0.19909   0.00000  Uiso   1.00
C18    C     0.55733   0.11908   0.11179   0.00000  Uiso   1.00
C19    C     0.54401   0.23822   0.09811   0.00000  Uiso   1.00
C20    C     0.53827   0.25722   0.05349   0.00000  Uiso   1.00
C21    C     0.63078   0.01787   0.16149   0.00000  Uiso   1.00
C22    C     0.67922   0.05193   0.18959   0.00000  Uiso   1.00
C23    C     0.73532   0.98575   0.18681   0.00000  Uiso   1.00
H24    H     0.58478   0.82432   0.08087   0.00000  Uiso   1.00
H25    H     0.49196   0.69960   0.11419   0.00000  Uiso   1.00
H26    H     0.56462   0.96630   0.01429   0.00000  Uiso   1.00
H27    H     0.69980   0.78004   0.10576   0.00000  Uiso   1.00
H28    H     0.38582   0.60402   0.16427   0.00000  Uiso   1.00
H29    H     0.53903   0.16637   0.95363   0.00000  Uiso   1.00
H30    H     0.82409   0.77361   0.14652   0.00000  Uiso   1.00
H31    H     0.55988   0.15303   0.18221   0.00000  Uiso   1.00
H32    H     0.46570   0.04635   0.22109   0.00000  Uiso   1.00
H33    H     0.53835   0.31305   0.12119   0.00000  Uiso   1.00
H34    H     0.67353   0.12679   0.21266   0.00000  Uiso   1.00
H35    H     0.36450   0.88546   0.25103   0.00000  Uiso   1.00
H36    H     0.51772   0.44781   0.04039   0.00000  Uiso   1.00
H37    H     0.80277   0.05505   0.23328   0.00000  Uiso   1.00
O38    O     0.31364   0.66865   0.23139   0.00000  Uiso   1.00
O39    O     0.51467   0.40643   0.95504   0.00000  Uiso   1.00
O40    O     0.88865   0.89114   0.20810   0.00000  Uiso   1.00
N41    N     0.39374   0.68488   0.17936   0.00000  Uiso   1.00
N42    N     0.53697   0.21064   0.98243   0.00000  Uiso   1.00
N43    N     0.80348   0.84347   0.16275   0.00000  Uiso   1.00
N44    N     0.38226   0.83632   0.22605   0.00000  Uiso   1.00
N45    N     0.52550   0.36208   0.02911   0.00000  Uiso   1.00
N46    N     0.79201   0.99491   0.20944   0.00000  Uiso   1.00
C47    C     0.92093   0.60038   0.60409   0.00000  Uiso   1.00
C48    C     0.97480   0.62256   0.63625   0.00000  Uiso   1.00
C49    C     0.01372   0.72556   0.63727   0.00000  Uiso   1.00
C50    C     0.06028   0.72841   0.66922   0.00000  Uiso   1.00
C51    C     0.14284   0.77754   0.71460   0.00000  Uiso   1.00
C52    C     0.93534   0.47766   0.58197   0.00000  Uiso   1.00
C53    C     0.94106   0.45882   0.53736   0.00000  Uiso   1.00
C54    C     0.95439   0.33969   0.52362   0.00000  Uiso   1.00
C55    C     0.97563   0.16384   0.48473   0.00000  Uiso   1.00
C56    C     0.86189   0.57887   0.63167   0.00000  Uiso   1.00
C57    C     0.80585   0.64511   0.62884   0.00000  Uiso   1.00
C58    C     0.75734   0.61116   0.65694   0.00000  Uiso   1.00
C59    C     0.66455   0.59245   0.69522   0.00000  Uiso   1.00
C60    C     0.93442   0.42228   0.65899   0.00000  Uiso   1.00
C61    C     0.98213   0.52582   0.66607   0.00000  Uiso   1.00
C62    C     0.02864   0.52852   0.69802   0.00000  Uiso   1.00
C63    C     0.06762   0.63151   0.69909   0.00000  Uiso   1.00
C64    C     0.94267   0.38092   0.61179   0.00000  Uiso   1.00
C65    C     0.95599   0.26178   0.59811   0.00000  Uiso   1.00
C66    C     0.96173   0.24278   0.55349   0.00000  Uiso   1.00
C67    C     0.86922   0.48213   0.66149   0.00000  Uiso   1.00
C68    C     0.82078   0.44807   0.68959   0.00000  Uiso   1.00
C69    C     0.76468   0.51425   0.68681   0.00000  Uiso   1.00
H70    H     0.91522   0.67568   0.58087   0.00000  Uiso   1.00
H71    H     0.00804   0.80040   0.61419   0.00000  Uiso   1.00
H72    H     0.93538   0.53370   0.51429   0.00000  Uiso   1.00
H73    H     0.80020   0.71996   0.60576   0.00000  Uiso   1.00
H74    H     0.11418   0.89598   0.66427   0.00000  Uiso   1.00
H75    H     0.96097   0.33363   0.45363   0.00000  Uiso   1.00
H76    H     0.67591   0.72639   0.64652   0.00000  Uiso   1.00
H77    H     0.94012   0.34697   0.68221   0.00000  Uiso   1.00
H78    H     0.03430   0.45365   0.72109   0.00000  Uiso   1.00
H79    H     0.96165   0.18695   0.62119   0.00000  Uiso   1.00
H80    H     0.82647   0.37321   0.71266   0.00000  Uiso   1.00
H81    H     0.13550   0.61454   0.75103   0.00000  Uiso   1.00
H82    H     0.98228   0.05219   0.54039   0.00000  Uiso   1.00
H83    H     0.69723   0.44495   0.73328   0.00000  Uiso   1.00
O84    O     0.18636   0.83135   0.73139   0.00000  Uiso   1.00
O85    O     0.98533   0.09357   0.45504   0.00000  Uiso   1.00
O86    O     0.61135   0.60886   0.70810   0.00000  Uiso   1.00
N87    N     0.10626   0.81512   0.67936   0.00000  Uiso   1.00
N88    N     0.96303   0.28936   0.48243   0.00000  Uiso   1.00
N89    N     0.69652   0.65653   0.66275   0.00000  Uiso   1.00
N90    N     0.11774   0.66368   0.72605   0.00000  Uiso   1.00
N91    N     0.97450   0.13792   0.52911   0.00000  Uiso   1.00
N92    N     0.70799   0.50509   0.70944   0.00000  Uiso   1.00
C93    C     0.42093   0.89962   0.39591   0.00000  Uiso   1.00
C94    C     0.47480   0.87744   0.36375   0.00000  Uiso   1.00
C95    C     0.51372   0.77444   0.36273   0.00000  Uiso   1.00
C96    C     0.56028   0.77159   0.33078   0.00000  Uiso   1.00
C97    C     0.64284   0.72246   0.28540   0.00000  Uiso   1.00
C98    C     0.43534   0.02234   0.41803   0.00000  Uiso   1.00
C99    C     0.44106   0.04118   0.46264   0.00000  Uiso   1.00
C100   C     0.45439   0.16031   0.47638   0.00000  Uiso   1.00
C101   C     0.47563   0.33616   0.51527   0.00000  Uiso   1.00
C102   C     0.36189   0.92113   0.36833   0.00000  Uiso   1.00
C103   C     0.30585   0.85489   0.37116   0.00000  Uiso   1.00
C104   C     0.25734   0.88884   0.34306   0.00000  Uiso   1.00
C105   C     0.16455   0.90755   0.30478   0.00000  Uiso   1.00
C106   C     0.43442   0.07772   0.34101   0.00000  Uiso   1.00
C107   C     0.48213   0.97418   0.33393   0.00000  Uiso   1.00
C108   C     0.52864   0.97148   0.30198   0.00000  Uiso   1.00
C109   C     0.56762   0.86849   0.30091   0.00000  Uiso   1.00
C110   C     0.44267   0.11908   0.38821   0.00000  Uiso   1.00
C111   C     0.45599   0.23822   0.40189   0.00000  Uiso   1.00
C112   C     0.46173   0.25722   0.44651   0.00000  Uiso   1.00
C113   C     0.36922   0.01787   0.33851   0.00000  Uiso   1.00
C114   C     0.32078   0.05193   0.31041   0.00000  Uiso   1.00
C115   C     0.26468   0.98575   0.31319   0.00000  Uiso   1.00
H116   H     0.41522   0.82432   0.41913   0.00000  Uiso   1.00
H117   H     0.50804   0.69960   0.38581   0.00000  Uiso   1.00
H118   H     0.43538   0.96630   0.48571   0.00000  Uiso   1.00
H119   H     0.30020   0.78004   0.39424   0.00000  Uiso   1.00
H120   H     0.61418   0.60402   0.33573   0.00000  Uiso   1.00
H121   H     0.46097   0.16637   0.54637   0.00000  Uiso   1.00
H122   H     0.17591   0.77361   0.35348   0.00000  Uiso   1.00
H123   H     0.44012   0.15303   0.31779   0.00000  Uiso   1.00
H124   H     0.53430   0.04635   0.27891   0.00000  Uiso   1.00
H125   H     0.46165   0.31305   0.37881   0.00000  Uiso   1.00
H126   H     0.32647   0.12679   0.28734   0.00000  Uiso   1.00
H127   H     0.63550   0.88546   0.24897   0.00000  Uiso   1.00
H128   H     0.48228   0.44781   0.45961   0.00000  Uiso   1.00
H129   H     0.19723   0.05505   0.26672   0.00000  Uiso   1.00
O130   O     0.68636   0.66865   0.26861   0.00000  Uiso   1.00
O131   O     0.48533   0.40643   0.54496   0.00000  Uiso   1.00
O132   O     0.11135   0.89114   0.29190   0.00000  Uiso   1.00
N133   N     0.60626   0.68488   0.32064   0.00000  Uiso   1.00
N134   N     0.46303   0.21064   0.51757   0.00000  Uiso   1.00
N135   N     0.19652   0.84347   0.33725   0.00000  Uiso   1.00
N136   N     0.61774   0.83632   0.27395   0.00000  Uiso   1.00
N137   N     0.47450   0.36208   0.47089   0.00000  Uiso   1.00
N138   N     0.20799   0.99491   0.29056   0.00000  Uiso   1.00
C139   C     0.07907   0.60038   0.89591   0.00000  Uiso   1.00
C140   C     0.02520   0.62256   0.86375   0.00000  Uiso   1.00
C141   C     0.98628   0.72556   0.86273   0.00000  Uiso   1.00
C142   C     0.93972   0.72841   0.83078   0.00000  Uiso   1.00
C143   C     0.85716   0.77754   0.78540   0.00000  Uiso   1.00
C144   C     0.06466   0.47766   0.91803   0.00000  Uiso   1.00
C145   C     0.05894   0.45882   0.96264   0.00000  Uiso   1.00
C146   C     0.04561   0.33969   0.97638   0.00000  Uiso   1.00
C147   C     0.02437   0.16384   0.01527   0.00000  Uiso   1.00
C148   C     0.13811   0.57887   0.86833   0.00000  Uiso   1.00
C149   C     0.19415   0.64511   0.87116   0.00000  Uiso   1.00
C150   C     0.24266   0.61116   0.84306   0.00000  Uiso   1.00
C151   C     0.33545   0.59245   0.80478   0.00000  Uiso   1.00
C152   C     0.06558   0.42228   0.84101   0.00000  Uiso   1.00
C153   C     0.01787   0.52582   0.83393   0.00000  Uiso   1.00
C154   C     0.97136   0.52852   0.80198   0.00000  Uiso   1.00
C155   C     0.93238   0.63151   0.80091   0.00000  Uiso   1.00
C156   C     0.05733   0.38092   0.88821   0.00000  Uiso   1.00
C157   C     0.04401   0.26178   0.90189   0.00000  Uiso   1.00
C158   C     0.03827   0.24278   0.94651   0.00000  Uiso   1.00
C159   C     0.13078   0.48213   0.83851   0.00000  Uiso   1.00
C160   C     0.17922   0.44807   0.81041   0.00000  Uiso   1.00
C161   C     0.23532   0.51425   0.81319   0.00000  Uiso   1.00
H162   H     0.08478   0.67568   0.91913   0.00000  Uiso   1.00
H163   H     0.99196   0.80040   0.88581   0.00000  Uiso   1.00
H164   H     0.06462   0.53370   0.98571   0.00000  Uiso   1.00
H165   H     0.19980   0.71996   0.89424   0.00000  Uiso   1.00
H166   H     0.88582   0.89598   0.83573   0.00000  Uiso   1.00
H167   H     0.03903   0.33363   0.04637   0.00000  Uiso   1.00
H168   H     0.32409   0.72639   0.85348   0.00000  Uiso   1.00
H169   H     0.05988   0.34697   0.81779   0.00000  Uiso   1.00
H170   H     0.96570   0.45365   0.77891   0.00000  Uiso   1.00
H171   H     0.03835   0.18695   0.87881   0.00000  Uiso   1.00
H172   H     0.17353   0.37321   0.78734   0.00000  Uiso   1.00
H173   H     0.86450   0.61454   0.74897   0.00000  Uiso   1.00
H174   H     0.01772   0.05219   0.95961   0.00000  Uiso   1.00
H175   H     0.30277   0.44495   0.76672   0.00000  Uiso   1.00
O176   O     0.81364   0.83135   0.76861   0.00000  Uiso   1.00
O177   O     0.01467   0.09357   0.04496   0.00000  Uiso   1.00
O178   O     0.38865   0.60886   0.79190   0.00000  Uiso   1.00
N179   N     0.89374   0.81512   0.82064   0.00000  Uiso   1.00
N180   N     0.03697   0.28936   0.01757   0.00000  Uiso   1.00
N181   N     0.30348   0.65653   0.83725   0.00000  Uiso   1.00
N182   N     0.88226   0.66368   0.77395   0.00000  Uiso   1.00
N183   N     0.02550   0.13792   0.97089   0.00000  Uiso   1.00
N184   N     0.29201   0.50509   0.79056   0.00000  Uiso   1.00
C185   C     0.42093   0.10038   0.89591   0.00000  Uiso   1.00
C186   C     0.47480   0.12256   0.86375   0.00000  Uiso   1.00
C187   C     0.51372   0.22556   0.86273   0.00000  Uiso   1.00
C188   C     0.56028   0.22841   0.83078   0.00000  Uiso   1.00
C189   C     0.64284   0.27754   0.78540   0.00000  Uiso   1.00
C190   C     0.43534   0.97766   0.91803   0.00000  Uiso   1.00
C191   C     0.44106   0.95882   0.96264   0.00000  Uiso   1.00
C192   C     0.45439   0.83969   0.97638   0.00000  Uiso   1.00
C193   C     0.47563   0.66384   0.01527   0.00000  Uiso   1.00
C194   C     0.36189   0.07887   0.86833   0.00000  Uiso   1.00
C195   C     0.30585   0.14511   0.87116   0.00000  Uiso   1.00
C196   C     0.25734   0.11116   0.84306   0.00000  Uiso   1.00
C197   C     0.16455   0.09245   0.80478   0.00000  Uiso   1.00
C198   C     0.43442   0.92228   0.84101   0.00000  Uiso   1.00
C199   C     0.48213   0.02582   0.83393   0.00000  Uiso   1.00
C200   C     0.52864   0.02852   0.80198   0.00000  Uiso   1.00
C201   C     0.56762   0.13151   0.80091   0.00000  Uiso   1.00
C202   C     0.44267   0.88092   0.88821   0.00000  Uiso   1.00
C203   C     0.45599   0.76178   0.90189   0.00000  Uiso   1.00
C204   C     0.46173   0.74278   0.94651   0.00000  Uiso   1.00
C205   C     0.36922   0.98213   0.83851   0.00000  Uiso   1.00
C206   C     0.32078   0.94807   0.81041   0.00000  Uiso   1.00
C207   C     0.26468   0.01425   0.81319   0.00000  Uiso   1.00
H208   H     0.41522   0.17568   0.91913   0.00000  Uiso   1.00
H209   H     0.50804   0.30040   0.88581   0.00000  Uiso   1.00
H210   H     0.43538   0.03370   0.98571   0.00000  Uiso   1.00
H211   H     0.30020   0.21996   0.89424   0.00000  Uiso   1.00
H212   H     0.61418   0.39598   0.83573   0.00000  Uiso   1.00
H213   H     0.46097   0.83363   0.04637   0.00000  Uiso   1.00
H214   H     0.17591   0.22639   0.85348   0.00000  Uiso   1.00
H215   H     0.44012   0.84697   0.81779   0.00000  Uiso   1.00
H216   H     0.53430   0.95365   0.77891   0.00000  Uiso   1.00
H217   H     0.46165   0.68695   0.87881   0.00000  Uiso   1.00
H218   H     0.32647   0.87321   0.78734   0.00000  Uiso   1.00
H219   H     0.63550   0.11454   0.74897   0.00000  Uiso   1.00
H220   H     0.48228   0.55219   0.95961   0.00000  Uiso   1.00
H221   H     0.19723   0.94495   0.76672   0.00000  Uiso   1.00
O222   O     0.68636   0.33135   0.76861   0.00000  Uiso   1.00
O223   O     0.48533   0.59357   0.04496   0.00000  Uiso   1.00
O224   O     0.11135   0.10886   0.79190   0.00000  Uiso   1.00
N225   N     0.60626   0.31512   0.82064   0.00000  Uiso   1.00
N226   N     0.46303   0.78936   0.01757   0.00000  Uiso   1.00
N227   N     0.19652   0.15653   0.83725   0.00000  Uiso   1.00
N228   N     0.61774   0.16368   0.77395   0.00000  Uiso   1.00
N229   N     0.47450   0.63792   0.97089   0.00000  Uiso   1.00
N230   N     0.20799   0.00509   0.79056   0.00000  Uiso   1.00
C231   C     0.07907   0.39962   0.39591   0.00000  Uiso   1.00
C232   C     0.02520   0.37744   0.36375   0.00000  Uiso   1.00
C233   C     0.98628   0.27444   0.36273   0.00000  Uiso   1.00
C234   C     0.93972   0.27159   0.33078   0.00000  Uiso   1.00
C235   C     0.85716   0.22246   0.28540   0.00000  Uiso   1.00
C236   C     0.06466   0.52234   0.41803   0.00000  Uiso   1.00
C237   C     0.05894   0.54118   0.46264   0.00000  Uiso   1.00
C238   C     0.04561   0.66031   0.47638   0.00000  Uiso   1.00
C239   C     0.02437   0.83616   0.51527   0.00000  Uiso   1.00
C240   C     0.13811   0.42113   0.36833   0.00000  Uiso   1.00
C241   C     0.19415   0.35489   0.37116   0.00000  Uiso   1.00
C242   C     0.24266   0.38884   0.34306   0.00000  Uiso   1.00
C243   C     0.33545   0.40755   0.30478   0.00000  Uiso   1.00
C244   C     0.06558   0.57772   0.34101   0.00000  Uiso   1.00
C245   C     0.01787   0.47418   0.33393   0.00000  Uiso   1.00
C246   C     0.97136   0.47148   0.30198   0.00000  Uiso   1.00
C247   C     0.93238   0.36849   0.30091   0.00000  Uiso   1.00
C248   C     0.05733   0.61908   0.38821   0.00000  Uiso   1.00
C249   C     0.04401   0.73822   0.40189   0.00000  Uiso   1.00
C250   C     0.03827   0.75722   0.44651   0.00000  Uiso   1.00
C251   C     0.13078   0.51787   0.33851   0.00000  Uiso   1.00
C252   C     0.17922   0.55193   0.31041   0.00000  Uiso   1.00
C253   C     0.23532   0.48575   0.31319   0.00000  Uiso   1.00
H254   H     0.08478   0.32432   0.41913   0.00000  Uiso   1.00
H255   H     0.99196   0.19960   0.38581   0.00000  Uiso   1.00
H256   H     0.06462   0.46630   0.48571   0.00000  Uiso   1.00
H257   H     0.19980   0.28004   0.39424   0.00000  Uiso   1.00
H258   H     0.88582   0.10402   0.33573   0.00000  Uiso   1.00
H259   H     0.03903   0.66637   0.54637   0.00000  Uiso   1.00
H260   H     0.32409   0.27361   0.35348   0.00000  Uiso   1.00
H261   H     0.05988   0.65303   0.31779   0.00000  Uiso   1.00
H262   H     0.96570   0.54635   0.27891   0.00000  Uiso   1.00
H263   H     0.03835   0.81305   0.37881   0.00000  Uiso   1.00
H264   H     0.17353   0.62679   0.28734   0.00000  Uiso   1.00
H265   H     0.86450   0.38546   0.24897   0.00000  Uiso   1.00
H266   H     0.01772   0.94781   0.45961   0.00000  Uiso   1.00
H267   H     0.30277   0.55505   0.26672   0.00000  Uiso   1.00
O268   O     0.81364   0.16865   0.26861   0.00000  Uiso   1.00
O269   O     0.01467   0.90643   0.54496   0.00000  Uiso   1.00
O270   O     0.38865   0.39114   0.29190   0.00000  Uiso   1.00
N271   N     0.89374   0.18488   0.32064   0.00000  Uiso   1.00
N272   N     0.03697   0.71064   0.51757   0.00000  Uiso   1.00
N273   N     0.30348   0.34347   0.33725   0.00000  Uiso   1.00
N274   N     0.88226   0.33632   0.27395   0.00000  Uiso   1.00
N275   N     0.02550   0.86208   0.47089   0.00000  Uiso   1.00
N276   N     0.29201   0.49491   0.29056   0.00000  Uiso   1.00
C277   C     0.57907   0.10038   0.60409   0.00000  Uiso   1.00
C278   C     0.52520   0.12256   0.63625   0.00000  Uiso   1.00
C279   C     0.48628   0.22556   0.63727   0.00000  Uiso   1.00
C280   C     0.43972   0.22841   0.66922   0.00000  Uiso   1.00
C281   C     0.35716   0.27754   0.71460   0.00000  Uiso   1.00
C282   C     0.56466   0.97766   0.58197   0.00000  Uiso   1.00
C283   C     0.55894   0.95882   0.53736   0.00000  Uiso   1.00
C284   C     0.54561   0.83969   0.52362   0.00000  Uiso   1.00
C285   C     0.52437   0.66384   0.48473   0.00000  Uiso   1.00
C286   C     0.63811   0.07887   0.63167   0.00000  Uiso   1.00
C287   C     0.69415   0.14511   0.62884   0.00000  Uiso   1.00
C288   C     0.74266   0.11116   0.65694   0.00000  Uiso   1.00
C289   C     0.83545   0.09245   0.69522   0.00000  Uiso   1.00
C290   C     0.56558   0.92228   0.65899   0.00000  Uiso   1.00
C291   C     0.51787   0.02582   0.66607   0.00000  Uiso   1.00
C292   C     0.47136   0.02852   0.69802   0.00000  Uiso   1.00
C293   C     0.43238   0.13151   0.69909   0.00000  Uiso   1.00
C294   C     0.55733   0.88092   0.61179   0.00000  Uiso   1.00
C295   C     0.54401   0.76178   0.59811   0.00000  Uiso   1.00
C296   C     0.53827   0.74278   0.55349   0.00000  Uiso   1.00
C297   C     0.63078   0.98213   0.66149   0.00000  Uiso   1.00
C298   C     0.67922   0.94807   0.68959   0.00000  Uiso   1.00
C299   C     0.73532   0.01425   0.68681   0.00000  Uiso   1.00
H300   H     0.58478   0.17568   0.58087   0.00000  Uiso   1.00
H301   H     0.49196   0.30040   0.61419   0.00000  Uiso   1.00
H302   H     0.56462   0.03370   0.51429   0.00000  Uiso   1.00
H303   H     0.69980   0.21996   0.60576   0.00000  Uiso   1.00
H304   H     0.38582   0.39598   0.66427   0.00000  Uiso   1.00
H305   H     0.53903   0.83363   0.45363   0.00000  Uiso   1.00
H306   H     0.82409   0.22639   0.64652   0.00000  Uiso   1.00
H307   H     0.55988   0.84697   0.68221   0.00000  Uiso   1.00
H308   H     0.46570   0.95365   0.72109   0.00000  Uiso   1.00
H309   H     0.53835   0.68695   0.62119   0.00000  Uiso   1.00
H310   H     0.67353   0.87321   0.71266   0.00000  Uiso   1.00
H311   H     0.36450   0.11454   0.75103   0.00000  Uiso   1.00
H312   H     0.51772   0.55219   0.54039   0.00000  Uiso   1.00
H313   H     0.80277   0.94495   0.73328   0.00000  Uiso   1.00
O314   O     0.31364   0.33135   0.73139   0.00000  Uiso   1.00
O315   O     0.51467   0.59357   0.45504   0.00000  Uiso   1.00
O316   O     0.88865   0.10886   0.70810   0.00000  Uiso   1.00
N317   N     0.39374   0.31512   0.67936   0.00000  Uiso   1.00
N318   N     0.53697   0.78936   0.48243   0.00000  Uiso   1.00
N319   N     0.80348   0.15653   0.66275   0.00000  Uiso   1.00
N320   N     0.38226   0.16368   0.72605   0.00000  Uiso   1.00
N321   N     0.52550   0.63792   0.52911   0.00000  Uiso   1.00
N322   N     0.79201   0.00509   0.70944   0.00000  Uiso   1.00
C323   C     0.92093   0.39962   0.10409   0.00000  Uiso   1.00
C324   C     0.97480   0.37744   0.13625   0.00000  Uiso   1.00
C325   C     0.01372   0.27444   0.13727   0.00000  Uiso   1.00
C326   C     0.06028   0.27159   0.16922   0.00000  Uiso   1.00
C327   C     0.14284   0.22246   0.21460   0.00000  Uiso   1.00
C328   C     0.93534   0.52234   0.08197   0.00000  Uiso   1.00
C329   C     0.94106   0.54118   0.03736   0.00000  Uiso   1.00
C330   C     0.95439   0.66031   0.02362   0.00000  Uiso   1.00
C331   C     0.97563   0.83616   0.98473   0.00000  Uiso   1.00
C332   C     0.86189   0.42113   0.13167   0.00000  Uiso   1.00
C333   C     0.80585   0.35489   0.12884   0.00000  Uiso   1.00
C334   C     0.75734   0.38884   0.15694   0.00000  Uiso   1.00
C335   C     0.66455   0.40755   0.19522   0.00000  Uiso   1.00
C336   C     0.93442   0.57772   0.15899   0.00000  Uiso   1.00
C337   C     0.98213   0.47418   0.16607   0.00000  Uiso   1.00
C338   C     0.02864   0.47148   0.19802   0.00000  Uiso   1.00
C339   C     0.06762   0.36849   0.19909   0.00000  Uiso   1.00
C340   C     0.94267   0.61908   0.11179   0.00000  Uiso   1.00
C341   C     0.95599   0.73822   0.09811   0.00000  Uiso   1.00
C342   C     0.96173   0.75722   0.05349   0.00000  Uiso   1.00
C343   C     0.86922   0.51787   0.16149   0.00000  Uiso   1.00
C344   C     0.82078   0.55193   0.18959   0.00000  Uiso   1.00
C345   C     0.76468   0.48575   0.18681   0.00000  Uiso   1.00
H346   H     0.91522   0.32432   0.08087   0.00000  Uiso   1.00
H347   H     0.00804   0.19960   0.11419   0.00000  Uiso   1.00
H348   H     0.93538   0.46630   0.01429   0.00000  Uiso   1.00
H349   H     0.80020   0.28004   0.10576   0.00000  Uiso   1.00
H350   H     0.11418   0.10402   0.16427   0.00000  Uiso   1.00
H351   H     0.96097   0.66637   0.95363   0.00000  Uiso   1.00
H352   H     0.67591   0.27361   0.14652   0.00000  Uiso   1.00
H353   H     0.94012   0.65303   0.18221   0.00000  Uiso   1.00
H354   H     0.03430   0.54635   0.22109   0.00000  Uiso   1.00
H355   H     0.96165   0.81305   0.12119   0.00000  Uiso   1.00
H356   H     0.82647   0.62679   0.21266   0.00000  Uiso   1.00
H357   H     0.13550   0.38546   0.25103   0.00000  Uiso   1.00
H358   H     0.98228   0.94781   0.04039   0.00000  Uiso   1.00
H359   H     0.69723   0.55505   0.23328   0.00000  Uiso   1.00
O360   O     0.18636   0.16865   0.23139   0.00000  Uiso   1.00
O361   O     0.98533   0.90643   0.95504   0.00000  Uiso   1.00
O362   O     0.61135   0.39114   0.20810   0.00000  Uiso   1.00
N363   N     0.10626   0.18488   0.17936   0.00000  Uiso   1.00
N364   N     0.96303   0.71064   0.98243   0.00000  Uiso   1.00
N365   N     0.69652   0.34347   0.16275   0.00000  Uiso   1.00
N366   N     0.11774   0.33632   0.22605   0.00000  Uiso   1.00
N367   N     0.97450   0.86208   0.02911   0.00000  Uiso   1.00
N368   N     0.70799   0.49491   0.20944   0.00000  Uiso   1.00
