data_job_04890
_audit_creation_date              2018-12-19
_audit_creation_method            'Materials Studio'
_symmetry_space_group_name_H-M    'P1'
_symmetry_Int_Tables_number       1
_symmetry_cell_setting            triclinic
loop_
_symmetry_equiv_pos_as_xyz
  x,y,z
_cell_length_a                    11.1420
_cell_length_b                    17.5853
_cell_length_c                    33.6970
_cell_angle_alpha                 90.0000
_cell_angle_beta                  90.0000
_cell_angle_gamma                 90.0000
loop_
_atom_site_label
_atom_site_type_symbol
_atom_site_fract_x
_atom_site_fract_y
_atom_site_fract_z
_atom_site_U_iso_or_equiv
_atom_site_adp_type
_atom_site_occupancy
C1     C     0.63666   0.71872   0.13050   0.00000  Uiso   1.00
C2     C     0.57589   0.77773   0.10412   0.00000  Uiso   1.00
C3     C     0.56505   0.85470   0.11247   0.00000  Uiso   1.00
C4     C     0.50632   0.89924   0.08454   0.00000  Uiso   1.00
C5     C     0.41893   0.99563   0.04891   0.00000  Uiso   1.00
C6     C     0.54274   0.65742   0.13825   0.00000  Uiso   1.00
C7     C     0.50404   0.63324   0.17531   0.00000  Uiso   1.00
C8     C     0.41742   0.57650   0.17611   0.00000  Uiso   1.00
C9     C     0.27863   0.48607   0.19348   0.00000  Uiso   1.00
C10    C     0.73307   0.68143   0.10495   0.00000  Uiso   1.00
C11    C     0.85441   0.67741   0.11401   0.00000  Uiso   1.00
C12    C     0.92804   0.64087   0.08678   0.00000  Uiso   1.00
C13    C     0.08478   0.58772   0.05244   0.00000  Uiso   1.00
C14    C     0.55164   0.66096   0.06604   0.00000  Uiso   1.00
C15    C     0.52971   0.74635   0.06910   0.00000  Uiso   1.00
C16    C     0.47098   0.79079   0.04115   0.00000  Uiso   1.00
C17    C     0.46006   0.86782   0.04946   0.00000  Uiso   1.00
C18    C     0.49656   0.62605   0.10324   0.00000  Uiso   1.00
C19    C     0.40998   0.56933   0.10399   0.00000  Uiso   1.00
C20    C     0.37115   0.54507   0.14104   0.00000  Uiso   1.00
C21    C     0.68690   0.65006   0.06994   0.00000  Uiso   1.00
C22    C     0.76035   0.61351   0.04269   0.00000  Uiso   1.00
C23    C     0.88178   0.60944   0.05170   0.00000  Uiso   1.00
H24    H     0.67260   0.74315   0.15776   0.00000  Uiso   1.00
H25    H     0.60079   0.87896   0.13957   0.00000  Uiso   1.00
H26    H     0.53980   0.65752   0.20240   0.00000  Uiso   1.00
H27    H     0.89012   0.70170   0.14111   0.00000  Uiso   1.00
H28    H     0.50076   0.01569   0.10398   0.00000  Uiso   1.00
H29    H     0.37220   0.54876   0.23645   0.00000  Uiso   1.00
H30    H     0.11091   0.64191   0.10721   0.00000  Uiso   1.00
H31    H     0.51568   0.63653   0.03877   0.00000  Uiso   1.00
H32    H     0.43526   0.76650   0.01406   0.00000  Uiso   1.00
H33    H     0.37427   0.54506   0.07689   0.00000  Uiso   1.00
H34    H     0.72458   0.58924   0.01560   0.00000  Uiso   1.00
H35    H     0.36640   0.92441   0.00211   0.00000  Uiso   1.00
H36    H     0.23784   0.45748   0.13458   0.00000  Uiso   1.00
H37    H     0.97655   0.55063   0.00534   0.00000  Uiso   1.00
O38    O     0.38347   0.05746   0.03894   0.00000  Uiso   1.00
O39    O     0.21482   0.44487   0.21274   0.00000  Uiso   1.00
O40    O     0.18399   0.56708   0.04317   0.00000  Uiso   1.00
N41    N     0.48020   0.97637   0.08339   0.00000  Uiso   1.00
N42    N     0.35999   0.53983   0.20725   0.00000  Uiso   1.00
N43    N     0.05061   0.62690   0.08642   0.00000  Uiso   1.00
N44    N     0.40790   0.92726   0.02857   0.00000  Uiso   1.00
N45    N     0.28769   0.49072   0.15243   0.00000  Uiso   1.00
N46    N     0.97832   0.57778   0.03160   0.00000  Uiso   1.00
C47    C     0.54948   0.72264   0.86631   0.00000  Uiso   1.00
C48    C     0.60708   0.78242   0.89300   0.00000  Uiso   1.00
C49    C     0.61426   0.85968   0.88495   0.00000  Uiso   1.00
C50    C     0.67052   0.90495   0.91313   0.00000  Uiso   1.00
C51    C     0.75282   0.00247   0.94923   0.00000  Uiso   1.00
C52    C     0.64641   0.66332   0.85843   0.00000  Uiso   1.00
C53    C     0.68663   0.64043   0.82133   0.00000  Uiso   1.00
C54    C     0.77598   0.58542   0.82040   0.00000  Uiso   1.00
C55    C     0.91927   0.49799   0.80285   0.00000  Uiso   1.00
C56    C     0.45466   0.68312   0.89160   0.00000  Uiso   1.00
C57    C     0.33366   0.67687   0.88238   0.00000  Uiso   1.00
C58    C     0.26157   0.63852   0.90938   0.00000  Uiso   1.00
C59    C     0.10714   0.58184   0.94332   0.00000  Uiso   1.00
C60    C     0.63661   0.66563   0.93065   0.00000  Uiso   1.00
C61    C     0.65441   0.75145   0.92794   0.00000  Uiso   1.00
C62    C     0.71066   0.79661   0.95613   0.00000  Uiso   1.00
C63    C     0.71793   0.87392   0.94813   0.00000  Uiso   1.00
C64    C     0.69373   0.63235   0.89337   0.00000  Uiso   1.00
C65    C     0.78303   0.57736   0.89251   0.00000  Uiso   1.00
C66    C     0.82339   0.55440   0.85541   0.00000  Uiso   1.00
C67    C     0.50198   0.65215   0.92655   0.00000  Uiso   1.00
C68    C     0.43006   0.61380   0.95356   0.00000  Uiso   1.00
C69    C     0.30898   0.60749   0.94439   0.00000  Uiso   1.00
H70    H     0.51264   0.74675   0.83911   0.00000  Uiso   1.00
H71    H     0.57764   0.88363   0.85790   0.00000  Uiso   1.00
H72    H     0.64998   0.66440   0.79429   0.00000  Uiso   1.00
H73    H     0.29707   0.70084   0.85534   0.00000  Uiso   1.00
H74    H     0.67062   0.02172   0.89415   0.00000  Uiso   1.00
H75    H     0.82314   0.55946   0.76001   0.00000  Uiso   1.00
H76    H     0.07895   0.63629   0.88874   0.00000  Uiso   1.00
H77    H     0.67345   0.64152   0.95786   0.00000  Uiso   1.00
H78    H     0.74728   0.77263   0.98317   0.00000  Uiso   1.00
H79    H     0.81963   0.55340   0.91955   0.00000  Uiso   1.00
H80    H     0.46672   0.58984   0.98060   0.00000  Uiso   1.00
H81    H     0.80831   0.93163   0.99582   0.00000  Uiso   1.00
H82    H     0.96083   0.46936   0.86168   0.00000  Uiso   1.00
H83    H     0.21664   0.54620   0.99041   0.00000  Uiso   1.00
O84    O     0.78516   0.06481   0.95949   0.00000  Uiso   1.00
O85    O     0.98524   0.45833   0.78351   0.00000  Uiso   1.00
O86    O     0.00889   0.55914   0.95240   0.00000  Uiso   1.00
N87    N     0.69287   0.98253   0.91461   0.00000  Uiso   1.00
N88    N     0.83548   0.55035   0.78920   0.00000  Uiso   1.00
N89    N     0.13973   0.62216   0.90954   0.00000  Uiso   1.00
N90    N     0.76696   0.93405   0.96932   0.00000  Uiso   1.00
N91    N     0.90957   0.50187   0.84390   0.00000  Uiso   1.00
N92    N     0.21382   0.57368   0.96425   0.00000  Uiso   1.00
C93    C     0.36334   0.28128   0.63050   0.00000  Uiso   1.00
C94    C     0.42411   0.22227   0.60412   0.00000  Uiso   1.00
C95    C     0.43495   0.14530   0.61247   0.00000  Uiso   1.00
C96    C     0.49368   0.10076   0.58454   0.00000  Uiso   1.00
C97    C     0.58107   0.00437   0.54891   0.00000  Uiso   1.00
C98    C     0.45726   0.34258   0.63825   0.00000  Uiso   1.00
C99    C     0.49596   0.36676   0.67531   0.00000  Uiso   1.00
C100   C     0.58258   0.42350   0.67611   0.00000  Uiso   1.00
C101   C     0.72137   0.51393   0.69348   0.00000  Uiso   1.00
C102   C     0.26693   0.31857   0.60495   0.00000  Uiso   1.00
C103   C     0.14559   0.32259   0.61401   0.00000  Uiso   1.00
C104   C     0.07196   0.35913   0.58678   0.00000  Uiso   1.00
C105   C     0.91522   0.41228   0.55244   0.00000  Uiso   1.00
C106   C     0.44836   0.33904   0.56604   0.00000  Uiso   1.00
C107   C     0.47029   0.25365   0.56910   0.00000  Uiso   1.00
C108   C     0.52902   0.20921   0.54115   0.00000  Uiso   1.00
C109   C     0.53994   0.13218   0.54946   0.00000  Uiso   1.00
C110   C     0.50344   0.37395   0.60324   0.00000  Uiso   1.00
C111   C     0.59002   0.43067   0.60399   0.00000  Uiso   1.00
C112   C     0.62885   0.45493   0.64104   0.00000  Uiso   1.00
C113   C     0.31310   0.34994   0.56994   0.00000  Uiso   1.00
C114   C     0.23965   0.38649   0.54269   0.00000  Uiso   1.00
C115   C     0.11822   0.39056   0.55170   0.00000  Uiso   1.00
H116   H     0.32740   0.25685   0.65776   0.00000  Uiso   1.00
H117   H     0.39921   0.12104   0.63957   0.00000  Uiso   1.00
H118   H     0.46020   0.34248   0.70240   0.00000  Uiso   1.00
H119   H     0.10988   0.29830   0.64111   0.00000  Uiso   1.00
H120   H     0.49924   0.98431   0.60398   0.00000  Uiso   1.00
H121   H     0.62780   0.45124   0.73645   0.00000  Uiso   1.00
H122   H     0.88909   0.35809   0.60721   0.00000  Uiso   1.00
H123   H     0.48432   0.36347   0.53877   0.00000  Uiso   1.00
H124   H     0.56474   0.23350   0.51406   0.00000  Uiso   1.00
H125   H     0.62573   0.45494   0.57689   0.00000  Uiso   1.00
H126   H     0.27542   0.41076   0.51560   0.00000  Uiso   1.00
H127   H     0.63360   0.07559   0.50211   0.00000  Uiso   1.00
H128   H     0.76216   0.54252   0.63458   0.00000  Uiso   1.00
H129   H     0.02345   0.44937   0.50534   0.00000  Uiso   1.00
O130   O     0.61653   0.94254   0.53894   0.00000  Uiso   1.00
O131   O     0.78518   0.55513   0.71274   0.00000  Uiso   1.00
O132   O     0.81601   0.43292   0.54317   0.00000  Uiso   1.00
N133   N     0.51980   0.02363   0.58339   0.00000  Uiso   1.00
N134   N     0.64001   0.46017   0.70725   0.00000  Uiso   1.00
N135   N     0.94939   0.37310   0.58642   0.00000  Uiso   1.00
N136   N     0.59210   0.07274   0.52857   0.00000  Uiso   1.00
N137   N     0.71231   0.50928   0.65243   0.00000  Uiso   1.00
N138   N     0.02168   0.42222   0.53160   0.00000  Uiso   1.00
C139   C     0.45052   0.27736   0.36631   0.00000  Uiso   1.00
C140   C     0.39292   0.21758   0.39300   0.00000  Uiso   1.00
C141   C     0.38574   0.14032   0.38495   0.00000  Uiso   1.00
C142   C     0.32948   0.09505   0.41313   0.00000  Uiso   1.00
C143   C     0.24718   0.99753   0.44923   0.00000  Uiso   1.00
C144   C     0.35359   0.33668   0.35843   0.00000  Uiso   1.00
C145   C     0.31337   0.35957   0.32133   0.00000  Uiso   1.00
C146   C     0.22402   0.41458   0.32040   0.00000  Uiso   1.00
C147   C     0.08073   0.50201   0.30285   0.00000  Uiso   1.00
C148   C     0.54534   0.31688   0.39160   0.00000  Uiso   1.00
C149   C     0.66634   0.32313   0.38238   0.00000  Uiso   1.00
C150   C     0.73843   0.36148   0.40938   0.00000  Uiso   1.00
C151   C     0.89286   0.41816   0.44332   0.00000  Uiso   1.00
C152   C     0.36339   0.33437   0.43065   0.00000  Uiso   1.00
C153   C     0.34559   0.24855   0.42794   0.00000  Uiso   1.00
C154   C     0.28934   0.20339   0.45613   0.00000  Uiso   1.00
C155   C     0.28207   0.12608   0.44813   0.00000  Uiso   1.00
C156   C     0.30627   0.36765   0.39337   0.00000  Uiso   1.00
C157   C     0.21697   0.42264   0.39251   0.00000  Uiso   1.00
C158   C     0.17661   0.44560   0.35541   0.00000  Uiso   1.00
C159   C     0.49802   0.34785   0.42655   0.00000  Uiso   1.00
C160   C     0.56994   0.38620   0.45356   0.00000  Uiso   1.00
C161   C     0.69102   0.39251   0.44439   0.00000  Uiso   1.00
H162   H     0.48736   0.25325   0.33911   0.00000  Uiso   1.00
H163   H     0.42236   0.11637   0.35790   0.00000  Uiso   1.00
H164   H     0.35002   0.33560   0.29429   0.00000  Uiso   1.00
H165   H     0.70293   0.29916   0.35534   0.00000  Uiso   1.00
H166   H     0.32938   0.97828   0.39415   0.00000  Uiso   1.00
H167   H     0.17686   0.44054   0.26001   0.00000  Uiso   1.00
H168   H     0.92105   0.36371   0.38874   0.00000  Uiso   1.00
H169   H     0.32655   0.35848   0.45786   0.00000  Uiso   1.00
H170   H     0.25272   0.22737   0.48317   0.00000  Uiso   1.00
H171   H     0.18037   0.44660   0.41955   0.00000  Uiso   1.00
H172   H     0.53328   0.41016   0.48060   0.00000  Uiso   1.00
H173   H     0.19169   0.06837   0.49582   0.00000  Uiso   1.00
H174   H     0.03917   0.53064   0.36168   0.00000  Uiso   1.00
H175   H     0.78336   0.45380   0.49041   0.00000  Uiso   1.00
O176   O     0.21484   0.93519   0.45949   0.00000  Uiso   1.00
O177   O     0.01476   0.54167   0.28351   0.00000  Uiso   1.00
O178   O     0.99111   0.44086   0.45240   0.00000  Uiso   1.00
N179   N     0.30713   0.01747   0.41461   0.00000  Uiso   1.00
N180   N     0.16452   0.44965   0.28920   0.00000  Uiso   1.00
N181   N     0.86027   0.37784   0.40954   0.00000  Uiso   1.00
N182   N     0.23304   0.06595   0.46932   0.00000  Uiso   1.00
N183   N     0.09043   0.49813   0.34390   0.00000  Uiso   1.00
N184   N     0.78618   0.42632   0.46425   0.00000  Uiso   1.00
C185   C     0.13666   0.28128   0.13050   0.00000  Uiso   1.00
C186   C     0.07589   0.22227   0.10412   0.00000  Uiso   1.00
C187   C     0.06505   0.14530   0.11247   0.00000  Uiso   1.00
C188   C     0.00632   0.10076   0.08454   0.00000  Uiso   1.00
C189   C     0.91893   0.00437   0.04891   0.00000  Uiso   1.00
C190   C     0.04274   0.34258   0.13825   0.00000  Uiso   1.00
C191   C     0.00404   0.36676   0.17531   0.00000  Uiso   1.00
C192   C     0.91742   0.42350   0.17611   0.00000  Uiso   1.00
C193   C     0.77863   0.51393   0.19348   0.00000  Uiso   1.00
C194   C     0.23307   0.31857   0.10495   0.00000  Uiso   1.00
C195   C     0.35441   0.32259   0.11401   0.00000  Uiso   1.00
C196   C     0.42804   0.35913   0.08678   0.00000  Uiso   1.00
C197   C     0.58478   0.41228   0.05244   0.00000  Uiso   1.00
C198   C     0.05164   0.33904   0.06604   0.00000  Uiso   1.00
C199   C     0.02971   0.25365   0.06910   0.00000  Uiso   1.00
C200   C     0.97098   0.20921   0.04115   0.00000  Uiso   1.00
C201   C     0.96006   0.13218   0.04946   0.00000  Uiso   1.00
C202   C     0.99656   0.37395   0.10324   0.00000  Uiso   1.00
C203   C     0.90998   0.43067   0.10399   0.00000  Uiso   1.00
C204   C     0.87115   0.45493   0.14104   0.00000  Uiso   1.00
C205   C     0.18690   0.34994   0.06994   0.00000  Uiso   1.00
C206   C     0.26035   0.38649   0.04269   0.00000  Uiso   1.00
C207   C     0.38178   0.39056   0.05170   0.00000  Uiso   1.00
H208   H     0.17260   0.25685   0.15776   0.00000  Uiso   1.00
H209   H     0.10079   0.12104   0.13957   0.00000  Uiso   1.00
H210   H     0.03980   0.34248   0.20240   0.00000  Uiso   1.00
H211   H     0.39012   0.29830   0.14111   0.00000  Uiso   1.00
H212   H     0.00076   0.98431   0.10398   0.00000  Uiso   1.00
H213   H     0.87220   0.45124   0.23645   0.00000  Uiso   1.00
H214   H     0.61091   0.35809   0.10721   0.00000  Uiso   1.00
H215   H     0.01568   0.36347   0.03877   0.00000  Uiso   1.00
H216   H     0.93526   0.23350   0.01406   0.00000  Uiso   1.00
H217   H     0.87427   0.45494   0.07689   0.00000  Uiso   1.00
H218   H     0.22458   0.41076   0.01560   0.00000  Uiso   1.00
H219   H     0.86640   0.07559   0.00211   0.00000  Uiso   1.00
H220   H     0.73784   0.54252   0.13458   0.00000  Uiso   1.00
H221   H     0.47655   0.44937   0.00534   0.00000  Uiso   1.00
O222   O     0.88347   0.94254   0.03894   0.00000  Uiso   1.00
O223   O     0.71482   0.55513   0.21274   0.00000  Uiso   1.00
O224   O     0.68399   0.43292   0.04317   0.00000  Uiso   1.00
N225   N     0.98020   0.02363   0.08339   0.00000  Uiso   1.00
N226   N     0.85999   0.46017   0.20725   0.00000  Uiso   1.00
N227   N     0.55061   0.37310   0.08642   0.00000  Uiso   1.00
N228   N     0.90790   0.07274   0.02857   0.00000  Uiso   1.00
N229   N     0.78769   0.50928   0.15243   0.00000  Uiso   1.00
N230   N     0.47832   0.42222   0.03160   0.00000  Uiso   1.00
C231   C     0.04948   0.27736   0.86631   0.00000  Uiso   1.00
C232   C     0.10708   0.21758   0.89300   0.00000  Uiso   1.00
C233   C     0.11426   0.14032   0.88495   0.00000  Uiso   1.00
C234   C     0.17052   0.09505   0.91313   0.00000  Uiso   1.00
C235   C     0.25282   0.99753   0.94923   0.00000  Uiso   1.00
C236   C     0.14641   0.33668   0.85843   0.00000  Uiso   1.00
C237   C     0.18663   0.35957   0.82133   0.00000  Uiso   1.00
C238   C     0.27598   0.41458   0.82040   0.00000  Uiso   1.00
C239   C     0.41927   0.50201   0.80285   0.00000  Uiso   1.00
C240   C     0.95466   0.31688   0.89160   0.00000  Uiso   1.00
C241   C     0.83366   0.32313   0.88238   0.00000  Uiso   1.00
C242   C     0.76157   0.36148   0.90938   0.00000  Uiso   1.00
C243   C     0.60714   0.41816   0.94332   0.00000  Uiso   1.00
C244   C     0.13661   0.33437   0.93065   0.00000  Uiso   1.00
C245   C     0.15441   0.24855   0.92794   0.00000  Uiso   1.00
C246   C     0.21066   0.20339   0.95613   0.00000  Uiso   1.00
C247   C     0.21793   0.12608   0.94813   0.00000  Uiso   1.00
C248   C     0.19373   0.36765   0.89337   0.00000  Uiso   1.00
C249   C     0.28303   0.42264   0.89251   0.00000  Uiso   1.00
C250   C     0.32339   0.44560   0.85541   0.00000  Uiso   1.00
C251   C     0.00198   0.34785   0.92655   0.00000  Uiso   1.00
C252   C     0.93006   0.38620   0.95356   0.00000  Uiso   1.00
C253   C     0.80898   0.39251   0.94439   0.00000  Uiso   1.00
H254   H     0.01264   0.25325   0.83911   0.00000  Uiso   1.00
H255   H     0.07764   0.11637   0.85790   0.00000  Uiso   1.00
H256   H     0.14998   0.33560   0.79429   0.00000  Uiso   1.00
H257   H     0.79707   0.29916   0.85534   0.00000  Uiso   1.00
H258   H     0.17062   0.97828   0.89415   0.00000  Uiso   1.00
H259   H     0.32314   0.44054   0.76001   0.00000  Uiso   1.00
H260   H     0.57895   0.36371   0.88874   0.00000  Uiso   1.00
H261   H     0.17345   0.35848   0.95786   0.00000  Uiso   1.00
H262   H     0.24728   0.22737   0.98317   0.00000  Uiso   1.00
H263   H     0.31963   0.44660   0.91955   0.00000  Uiso   1.00
H264   H     0.96672   0.41016   0.98060   0.00000  Uiso   1.00
H265   H     0.30831   0.06837   0.99582   0.00000  Uiso   1.00
H266   H     0.46083   0.53064   0.86168   0.00000  Uiso   1.00
H267   H     0.71664   0.45380   0.99041   0.00000  Uiso   1.00
O268   O     0.28516   0.93519   0.95949   0.00000  Uiso   1.00
O269   O     0.48524   0.54167   0.78351   0.00000  Uiso   1.00
O270   O     0.50889   0.44086   0.95240   0.00000  Uiso   1.00
N271   N     0.19287   0.01747   0.91461   0.00000  Uiso   1.00
N272   N     0.33548   0.44965   0.78920   0.00000  Uiso   1.00
N273   N     0.63973   0.37784   0.90954   0.00000  Uiso   1.00
N274   N     0.26696   0.06595   0.96932   0.00000  Uiso   1.00
N275   N     0.40957   0.49813   0.84390   0.00000  Uiso   1.00
N276   N     0.71382   0.42632   0.96425   0.00000  Uiso   1.00
C277   C     0.86334   0.71872   0.63050   0.00000  Uiso   1.00
C278   C     0.92411   0.77773   0.60412   0.00000  Uiso   1.00
C279   C     0.93495   0.85470   0.61247   0.00000  Uiso   1.00
C280   C     0.99368   0.89924   0.58454   0.00000  Uiso   1.00
C281   C     0.08107   0.99563   0.54891   0.00000  Uiso   1.00
C282   C     0.95726   0.65742   0.63825   0.00000  Uiso   1.00
C283   C     0.99596   0.63324   0.67531   0.00000  Uiso   1.00
C284   C     0.08258   0.57650   0.67611   0.00000  Uiso   1.00
C285   C     0.22137   0.48607   0.69348   0.00000  Uiso   1.00
C286   C     0.76693   0.68143   0.60495   0.00000  Uiso   1.00
C287   C     0.64559   0.67741   0.61401   0.00000  Uiso   1.00
C288   C     0.57196   0.64087   0.58678   0.00000  Uiso   1.00
C289   C     0.41522   0.58772   0.55244   0.00000  Uiso   1.00
C290   C     0.94836   0.66096   0.56604   0.00000  Uiso   1.00
C291   C     0.97029   0.74635   0.56910   0.00000  Uiso   1.00
C292   C     0.02902   0.79079   0.54115   0.00000  Uiso   1.00
C293   C     0.03994   0.86782   0.54946   0.00000  Uiso   1.00
C294   C     0.00344   0.62605   0.60324   0.00000  Uiso   1.00
C295   C     0.09002   0.56933   0.60399   0.00000  Uiso   1.00
C296   C     0.12885   0.54507   0.64104   0.00000  Uiso   1.00
C297   C     0.81310   0.65006   0.56994   0.00000  Uiso   1.00
C298   C     0.73965   0.61351   0.54269   0.00000  Uiso   1.00
C299   C     0.61822   0.60944   0.55170   0.00000  Uiso   1.00
H300   H     0.82740   0.74315   0.65776   0.00000  Uiso   1.00
H301   H     0.89921   0.87896   0.63957   0.00000  Uiso   1.00
H302   H     0.96020   0.65752   0.70240   0.00000  Uiso   1.00
H303   H     0.60988   0.70170   0.64111   0.00000  Uiso   1.00
H304   H     0.99924   0.01569   0.60398   0.00000  Uiso   1.00
H305   H     0.12780   0.54876   0.73645   0.00000  Uiso   1.00
H306   H     0.38909   0.64191   0.60721   0.00000  Uiso   1.00
H307   H     0.98432   0.63653   0.53877   0.00000  Uiso   1.00
H308   H     0.06474   0.76650   0.51406   0.00000  Uiso   1.00
H309   H     0.12573   0.54506   0.57689   0.00000  Uiso   1.00
H310   H     0.77542   0.58924   0.51560   0.00000  Uiso   1.00
H311   H     0.13360   0.92441   0.50211   0.00000  Uiso   1.00
H312   H     0.26216   0.45748   0.63458   0.00000  Uiso   1.00
H313   H     0.52345   0.55063   0.50534   0.00000  Uiso   1.00
O314   O     0.11653   0.05746   0.53894   0.00000  Uiso   1.00
O315   O     0.28518   0.44487   0.71274   0.00000  Uiso   1.00
O316   O     0.31601   0.56708   0.54317   0.00000  Uiso   1.00
N317   N     0.01980   0.97637   0.58339   0.00000  Uiso   1.00
N318   N     0.14001   0.53983   0.70725   0.00000  Uiso   1.00
N319   N     0.44939   0.62690   0.58642   0.00000  Uiso   1.00
N320   N     0.09210   0.92726   0.52857   0.00000  Uiso   1.00
N321   N     0.21231   0.49072   0.65243   0.00000  Uiso   1.00
N322   N     0.52168   0.57778   0.53160   0.00000  Uiso   1.00
C323   C     0.95052   0.72264   0.36631   0.00000  Uiso   1.00
C324   C     0.89292   0.78242   0.39300   0.00000  Uiso   1.00
C325   C     0.88574   0.85968   0.38495   0.00000  Uiso   1.00
C326   C     0.82948   0.90495   0.41313   0.00000  Uiso   1.00
C327   C     0.74718   0.00247   0.44923   0.00000  Uiso   1.00
C328   C     0.85359   0.66332   0.35843   0.00000  Uiso   1.00
C329   C     0.81337   0.64043   0.32133   0.00000  Uiso   1.00
C330   C     0.72402   0.58542   0.32040   0.00000  Uiso   1.00
C331   C     0.58073   0.49799   0.30285   0.00000  Uiso   1.00
C332   C     0.04534   0.68312   0.39160   0.00000  Uiso   1.00
C333   C     0.16634   0.67687   0.38238   0.00000  Uiso   1.00
C334   C     0.23843   0.63852   0.40938   0.00000  Uiso   1.00
C335   C     0.39286   0.58184   0.44332   0.00000  Uiso   1.00
C336   C     0.86339   0.66563   0.43065   0.00000  Uiso   1.00
C337   C     0.84559   0.75145   0.42794   0.00000  Uiso   1.00
C338   C     0.78934   0.79661   0.45613   0.00000  Uiso   1.00
C339   C     0.78207   0.87392   0.44813   0.00000  Uiso   1.00
C340   C     0.80627   0.63235   0.39337   0.00000  Uiso   1.00
C341   C     0.71697   0.57736   0.39251   0.00000  Uiso   1.00
C342   C     0.67661   0.55440   0.35541   0.00000  Uiso   1.00
C343   C     0.99802   0.65215   0.42655   0.00000  Uiso   1.00
C344   C     0.06994   0.61380   0.45356   0.00000  Uiso   1.00
C345   C     0.19102   0.60749   0.44439   0.00000  Uiso   1.00
H346   H     0.98736   0.74675   0.33911   0.00000  Uiso   1.00
H347   H     0.92236   0.88363   0.35790   0.00000  Uiso   1.00
H348   H     0.85002   0.66440   0.29429   0.00000  Uiso   1.00
H349   H     0.20293   0.70084   0.35534   0.00000  Uiso   1.00
H350   H     0.82938   0.02172   0.39415   0.00000  Uiso   1.00
H351   H     0.67686   0.55946   0.26001   0.00000  Uiso   1.00
H352   H     0.42105   0.63629   0.38874   0.00000  Uiso   1.00
H353   H     0.82655   0.64152   0.45786   0.00000  Uiso   1.00
H354   H     0.75272   0.77263   0.48317   0.00000  Uiso   1.00
H355   H     0.68037   0.55340   0.41955   0.00000  Uiso   1.00
H356   H     0.03328   0.58984   0.48060   0.00000  Uiso   1.00
H357   H     0.69169   0.93163   0.49582   0.00000  Uiso   1.00
H358   H     0.53917   0.46936   0.36168   0.00000  Uiso   1.00
H359   H     0.28336   0.54620   0.49041   0.00000  Uiso   1.00
O360   O     0.71484   0.06481   0.45949   0.00000  Uiso   1.00
O361   O     0.51476   0.45833   0.28351   0.00000  Uiso   1.00
O362   O     0.49111   0.55914   0.45240   0.00000  Uiso   1.00
N363   N     0.80713   0.98253   0.41461   0.00000  Uiso   1.00
N364   N     0.66452   0.55035   0.28920   0.00000  Uiso   1.00
N365   N     0.36027   0.62216   0.40954   0.00000  Uiso   1.00
N366   N     0.73304   0.93405   0.46932   0.00000  Uiso   1.00
N367   N     0.59043   0.50187   0.34390   0.00000  Uiso   1.00
N368   N     0.28618   0.57368   0.46425   0.00000  Uiso   1.00
