data_job_04460
_audit_creation_date              2018-12-19
_audit_creation_method            'Materials Studio'
_symmetry_space_group_name_H-M    'P1'
_symmetry_Int_Tables_number       1
_symmetry_cell_setting            triclinic
loop_
_symmetry_equiv_pos_as_xyz
  x,y,z
_cell_length_a                    20.1273
_cell_length_b                    16.1373
_cell_length_c                    7.4498
_cell_angle_alpha                 90.0000
_cell_angle_beta                  90.0000
_cell_angle_gamma                 90.0000
loop_
_atom_site_label
_atom_site_type_symbol
_atom_site_fract_x
_atom_site_fract_y
_atom_site_fract_z
_atom_site_U_iso_or_equiv
_atom_site_adp_type
_atom_site_occupancy
C1     C     0.30422   0.36628   0.14574   0.00000  Uiso   1.00
C2     C     0.34200   0.43000   0.25720   0.00000  Uiso   1.00
C3     C     0.38039   0.49427   0.18961   0.00000  Uiso   1.00
C4     C     0.41096   0.54590   0.31369   0.00000  Uiso   1.00
C5     C     0.47081   0.64670   0.45863   0.00000  Uiso   1.00
C6     C     0.32913   0.28167   0.20724   0.00000  Uiso   1.00
C7     C     0.35669   0.22121   0.09763   0.00000  Uiso   1.00
C8     C     0.37643   0.14798   0.17966   0.00000  Uiso   1.00
C9     C     0.41625   0.01846   0.24700   0.00000  Uiso   1.00
C10    C     0.23196   0.37168   0.20614   0.00000  Uiso   1.00
C11    C     0.17781   0.38689   0.09562   0.00000  Uiso   1.00
C12    C     0.11573   0.38942   0.17671   0.00000  Uiso   1.00
C13    C     0.00468   0.39966   0.24236   0.00000  Uiso   1.00
C14    C     0.29026   0.34371   0.48628   0.00000  Uiso   1.00
C15    C     0.33442   0.41774   0.44217   0.00000  Uiso   1.00
C16    C     0.36494   0.46930   0.56638   0.00000  Uiso   1.00
C17    C     0.40337   0.53363   0.49899   0.00000  Uiso   1.00
C18    C     0.32155   0.26941   0.39220   0.00000  Uiso   1.00
C19    C     0.34125   0.19625   0.47440   0.00000  Uiso   1.00
C20    C     0.36883   0.13570   0.36496   0.00000  Uiso   1.00
C21    C     0.22438   0.35943   0.39111   0.00000  Uiso   1.00
C22    C     0.16237   0.36193   0.47239   0.00000  Uiso   1.00
C23    C     0.10814   0.37714   0.36201   0.00000  Uiso   1.00
H24    H     0.31012   0.37581   0.00173   0.00000  Uiso   1.00
H25    H     0.38625   0.50373   0.04646   0.00000  Uiso   1.00
H26    H     0.36254   0.23072   0.95450   0.00000  Uiso   1.00
H27    H     0.18370   0.39637   0.95249   0.00000  Uiso   1.00
H28    H     0.46732   0.64012   0.17762   0.00000  Uiso   1.00
H29    H     0.41733   0.06445   0.98370   0.00000  Uiso   1.00
H30    H     0.04019   0.41376   0.97945   0.00000  Uiso   1.00
H31    H     0.28435   0.33416   0.63029   0.00000  Uiso   1.00
H32    H     0.35907   0.45980   0.70951   0.00000  Uiso   1.00
H33    H     0.33537   0.18679   0.61754   0.00000  Uiso   1.00
H34    H     0.15652   0.35244   0.61553   0.00000  Uiso   1.00
H35    H     0.44527   0.60446   0.71578   0.00000  Uiso   1.00
H36    H     0.39527   0.02879   0.52185   0.00000  Uiso   1.00
H37    H     0.01813   0.37810   0.51761   0.00000  Uiso   1.00
O38    O     0.50593   0.70567   0.48747   0.00000  Uiso   1.00
O39    O     0.44032   0.95041   0.23304   0.00000  Uiso   1.00
O40    O     0.94552   0.40870   0.22748   0.00000  Uiso   1.00
N41    N     0.45187   0.61450   0.29340   0.00000  Uiso   1.00
N42    N     0.40513   0.07628   0.11210   0.00000  Uiso   1.00
N43    N     0.05254   0.40284   0.10813   0.00000  Uiso   1.00
N44    N     0.44000   0.59531   0.58298   0.00000  Uiso   1.00
N45    N     0.39326   0.05710   0.40168   0.00000  Uiso   1.00
N46    N     0.04067   0.38365   0.39770   0.00000  Uiso   1.00
C47    C     0.69578   0.63372   0.14574   0.00000  Uiso   1.00
C48    C     0.65800   0.57000   0.25720   0.00000  Uiso   1.00
C49    C     0.61961   0.50573   0.18961   0.00000  Uiso   1.00
C50    C     0.58904   0.45410   0.31369   0.00000  Uiso   1.00
C51    C     0.52919   0.35330   0.45863   0.00000  Uiso   1.00
C52    C     0.67087   0.71833   0.20724   0.00000  Uiso   1.00
C53    C     0.64331   0.77879   0.09763   0.00000  Uiso   1.00
C54    C     0.62357   0.85202   0.17966   0.00000  Uiso   1.00
C55    C     0.58375   0.98154   0.24700   0.00000  Uiso   1.00
C56    C     0.76804   0.62832   0.20614   0.00000  Uiso   1.00
C57    C     0.82219   0.61311   0.09562   0.00000  Uiso   1.00
C58    C     0.88427   0.61058   0.17671   0.00000  Uiso   1.00
C59    C     0.99532   0.60034   0.24236   0.00000  Uiso   1.00
C60    C     0.70974   0.65629   0.48628   0.00000  Uiso   1.00
C61    C     0.66558   0.58226   0.44217   0.00000  Uiso   1.00
C62    C     0.63506   0.53070   0.56638   0.00000  Uiso   1.00
C63    C     0.59663   0.46637   0.49899   0.00000  Uiso   1.00
C64    C     0.67845   0.73059   0.39220   0.00000  Uiso   1.00
C65    C     0.65875   0.80375   0.47440   0.00000  Uiso   1.00
C66    C     0.63117   0.86430   0.36496   0.00000  Uiso   1.00
C67    C     0.77562   0.64057   0.39111   0.00000  Uiso   1.00
C68    C     0.83763   0.63807   0.47239   0.00000  Uiso   1.00
C69    C     0.89186   0.62286   0.36201   0.00000  Uiso   1.00
H70    H     0.68988   0.62419   0.00173   0.00000  Uiso   1.00
H71    H     0.61375   0.49627   0.04646   0.00000  Uiso   1.00
H72    H     0.63746   0.76928   0.95450   0.00000  Uiso   1.00
H73    H     0.81630   0.60363   0.95249   0.00000  Uiso   1.00
H74    H     0.53268   0.35988   0.17762   0.00000  Uiso   1.00
H75    H     0.58267   0.93555   0.98370   0.00000  Uiso   1.00
H76    H     0.95981   0.58624   0.97945   0.00000  Uiso   1.00
H77    H     0.71565   0.66584   0.63029   0.00000  Uiso   1.00
H78    H     0.64093   0.54020   0.70951   0.00000  Uiso   1.00
H79    H     0.66463   0.81321   0.61754   0.00000  Uiso   1.00
H80    H     0.84348   0.64756   0.61553   0.00000  Uiso   1.00
H81    H     0.55473   0.39554   0.71578   0.00000  Uiso   1.00
H82    H     0.60473   0.97121   0.52185   0.00000  Uiso   1.00
H83    H     0.98187   0.62190   0.51761   0.00000  Uiso   1.00
O84    O     0.49407   0.29433   0.48747   0.00000  Uiso   1.00
O85    O     0.55968   0.04959   0.23304   0.00000  Uiso   1.00
O86    O     0.05448   0.59130   0.22748   0.00000  Uiso   1.00
N87    N     0.54813   0.38550   0.29340   0.00000  Uiso   1.00
N88    N     0.59487   0.92372   0.11210   0.00000  Uiso   1.00
N89    N     0.94746   0.59716   0.10813   0.00000  Uiso   1.00
N90    N     0.56000   0.40469   0.58298   0.00000  Uiso   1.00
N91    N     0.60674   0.94290   0.40168   0.00000  Uiso   1.00
N92    N     0.95933   0.61635   0.39770   0.00000  Uiso   1.00
C93    C     0.19578   0.86628   0.85426   0.00000  Uiso   1.00
C94    C     0.15800   0.93000   0.74280   0.00000  Uiso   1.00
C95    C     0.11961   0.99427   0.81039   0.00000  Uiso   1.00
C96    C     0.08904   0.04590   0.68631   0.00000  Uiso   1.00
C97    C     0.02919   0.14670   0.54137   0.00000  Uiso   1.00
C98    C     0.17087   0.78167   0.79276   0.00000  Uiso   1.00
C99    C     0.14331   0.72121   0.90237   0.00000  Uiso   1.00
C100   C     0.12357   0.64798   0.82034   0.00000  Uiso   1.00
C101   C     0.08375   0.51846   0.75300   0.00000  Uiso   1.00
C102   C     0.26804   0.87168   0.79386   0.00000  Uiso   1.00
C103   C     0.32219   0.88689   0.90438   0.00000  Uiso   1.00
C104   C     0.38427   0.88942   0.82329   0.00000  Uiso   1.00
C105   C     0.49532   0.89966   0.75764   0.00000  Uiso   1.00
C106   C     0.20974   0.84371   0.51372   0.00000  Uiso   1.00
C107   C     0.16558   0.91774   0.55783   0.00000  Uiso   1.00
C108   C     0.13506   0.96930   0.43362   0.00000  Uiso   1.00
C109   C     0.09663   0.03363   0.50101   0.00000  Uiso   1.00
C110   C     0.17845   0.76941   0.60780   0.00000  Uiso   1.00
C111   C     0.15875   0.69625   0.52560   0.00000  Uiso   1.00
C112   C     0.13117   0.63570   0.63504   0.00000  Uiso   1.00
C113   C     0.27562   0.85943   0.60889   0.00000  Uiso   1.00
C114   C     0.33763   0.86193   0.52761   0.00000  Uiso   1.00
C115   C     0.39186   0.87714   0.63799   0.00000  Uiso   1.00
H116   H     0.18988   0.87581   0.99827   0.00000  Uiso   1.00
H117   H     0.11375   0.00373   0.95354   0.00000  Uiso   1.00
H118   H     0.13746   0.73072   0.04550   0.00000  Uiso   1.00
H119   H     0.31630   0.89637   0.04751   0.00000  Uiso   1.00
H120   H     0.03268   0.14012   0.82238   0.00000  Uiso   1.00
H121   H     0.08267   0.56445   0.01630   0.00000  Uiso   1.00
H122   H     0.45981   0.91376   0.02055   0.00000  Uiso   1.00
H123   H     0.21565   0.83416   0.36971   0.00000  Uiso   1.00
H124   H     0.14093   0.95980   0.29049   0.00000  Uiso   1.00
H125   H     0.16463   0.68679   0.38246   0.00000  Uiso   1.00
H126   H     0.34348   0.85244   0.38447   0.00000  Uiso   1.00
H127   H     0.05473   0.10446   0.28422   0.00000  Uiso   1.00
H128   H     0.10473   0.52879   0.47815   0.00000  Uiso   1.00
H129   H     0.48187   0.87810   0.48239   0.00000  Uiso   1.00
O130   O     0.99407   0.20567   0.51253   0.00000  Uiso   1.00
O131   O     0.05968   0.45041   0.76696   0.00000  Uiso   1.00
O132   O     0.55448   0.90870   0.77252   0.00000  Uiso   1.00
N133   N     0.04813   0.11450   0.70660   0.00000  Uiso   1.00
N134   N     0.09487   0.57628   0.88790   0.00000  Uiso   1.00
N135   N     0.44746   0.90284   0.89187   0.00000  Uiso   1.00
N136   N     0.06000   0.09531   0.41702   0.00000  Uiso   1.00
N137   N     0.10674   0.55710   0.59832   0.00000  Uiso   1.00
N138   N     0.45933   0.88365   0.60230   0.00000  Uiso   1.00
C139   C     0.80422   0.13372   0.85426   0.00000  Uiso   1.00
C140   C     0.84200   0.07000   0.74280   0.00000  Uiso   1.00
C141   C     0.88039   0.00573   0.81039   0.00000  Uiso   1.00
C142   C     0.91096   0.95410   0.68631   0.00000  Uiso   1.00
C143   C     0.97081   0.85330   0.54137   0.00000  Uiso   1.00
C144   C     0.82913   0.21833   0.79276   0.00000  Uiso   1.00
C145   C     0.85669   0.27879   0.90237   0.00000  Uiso   1.00
C146   C     0.87643   0.35202   0.82034   0.00000  Uiso   1.00
C147   C     0.91625   0.48154   0.75300   0.00000  Uiso   1.00
C148   C     0.73196   0.12832   0.79386   0.00000  Uiso   1.00
C149   C     0.67781   0.11311   0.90438   0.00000  Uiso   1.00
C150   C     0.61573   0.11058   0.82329   0.00000  Uiso   1.00
C151   C     0.50468   0.10034   0.75764   0.00000  Uiso   1.00
C152   C     0.79026   0.15629   0.51372   0.00000  Uiso   1.00
C153   C     0.83442   0.08226   0.55783   0.00000  Uiso   1.00
C154   C     0.86494   0.03070   0.43362   0.00000  Uiso   1.00
C155   C     0.90337   0.96637   0.50101   0.00000  Uiso   1.00
C156   C     0.82155   0.23059   0.60780   0.00000  Uiso   1.00
C157   C     0.84125   0.30375   0.52560   0.00000  Uiso   1.00
C158   C     0.86883   0.36430   0.63504   0.00000  Uiso   1.00
C159   C     0.72438   0.14057   0.60889   0.00000  Uiso   1.00
C160   C     0.66237   0.13807   0.52761   0.00000  Uiso   1.00
C161   C     0.60814   0.12286   0.63799   0.00000  Uiso   1.00
H162   H     0.81012   0.12419   0.99827   0.00000  Uiso   1.00
H163   H     0.88625   0.99627   0.95354   0.00000  Uiso   1.00
H164   H     0.86254   0.26928   0.04550   0.00000  Uiso   1.00
H165   H     0.68370   0.10363   0.04751   0.00000  Uiso   1.00
H166   H     0.96732   0.85988   0.82238   0.00000  Uiso   1.00
H167   H     0.91733   0.43555   0.01630   0.00000  Uiso   1.00
H168   H     0.54019   0.08624   0.02055   0.00000  Uiso   1.00
H169   H     0.78435   0.16584   0.36971   0.00000  Uiso   1.00
H170   H     0.85907   0.04020   0.29049   0.00000  Uiso   1.00
H171   H     0.83537   0.31321   0.38246   0.00000  Uiso   1.00
H172   H     0.65652   0.14756   0.38447   0.00000  Uiso   1.00
H173   H     0.94527   0.89554   0.28422   0.00000  Uiso   1.00
H174   H     0.89527   0.47121   0.47815   0.00000  Uiso   1.00
H175   H     0.51813   0.12190   0.48239   0.00000  Uiso   1.00
O176   O     0.00593   0.79433   0.51253   0.00000  Uiso   1.00
O177   O     0.94032   0.54959   0.76696   0.00000  Uiso   1.00
O178   O     0.44552   0.09130   0.77252   0.00000  Uiso   1.00
N179   N     0.95187   0.88550   0.70660   0.00000  Uiso   1.00
N180   N     0.90513   0.42372   0.88790   0.00000  Uiso   1.00
N181   N     0.55254   0.09716   0.89187   0.00000  Uiso   1.00
N182   N     0.94000   0.90469   0.41702   0.00000  Uiso   1.00
N183   N     0.89326   0.44290   0.59832   0.00000  Uiso   1.00
N184   N     0.54067   0.11635   0.60230   0.00000  Uiso   1.00
