data_job_03182
_audit_creation_date              2018-12-19
_audit_creation_method            'Materials Studio'
_symmetry_space_group_name_H-M    'P1'
_symmetry_Int_Tables_number       1
_symmetry_cell_setting            triclinic
loop_
_symmetry_equiv_pos_as_xyz
  x,y,z
_cell_length_a                    16.4163
_cell_length_b                    14.2149
_cell_length_c                    12.5519
_cell_angle_alpha                 90.0000
_cell_angle_beta                  90.0000
_cell_angle_gamma                 90.0000
loop_
_atom_site_label
_atom_site_type_symbol
_atom_site_fract_x
_atom_site_fract_y
_atom_site_fract_z
_atom_site_U_iso_or_equiv
_atom_site_adp_type
_atom_site_occupancy
C1     C     0.99252   0.38662   0.57568   0.00000  Uiso   1.00
C2     C     0.97951   0.31077   0.49147   0.00000  Uiso   1.00
C3     C     0.94038   0.32306   0.39445   0.00000  Uiso   1.00
C4     C     0.93469   0.24494   0.32848   0.00000  Uiso   1.00
C5     C     0.90953   0.14042   0.19318   0.00000  Uiso   1.00
C6     C     0.95471   0.34864   0.67797   0.00000  Uiso   1.00
C7     C     0.89474   0.39278   0.73777   0.00000  Uiso   1.00
C8     C     0.86818   0.34654   0.82880   0.00000  Uiso   1.00
C9     C     0.80456   0.30085   0.98308   0.00000  Uiso   1.00
C10    C     0.08410   0.39039   0.59554   0.00000  Uiso   1.00
C11    C     0.13294   0.46964   0.58606   0.00000  Uiso   1.00
C12    C     0.21532   0.45856   0.60772   0.00000  Uiso   1.00
C13    C     0.35261   0.47770   0.63401   0.00000  Uiso   1.00
C14    C     0.05199   0.22602   0.63104   0.00000  Uiso   1.00
C15    C     0.01181   0.22354   0.52154   0.00000  Uiso   1.00
C16    C     0.00618   0.14537   0.45570   0.00000  Uiso   1.00
C17    C     0.96706   0.15755   0.35860   0.00000  Uiso   1.00
C18    C     0.98700   0.26141   0.70804   0.00000  Uiso   1.00
C19    C     0.96053   0.21509   0.79901   0.00000  Uiso   1.00
C20    C     0.90054   0.25915   0.85892   0.00000  Uiso   1.00
C21    C     0.11641   0.30316   0.62561   0.00000  Uiso   1.00
C22    C     0.19873   0.29195   0.64730   0.00000  Uiso   1.00
C23    C     0.24768   0.37117   0.63784   0.00000  Uiso   1.00
H24    H     0.96737   0.45453   0.55228   0.00000  Uiso   1.00
H25    H     0.91539   0.39058   0.37122   0.00000  Uiso   1.00
H26    H     0.86976   0.46029   0.71448   0.00000  Uiso   1.00
H27    H     0.10792   0.53714   0.56279   0.00000  Uiso   1.00
H28    H     0.87197   0.28120   0.18376   0.00000  Uiso   1.00
H29    H     0.77578   0.42820   0.90757   0.00000  Uiso   1.00
H30    H     0.27799   0.59025   0.58770   0.00000  Uiso   1.00
H31    H     0.07714   0.15810   0.65445   0.00000  Uiso   1.00
H32    H     0.03118   0.07788   0.47899   0.00000  Uiso   1.00
H33    H     0.98555   0.14759   0.82226   0.00000  Uiso   1.00
H34    H     0.22371   0.22444   0.67056   0.00000  Uiso   1.00
H35    H     0.96595   0.02740   0.27123   0.00000  Uiso   1.00
H36    H     0.86976   0.17440   0.99505   0.00000  Uiso   1.00
H37    H     0.37196   0.33645   0.67517   0.00000  Uiso   1.00
O38    O     0.88672   0.10686   0.11024   0.00000  Uiso   1.00
O39    O     0.76053   0.29974   0.05986   0.00000  Uiso   1.00
O40    O     0.41941   0.51235   0.64019   0.00000  Uiso   1.00
N41    N     0.90041   0.23248   0.22841   0.00000  Uiso   1.00
N42    N     0.81047   0.36991   0.90512   0.00000  Uiso   1.00
N43    N     0.27998   0.52142   0.60610   0.00000  Uiso   1.00
N44    N     0.95098   0.09591   0.27548   0.00000  Uiso   1.00
N45    N     0.86104   0.23334   0.95219   0.00000  Uiso   1.00
N46    N     0.33055   0.38486   0.65317   0.00000  Uiso   1.00
C47    C     0.00748   0.61338   0.07568   0.00000  Uiso   1.00
C48    C     0.02049   0.68923   0.99147   0.00000  Uiso   1.00
C49    C     0.05962   0.67694   0.89445   0.00000  Uiso   1.00
C50    C     0.06531   0.75506   0.82848   0.00000  Uiso   1.00
C51    C     0.09047   0.85958   0.69318   0.00000  Uiso   1.00
C52    C     0.04529   0.65136   0.17797   0.00000  Uiso   1.00
C53    C     0.10526   0.60722   0.23777   0.00000  Uiso   1.00
C54    C     0.13182   0.65346   0.32880   0.00000  Uiso   1.00
C55    C     0.19544   0.69915   0.48308   0.00000  Uiso   1.00
C56    C     0.91590   0.60961   0.09554   0.00000  Uiso   1.00
C57    C     0.86706   0.53036   0.08606   0.00000  Uiso   1.00
C58    C     0.78468   0.54144   0.10772   0.00000  Uiso   1.00
C59    C     0.64739   0.52230   0.13401   0.00000  Uiso   1.00
C60    C     0.94801   0.77398   0.13104   0.00000  Uiso   1.00
C61    C     0.98819   0.77646   0.02154   0.00000  Uiso   1.00
C62    C     0.99382   0.85463   0.95570   0.00000  Uiso   1.00
C63    C     0.03294   0.84245   0.85860   0.00000  Uiso   1.00
C64    C     0.01300   0.73859   0.20804   0.00000  Uiso   1.00
C65    C     0.03947   0.78491   0.29901   0.00000  Uiso   1.00
C66    C     0.09946   0.74085   0.35892   0.00000  Uiso   1.00
C67    C     0.88359   0.69684   0.12561   0.00000  Uiso   1.00
C68    C     0.80127   0.70805   0.14730   0.00000  Uiso   1.00
C69    C     0.75232   0.62883   0.13784   0.00000  Uiso   1.00
H70    H     0.03263   0.54547   0.05228   0.00000  Uiso   1.00
H71    H     0.08461   0.60942   0.87122   0.00000  Uiso   1.00
H72    H     0.13024   0.53971   0.21448   0.00000  Uiso   1.00
H73    H     0.89208   0.46286   0.06279   0.00000  Uiso   1.00
H74    H     0.12803   0.71880   0.68376   0.00000  Uiso   1.00
H75    H     0.22422   0.57180   0.40757   0.00000  Uiso   1.00
H76    H     0.72201   0.40975   0.08770   0.00000  Uiso   1.00
H77    H     0.92286   0.84190   0.15445   0.00000  Uiso   1.00
H78    H     0.96882   0.92212   0.97899   0.00000  Uiso   1.00
H79    H     0.01445   0.85241   0.32226   0.00000  Uiso   1.00
H80    H     0.77629   0.77556   0.17056   0.00000  Uiso   1.00
H81    H     0.03405   0.97260   0.77123   0.00000  Uiso   1.00
H82    H     0.13024   0.82560   0.49505   0.00000  Uiso   1.00
H83    H     0.62804   0.66355   0.17517   0.00000  Uiso   1.00
O84    O     0.11328   0.89314   0.61024   0.00000  Uiso   1.00
O85    O     0.23947   0.70026   0.55986   0.00000  Uiso   1.00
O86    O     0.58059   0.48765   0.14019   0.00000  Uiso   1.00
N87    N     0.09959   0.76752   0.72841   0.00000  Uiso   1.00
N88    N     0.18953   0.63009   0.40512   0.00000  Uiso   1.00
N89    N     0.72002   0.47858   0.10610   0.00000  Uiso   1.00
N90    N     0.04902   0.90409   0.77548   0.00000  Uiso   1.00
N91    N     0.13896   0.76666   0.45219   0.00000  Uiso   1.00
N92    N     0.66945   0.61514   0.15317   0.00000  Uiso   1.00
C93    C     0.49252   0.11338   0.57568   0.00000  Uiso   1.00
C94    C     0.47951   0.18923   0.49147   0.00000  Uiso   1.00
C95    C     0.44038   0.17694   0.39445   0.00000  Uiso   1.00
C96    C     0.43469   0.25506   0.32848   0.00000  Uiso   1.00
C97    C     0.40953   0.35958   0.19318   0.00000  Uiso   1.00
C98    C     0.45471   0.15136   0.67797   0.00000  Uiso   1.00
C99    C     0.39474   0.10722   0.73777   0.00000  Uiso   1.00
C100   C     0.36818   0.15346   0.82880   0.00000  Uiso   1.00
C101   C     0.30456   0.19915   0.98308   0.00000  Uiso   1.00
C102   C     0.58410   0.10961   0.59554   0.00000  Uiso   1.00
C103   C     0.63294   0.03036   0.58606   0.00000  Uiso   1.00
C104   C     0.71532   0.04144   0.60772   0.00000  Uiso   1.00
C105   C     0.85261   0.02230   0.63401   0.00000  Uiso   1.00
C106   C     0.55199   0.27398   0.63104   0.00000  Uiso   1.00
C107   C     0.51181   0.27646   0.52154   0.00000  Uiso   1.00
C108   C     0.50618   0.35463   0.45570   0.00000  Uiso   1.00
C109   C     0.46706   0.34245   0.35860   0.00000  Uiso   1.00
C110   C     0.48700   0.23859   0.70804   0.00000  Uiso   1.00
C111   C     0.46053   0.28491   0.79901   0.00000  Uiso   1.00
C112   C     0.40054   0.24085   0.85892   0.00000  Uiso   1.00
C113   C     0.61641   0.19684   0.62561   0.00000  Uiso   1.00
C114   C     0.69873   0.20805   0.64730   0.00000  Uiso   1.00
C115   C     0.74768   0.12883   0.63784   0.00000  Uiso   1.00
H116   H     0.46737   0.04547   0.55228   0.00000  Uiso   1.00
H117   H     0.41539   0.10942   0.37122   0.00000  Uiso   1.00
H118   H     0.36976   0.03971   0.71448   0.00000  Uiso   1.00
H119   H     0.60792   0.96286   0.56279   0.00000  Uiso   1.00
H120   H     0.37197   0.21880   0.18376   0.00000  Uiso   1.00
H121   H     0.27578   0.07180   0.90757   0.00000  Uiso   1.00
H122   H     0.77799   0.90975   0.58770   0.00000  Uiso   1.00
H123   H     0.57714   0.34190   0.65445   0.00000  Uiso   1.00
H124   H     0.53118   0.42212   0.47899   0.00000  Uiso   1.00
H125   H     0.48555   0.35241   0.82226   0.00000  Uiso   1.00
H126   H     0.72371   0.27556   0.67056   0.00000  Uiso   1.00
H127   H     0.46595   0.47260   0.27123   0.00000  Uiso   1.00
H128   H     0.36976   0.32560   0.99505   0.00000  Uiso   1.00
H129   H     0.87196   0.16355   0.67517   0.00000  Uiso   1.00
O130   O     0.38672   0.39314   0.11024   0.00000  Uiso   1.00
O131   O     0.26053   0.20026   0.05986   0.00000  Uiso   1.00
O132   O     0.91941   0.98765   0.64019   0.00000  Uiso   1.00
N133   N     0.40041   0.26752   0.22841   0.00000  Uiso   1.00
N134   N     0.31047   0.13009   0.90512   0.00000  Uiso   1.00
N135   N     0.77998   0.97858   0.60610   0.00000  Uiso   1.00
N136   N     0.45098   0.40409   0.27548   0.00000  Uiso   1.00
N137   N     0.36104   0.26666   0.95219   0.00000  Uiso   1.00
N138   N     0.83055   0.11514   0.65317   0.00000  Uiso   1.00
C139   C     0.50748   0.88662   0.07568   0.00000  Uiso   1.00
C140   C     0.52049   0.81077   0.99147   0.00000  Uiso   1.00
C141   C     0.55962   0.82306   0.89445   0.00000  Uiso   1.00
C142   C     0.56531   0.74494   0.82848   0.00000  Uiso   1.00
C143   C     0.59047   0.64042   0.69318   0.00000  Uiso   1.00
C144   C     0.54529   0.84864   0.17797   0.00000  Uiso   1.00
C145   C     0.60526   0.89278   0.23777   0.00000  Uiso   1.00
C146   C     0.63182   0.84654   0.32880   0.00000  Uiso   1.00
C147   C     0.69544   0.80085   0.48308   0.00000  Uiso   1.00
C148   C     0.41590   0.89039   0.09554   0.00000  Uiso   1.00
C149   C     0.36706   0.96964   0.08606   0.00000  Uiso   1.00
C150   C     0.28468   0.95856   0.10772   0.00000  Uiso   1.00
C151   C     0.14739   0.97770   0.13401   0.00000  Uiso   1.00
C152   C     0.44801   0.72602   0.13104   0.00000  Uiso   1.00
C153   C     0.48819   0.72354   0.02154   0.00000  Uiso   1.00
C154   C     0.49382   0.64537   0.95570   0.00000  Uiso   1.00
C155   C     0.53294   0.65755   0.85860   0.00000  Uiso   1.00
C156   C     0.51300   0.76141   0.20804   0.00000  Uiso   1.00
C157   C     0.53947   0.71509   0.29901   0.00000  Uiso   1.00
C158   C     0.59946   0.75915   0.35892   0.00000  Uiso   1.00
C159   C     0.38359   0.80316   0.12561   0.00000  Uiso   1.00
C160   C     0.30127   0.79195   0.14730   0.00000  Uiso   1.00
C161   C     0.25232   0.87117   0.13784   0.00000  Uiso   1.00
H162   H     0.53263   0.95453   0.05228   0.00000  Uiso   1.00
H163   H     0.58461   0.89058   0.87122   0.00000  Uiso   1.00
H164   H     0.63024   0.96029   0.21448   0.00000  Uiso   1.00
H165   H     0.39208   0.03714   0.06279   0.00000  Uiso   1.00
H166   H     0.62803   0.78120   0.68376   0.00000  Uiso   1.00
H167   H     0.72422   0.92820   0.40757   0.00000  Uiso   1.00
H168   H     0.22201   0.09025   0.08770   0.00000  Uiso   1.00
H169   H     0.42286   0.65810   0.15445   0.00000  Uiso   1.00
H170   H     0.46882   0.57788   0.97899   0.00000  Uiso   1.00
H171   H     0.51445   0.64759   0.32226   0.00000  Uiso   1.00
H172   H     0.27629   0.72444   0.17056   0.00000  Uiso   1.00
H173   H     0.53405   0.52740   0.77123   0.00000  Uiso   1.00
H174   H     0.63024   0.67440   0.49505   0.00000  Uiso   1.00
H175   H     0.12804   0.83645   0.17517   0.00000  Uiso   1.00
O176   O     0.61328   0.60686   0.61024   0.00000  Uiso   1.00
O177   O     0.73947   0.79974   0.55986   0.00000  Uiso   1.00
O178   O     0.08059   0.01235   0.14019   0.00000  Uiso   1.00
N179   N     0.59959   0.73248   0.72841   0.00000  Uiso   1.00
N180   N     0.68953   0.86991   0.40512   0.00000  Uiso   1.00
N181   N     0.22002   0.02142   0.10610   0.00000  Uiso   1.00
N182   N     0.54902   0.59591   0.77548   0.00000  Uiso   1.00
N183   N     0.63896   0.73334   0.45219   0.00000  Uiso   1.00
N184   N     0.16945   0.88486   0.15317   0.00000  Uiso   1.00
