data_job_02786
_audit_creation_date              2018-12-19
_audit_creation_method            'Materials Studio'
_symmetry_space_group_name_H-M    'P1'
_symmetry_Int_Tables_number       1
_symmetry_cell_setting            triclinic
loop_
_symmetry_equiv_pos_as_xyz
  x,y,z
_cell_length_a                    14.7667
_cell_length_b                    9.9655
_cell_length_c                    24.3356
_cell_angle_alpha                 90.0000
_cell_angle_beta                  124.3396
_cell_angle_gamma                 90.0000
loop_
_atom_site_label
_atom_site_type_symbol
_atom_site_fract_x
_atom_site_fract_y
_atom_site_fract_z
_atom_site_U_iso_or_equiv
_atom_site_adp_type
_atom_site_occupancy
C1     C     0.66030   0.24231   0.47184   0.00000  Uiso   1.00
C2     C     0.55601   0.32059   0.42315   0.00000  Uiso   1.00
C3     C     0.46352   0.32787   0.42458   0.00000  Uiso   1.00
C4     C     0.37662   0.40472   0.37564   0.00000  Uiso   1.00
C5     C     0.21383   0.51600   0.30741   0.00000  Uiso   1.00
C6     C     0.67803   0.14724   0.42962   0.00000  Uiso   1.00
C7     C     0.68814   0.00878   0.43650   0.00000  Uiso   1.00
C8     C     0.70397   0.93971   0.39301   0.00000  Uiso   1.00
C9     C     0.73069   0.78188   0.33485   0.00000  Uiso   1.00
C10    C     0.75380   0.34375   0.50143   0.00000  Uiso   1.00
C11    C     0.82765   0.37050   0.56870   0.00000  Uiso   1.00
C12    C     0.90729   0.46686   0.58567   0.00000  Uiso   1.00
C13    C     0.05167   0.61414   0.63901   0.00000  Uiso   1.00
C14    C     0.67044   0.36585   0.38236   0.00000  Uiso   1.00
C15    C     0.56153   0.38768   0.37454   0.00000  Uiso   1.00
C16    C     0.47474   0.46455   0.32559   0.00000  Uiso   1.00
C17    C     0.38213   0.47195   0.32695   0.00000  Uiso   1.00
C18    C     0.68354   0.21434   0.38102   0.00000  Uiso   1.00
C19    C     0.69936   0.14546   0.33751   0.00000  Uiso   1.00
C20    C     0.70949   0.00693   0.34432   0.00000  Uiso   1.00
C21    C     0.75932   0.41086   0.45283   0.00000  Uiso   1.00
C22    C     0.83887   0.50719   0.46970   0.00000  Uiso   1.00
C23    C     0.91281   0.53408   0.53698   0.00000  Uiso   1.00
H24    H     0.65601   0.19006   0.50968   0.00000  Uiso   1.00
H25    H     0.45928   0.27591   0.46220   0.00000  Uiso   1.00
H26    H     0.68389   0.95688   0.47412   0.00000  Uiso   1.00
H27    H     0.82336   0.31855   0.60629   0.00000  Uiso   1.00
H28    H     0.24359   0.40065   0.38812   0.00000  Uiso   1.00
H29    H     0.71721   0.72795   0.41327   0.00000  Uiso   1.00
H30    H     0.01133   0.49060   0.69198   0.00000  Uiso   1.00
H31    H     0.67474   0.41809   0.34452   0.00000  Uiso   1.00
H32    H     0.47903   0.51647   0.28798   0.00000  Uiso   1.00
H33    H     0.70363   0.19742   0.29990   0.00000  Uiso   1.00
H34    H     0.84311   0.55909   0.43208   0.00000  Uiso   1.00
H35    H     0.25961   0.59588   0.24671   0.00000  Uiso   1.00
H36    H     0.73324   0.92318   0.27187   0.00000  Uiso   1.00
H37    H     0.02735   0.68583   0.55058   0.00000  Uiso   1.00
O38    O     0.12251   0.55883   0.28319   0.00000  Uiso   1.00
O39    O     0.74390   0.67627   0.31620   0.00000  Uiso   1.00
O40    O     0.12977   0.67686   0.68186   0.00000  Uiso   1.00
N41    N     0.27422   0.43312   0.36261   0.00000  Uiso   1.00
N42    N     0.71701   0.80418   0.38611   0.00000  Uiso   1.00
N43    N     0.99201   0.51717   0.64669   0.00000  Uiso   1.00
N44    N     0.28285   0.53818   0.28652   0.00000  Uiso   1.00
N45    N     0.72564   0.90924   0.31003   0.00000  Uiso   1.00
N46    N     0.00063   0.62223   0.57060   0.00000  Uiso   1.00
C47    C     0.33970   0.24231   0.02816   0.00000  Uiso   1.00
C48    C     0.44399   0.32059   0.07685   0.00000  Uiso   1.00
C49    C     0.53648   0.32787   0.07542   0.00000  Uiso   1.00
C50    C     0.62338   0.40472   0.12436   0.00000  Uiso   1.00
C51    C     0.78617   0.51600   0.19259   0.00000  Uiso   1.00
C52    C     0.32197   0.14724   0.07038   0.00000  Uiso   1.00
C53    C     0.31186   0.00878   0.06350   0.00000  Uiso   1.00
C54    C     0.29603   0.93971   0.10699   0.00000  Uiso   1.00
C55    C     0.26931   0.78188   0.16515   0.00000  Uiso   1.00
C56    C     0.24620   0.34375   0.99857   0.00000  Uiso   1.00
C57    C     0.17235   0.37050   0.93130   0.00000  Uiso   1.00
C58    C     0.09271   0.46686   0.91433   0.00000  Uiso   1.00
C59    C     0.94833   0.61414   0.86099   0.00000  Uiso   1.00
C60    C     0.32956   0.36585   0.11764   0.00000  Uiso   1.00
C61    C     0.43847   0.38768   0.12546   0.00000  Uiso   1.00
C62    C     0.52526   0.46455   0.17441   0.00000  Uiso   1.00
C63    C     0.61787   0.47195   0.17305   0.00000  Uiso   1.00
C64    C     0.31646   0.21434   0.11898   0.00000  Uiso   1.00
C65    C     0.30064   0.14546   0.16249   0.00000  Uiso   1.00
C66    C     0.29051   0.00693   0.15568   0.00000  Uiso   1.00
C67    C     0.24068   0.41086   0.04717   0.00000  Uiso   1.00
C68    C     0.16113   0.50719   0.03030   0.00000  Uiso   1.00
C69    C     0.08719   0.53408   0.96302   0.00000  Uiso   1.00
H70    H     0.34399   0.19006   0.99032   0.00000  Uiso   1.00
H71    H     0.54072   0.27591   0.03780   0.00000  Uiso   1.00
H72    H     0.31611   0.95688   0.02588   0.00000  Uiso   1.00
H73    H     0.17664   0.31855   0.89371   0.00000  Uiso   1.00
H74    H     0.75641   0.40065   0.11188   0.00000  Uiso   1.00
H75    H     0.28279   0.72795   0.08673   0.00000  Uiso   1.00
H76    H     0.98867   0.49060   0.80802   0.00000  Uiso   1.00
H77    H     0.32526   0.41809   0.15548   0.00000  Uiso   1.00
H78    H     0.52097   0.51647   0.21202   0.00000  Uiso   1.00
H79    H     0.29637   0.19742   0.20010   0.00000  Uiso   1.00
H80    H     0.15689   0.55909   0.06792   0.00000  Uiso   1.00
H81    H     0.74039   0.59588   0.25329   0.00000  Uiso   1.00
H82    H     0.26676   0.92318   0.22813   0.00000  Uiso   1.00
H83    H     0.97265   0.68583   0.94942   0.00000  Uiso   1.00
O84    O     0.87749   0.55883   0.21681   0.00000  Uiso   1.00
O85    O     0.25610   0.67627   0.18380   0.00000  Uiso   1.00
O86    O     0.87023   0.67686   0.81814   0.00000  Uiso   1.00
N87    N     0.72578   0.43312   0.13739   0.00000  Uiso   1.00
N88    N     0.28299   0.80418   0.11389   0.00000  Uiso   1.00
N89    N     0.00799   0.51717   0.85331   0.00000  Uiso   1.00
N90    N     0.71715   0.53818   0.21348   0.00000  Uiso   1.00
N91    N     0.27436   0.90924   0.18997   0.00000  Uiso   1.00
N92    N     0.99937   0.62223   0.92940   0.00000  Uiso   1.00
C93    C     0.33970   0.75769   0.52816   0.00000  Uiso   1.00
C94    C     0.44399   0.67941   0.57685   0.00000  Uiso   1.00
C95    C     0.53648   0.67213   0.57542   0.00000  Uiso   1.00
C96    C     0.62338   0.59528   0.62436   0.00000  Uiso   1.00
C97    C     0.78617   0.48400   0.69259   0.00000  Uiso   1.00
C98    C     0.32197   0.85276   0.57038   0.00000  Uiso   1.00
C99    C     0.31186   0.99122   0.56350   0.00000  Uiso   1.00
C100   C     0.29603   0.06029   0.60699   0.00000  Uiso   1.00
C101   C     0.26931   0.21812   0.66515   0.00000  Uiso   1.00
C102   C     0.24620   0.65625   0.49857   0.00000  Uiso   1.00
C103   C     0.17235   0.62950   0.43130   0.00000  Uiso   1.00
C104   C     0.09271   0.53314   0.41433   0.00000  Uiso   1.00
C105   C     0.94833   0.38586   0.36099   0.00000  Uiso   1.00
C106   C     0.32956   0.63415   0.61764   0.00000  Uiso   1.00
C107   C     0.43847   0.61232   0.62546   0.00000  Uiso   1.00
C108   C     0.52526   0.53545   0.67441   0.00000  Uiso   1.00
C109   C     0.61787   0.52805   0.67305   0.00000  Uiso   1.00
C110   C     0.31646   0.78566   0.61898   0.00000  Uiso   1.00
C111   C     0.30064   0.85454   0.66249   0.00000  Uiso   1.00
C112   C     0.29051   0.99307   0.65568   0.00000  Uiso   1.00
C113   C     0.24068   0.58914   0.54717   0.00000  Uiso   1.00
C114   C     0.16113   0.49281   0.53030   0.00000  Uiso   1.00
C115   C     0.08719   0.46592   0.46302   0.00000  Uiso   1.00
H116   H     0.34399   0.80994   0.49032   0.00000  Uiso   1.00
H117   H     0.54072   0.72409   0.53780   0.00000  Uiso   1.00
H118   H     0.31611   0.04312   0.52588   0.00000  Uiso   1.00
H119   H     0.17664   0.68145   0.39371   0.00000  Uiso   1.00
H120   H     0.75641   0.59935   0.61188   0.00000  Uiso   1.00
H121   H     0.28279   0.27205   0.58673   0.00000  Uiso   1.00
H122   H     0.98867   0.50940   0.30802   0.00000  Uiso   1.00
H123   H     0.32526   0.58191   0.65548   0.00000  Uiso   1.00
H124   H     0.52097   0.48353   0.71202   0.00000  Uiso   1.00
H125   H     0.29637   0.80258   0.70010   0.00000  Uiso   1.00
H126   H     0.15689   0.44091   0.56792   0.00000  Uiso   1.00
H127   H     0.74039   0.40412   0.75329   0.00000  Uiso   1.00
H128   H     0.26676   0.07682   0.72813   0.00000  Uiso   1.00
H129   H     0.97265   0.31417   0.44942   0.00000  Uiso   1.00
O130   O     0.87749   0.44117   0.71681   0.00000  Uiso   1.00
O131   O     0.25610   0.32373   0.68380   0.00000  Uiso   1.00
O132   O     0.87023   0.32314   0.31814   0.00000  Uiso   1.00
N133   N     0.72578   0.56688   0.63739   0.00000  Uiso   1.00
N134   N     0.28299   0.19582   0.61389   0.00000  Uiso   1.00
N135   N     0.00799   0.48283   0.35331   0.00000  Uiso   1.00
N136   N     0.71715   0.46182   0.71348   0.00000  Uiso   1.00
N137   N     0.27436   0.09076   0.68997   0.00000  Uiso   1.00
N138   N     0.99937   0.37777   0.42940   0.00000  Uiso   1.00
C139   C     0.66030   0.75769   0.97184   0.00000  Uiso   1.00
C140   C     0.55601   0.67941   0.92315   0.00000  Uiso   1.00
C141   C     0.46352   0.67213   0.92458   0.00000  Uiso   1.00
C142   C     0.37662   0.59528   0.87564   0.00000  Uiso   1.00
C143   C     0.21383   0.48400   0.80741   0.00000  Uiso   1.00
C144   C     0.67803   0.85276   0.92962   0.00000  Uiso   1.00
C145   C     0.68814   0.99122   0.93650   0.00000  Uiso   1.00
C146   C     0.70397   0.06029   0.89301   0.00000  Uiso   1.00
C147   C     0.73069   0.21812   0.83485   0.00000  Uiso   1.00
C148   C     0.75380   0.65625   0.00143   0.00000  Uiso   1.00
C149   C     0.82765   0.62950   0.06870   0.00000  Uiso   1.00
C150   C     0.90729   0.53314   0.08567   0.00000  Uiso   1.00
C151   C     0.05167   0.38586   0.13901   0.00000  Uiso   1.00
C152   C     0.67044   0.63415   0.88236   0.00000  Uiso   1.00
C153   C     0.56153   0.61232   0.87454   0.00000  Uiso   1.00
C154   C     0.47474   0.53545   0.82559   0.00000  Uiso   1.00
C155   C     0.38213   0.52805   0.82695   0.00000  Uiso   1.00
C156   C     0.68354   0.78566   0.88102   0.00000  Uiso   1.00
C157   C     0.69936   0.85454   0.83751   0.00000  Uiso   1.00
C158   C     0.70949   0.99307   0.84432   0.00000  Uiso   1.00
C159   C     0.75932   0.58914   0.95283   0.00000  Uiso   1.00
C160   C     0.83887   0.49281   0.96970   0.00000  Uiso   1.00
C161   C     0.91281   0.46592   0.03698   0.00000  Uiso   1.00
H162   H     0.65601   0.80994   0.00968   0.00000  Uiso   1.00
H163   H     0.45928   0.72409   0.96220   0.00000  Uiso   1.00
H164   H     0.68389   0.04312   0.97412   0.00000  Uiso   1.00
H165   H     0.82336   0.68145   0.10629   0.00000  Uiso   1.00
H166   H     0.24359   0.59935   0.88812   0.00000  Uiso   1.00
H167   H     0.71721   0.27205   0.91327   0.00000  Uiso   1.00
H168   H     0.01133   0.50940   0.19198   0.00000  Uiso   1.00
H169   H     0.67474   0.58191   0.84452   0.00000  Uiso   1.00
H170   H     0.47903   0.48353   0.78798   0.00000  Uiso   1.00
H171   H     0.70363   0.80258   0.79990   0.00000  Uiso   1.00
H172   H     0.84311   0.44091   0.93208   0.00000  Uiso   1.00
H173   H     0.25961   0.40412   0.74671   0.00000  Uiso   1.00
H174   H     0.73324   0.07682   0.77187   0.00000  Uiso   1.00
H175   H     0.02735   0.31417   0.05058   0.00000  Uiso   1.00
O176   O     0.12251   0.44117   0.78319   0.00000  Uiso   1.00
O177   O     0.74390   0.32373   0.81620   0.00000  Uiso   1.00
O178   O     0.12977   0.32314   0.18186   0.00000  Uiso   1.00
N179   N     0.27422   0.56688   0.86261   0.00000  Uiso   1.00
N180   N     0.71701   0.19582   0.88611   0.00000  Uiso   1.00
N181   N     0.99201   0.48283   0.14669   0.00000  Uiso   1.00
N182   N     0.28285   0.46182   0.78652   0.00000  Uiso   1.00
N183   N     0.72564   0.09076   0.81003   0.00000  Uiso   1.00
N184   N     0.00063   0.37777   0.07060   0.00000  Uiso   1.00
