data_job_03127
_audit_creation_date              2018-12-19
_audit_creation_method            'Materials Studio'
_symmetry_space_group_name_H-M    'P1'
_symmetry_Int_Tables_number       1
_symmetry_cell_setting            triclinic
loop_
_symmetry_equiv_pos_as_xyz
  x,y,z
_cell_length_a                    24.4934
_cell_length_b                    18.0985
_cell_length_c                    13.2277
_cell_angle_alpha                 90.0000
_cell_angle_beta                  78.8987
_cell_angle_gamma                 90.0000
loop_
_atom_site_label
_atom_site_type_symbol
_atom_site_fract_x
_atom_site_fract_y
_atom_site_fract_z
_atom_site_U_iso_or_equiv
_atom_site_adp_type
_atom_site_occupancy
C1     C     0.77642   0.45961   0.16961   0.00000  Uiso   1.00
C2     C     0.71824   0.46851   0.23471   0.00000  Uiso   1.00
C3     C     0.67523   0.50927   0.20773   0.00000  Uiso   1.00
C4     C     0.62515   0.51053   0.27786   0.00000  Uiso   1.00
C5     C     0.53585   0.53018   0.36470   0.00000  Uiso   1.00
C6     C     0.81666   0.48554   0.23703   0.00000  Uiso   1.00
C7     C     0.85640   0.54060   0.21200   0.00000  Uiso   1.00
C8     C     0.88917   0.55618   0.28409   0.00000  Uiso   1.00
C9     C     0.95270   0.60223   0.37451   0.00000  Uiso   1.00
C10    C     0.78582   0.37667   0.15532   0.00000  Uiso   1.00
C11    C     0.79965   0.34020   0.06159   0.00000  Uiso   1.00
C12    C     0.80647   0.26413   0.06488   0.00000  Uiso   1.00
C13    C     0.82211   0.14115   0.02843   0.00000  Uiso   1.00
C14    C     0.76396   0.38939   0.34212   0.00000  Uiso   1.00
C15    C     0.71148   0.43037   0.32841   0.00000  Uiso   1.00
C16    C     0.66144   0.43157   0.39860   0.00000  Uiso   1.00
C17    C     0.61837   0.47232   0.37173   0.00000  Uiso   1.00
C18    C     0.80989   0.44739   0.33073   0.00000  Uiso   1.00
C19    C     0.84262   0.46290   0.40287   0.00000  Uiso   1.00
C20    C     0.88239   0.51797   0.37796   0.00000  Uiso   1.00
C21    C     0.77905   0.33853   0.24902   0.00000  Uiso   1.00
C22    C     0.78586   0.26250   0.25246   0.00000  Uiso   1.00
C23    C     0.79969   0.22592   0.15875   0.00000  Uiso   1.00
H24    H     0.78169   0.48931   0.09666   0.00000  Uiso   1.00
H25    H     0.68049   0.53878   0.13521   0.00000  Uiso   1.00
H26    H     0.86164   0.57010   0.13948   0.00000  Uiso   1.00
H27    H     0.80488   0.36974   0.98910   0.00000  Uiso   1.00
H28    H     0.56531   0.57683   0.21929   0.00000  Uiso   1.00
H29    H     0.94728   0.64285   0.22828   0.00000  Uiso   1.00
H30    H     0.82761   0.22034   0.91115   0.00000  Uiso   1.00
H31    H     0.75869   0.35969   0.41508   0.00000  Uiso   1.00
H32    H     0.65622   0.40205   0.47110   0.00000  Uiso   1.00
H33    H     0.83737   0.43337   0.47537   0.00000  Uiso   1.00
H34    H     0.78061   0.23300   0.32498   0.00000  Uiso   1.00
H35    H     0.54561   0.46586   0.49191   0.00000  Uiso   1.00
H36    H     0.92758   0.53187   0.50090   0.00000  Uiso   1.00
H37    H     0.80791   0.10937   0.18377   0.00000  Uiso   1.00
O38    O     0.48847   0.55157   0.38673   0.00000  Uiso   1.00
O39    O     0.98961   0.63817   0.39850   0.00000  Uiso   1.00
O40    O     0.83260   0.08385   0.98244   0.00000  Uiso   1.00
N41    N     0.57473   0.54489   0.27576   0.00000  Uiso   1.00
N42    N     0.93184   0.60662   0.28416   0.00000  Uiso   1.00
N43    N     0.81998   0.21161   0.98768   0.00000  Uiso   1.00
N44    N     0.56413   0.48517   0.42245   0.00000  Uiso   1.00
N45    N     0.92124   0.54690   0.43086   0.00000  Uiso   1.00
N46    N     0.80938   0.15190   0.13437   0.00000  Uiso   1.00
C47    C     0.27642   0.95961   0.16961   0.00000  Uiso   1.00
C48    C     0.21824   0.96851   0.23471   0.00000  Uiso   1.00
C49    C     0.17523   0.00927   0.20773   0.00000  Uiso   1.00
C50    C     0.12515   0.01053   0.27786   0.00000  Uiso   1.00
C51    C     0.03585   0.03018   0.36470   0.00000  Uiso   1.00
C52    C     0.31666   0.98554   0.23703   0.00000  Uiso   1.00
C53    C     0.35640   0.04060   0.21200   0.00000  Uiso   1.00
C54    C     0.38917   0.05618   0.28409   0.00000  Uiso   1.00
C55    C     0.45270   0.10223   0.37451   0.00000  Uiso   1.00
C56    C     0.28582   0.87667   0.15532   0.00000  Uiso   1.00
C57    C     0.29965   0.84020   0.06159   0.00000  Uiso   1.00
C58    C     0.30647   0.76413   0.06488   0.00000  Uiso   1.00
C59    C     0.32211   0.64115   0.02843   0.00000  Uiso   1.00
C60    C     0.26396   0.88939   0.34212   0.00000  Uiso   1.00
C61    C     0.21148   0.93037   0.32841   0.00000  Uiso   1.00
C62    C     0.16144   0.93157   0.39860   0.00000  Uiso   1.00
C63    C     0.11837   0.97232   0.37173   0.00000  Uiso   1.00
C64    C     0.30989   0.94739   0.33073   0.00000  Uiso   1.00
C65    C     0.34262   0.96290   0.40287   0.00000  Uiso   1.00
C66    C     0.38239   0.01797   0.37796   0.00000  Uiso   1.00
C67    C     0.27905   0.83853   0.24902   0.00000  Uiso   1.00
C68    C     0.28586   0.76250   0.25246   0.00000  Uiso   1.00
C69    C     0.29969   0.72592   0.15875   0.00000  Uiso   1.00
H70    H     0.28169   0.98931   0.09666   0.00000  Uiso   1.00
H71    H     0.18049   0.03878   0.13521   0.00000  Uiso   1.00
H72    H     0.36164   0.07010   0.13948   0.00000  Uiso   1.00
H73    H     0.30488   0.86974   0.98910   0.00000  Uiso   1.00
H74    H     0.06531   0.07683   0.21929   0.00000  Uiso   1.00
H75    H     0.44728   0.14285   0.22828   0.00000  Uiso   1.00
H76    H     0.32761   0.72034   0.91115   0.00000  Uiso   1.00
H77    H     0.25869   0.85969   0.41508   0.00000  Uiso   1.00
H78    H     0.15622   0.90205   0.47110   0.00000  Uiso   1.00
H79    H     0.33737   0.93337   0.47537   0.00000  Uiso   1.00
H80    H     0.28061   0.73300   0.32498   0.00000  Uiso   1.00
H81    H     0.04561   0.96586   0.49191   0.00000  Uiso   1.00
H82    H     0.42758   0.03187   0.50090   0.00000  Uiso   1.00
H83    H     0.30791   0.60937   0.18377   0.00000  Uiso   1.00
O84    O     0.98847   0.05157   0.38673   0.00000  Uiso   1.00
O85    O     0.48961   0.13817   0.39850   0.00000  Uiso   1.00
O86    O     0.33260   0.58385   0.98244   0.00000  Uiso   1.00
N87    N     0.07473   0.04489   0.27576   0.00000  Uiso   1.00
N88    N     0.43184   0.10662   0.28416   0.00000  Uiso   1.00
N89    N     0.31998   0.71161   0.98768   0.00000  Uiso   1.00
N90    N     0.06413   0.98517   0.42245   0.00000  Uiso   1.00
N91    N     0.42124   0.04690   0.43086   0.00000  Uiso   1.00
N92    N     0.30938   0.65190   0.13437   0.00000  Uiso   1.00
C93    C     0.22358   0.45961   0.33039   0.00000  Uiso   1.00
C94    C     0.28176   0.46851   0.26529   0.00000  Uiso   1.00
C95    C     0.32477   0.50927   0.29227   0.00000  Uiso   1.00
C96    C     0.37485   0.51053   0.22214   0.00000  Uiso   1.00
C97    C     0.46415   0.53018   0.13530   0.00000  Uiso   1.00
C98    C     0.18334   0.48554   0.26297   0.00000  Uiso   1.00
C99    C     0.14360   0.54060   0.28800   0.00000  Uiso   1.00
C100   C     0.11083   0.55618   0.21591   0.00000  Uiso   1.00
C101   C     0.04730   0.60223   0.12549   0.00000  Uiso   1.00
C102   C     0.21418   0.37667   0.34468   0.00000  Uiso   1.00
C103   C     0.20035   0.34020   0.43841   0.00000  Uiso   1.00
C104   C     0.19353   0.26413   0.43512   0.00000  Uiso   1.00
C105   C     0.17789   0.14115   0.47157   0.00000  Uiso   1.00
C106   C     0.23604   0.38939   0.15788   0.00000  Uiso   1.00
C107   C     0.28852   0.43037   0.17159   0.00000  Uiso   1.00
C108   C     0.33856   0.43157   0.10140   0.00000  Uiso   1.00
C109   C     0.38163   0.47232   0.12827   0.00000  Uiso   1.00
C110   C     0.19011   0.44739   0.16927   0.00000  Uiso   1.00
C111   C     0.15738   0.46290   0.09713   0.00000  Uiso   1.00
C112   C     0.11761   0.51797   0.12204   0.00000  Uiso   1.00
C113   C     0.22095   0.33853   0.25098   0.00000  Uiso   1.00
C114   C     0.21414   0.26250   0.24754   0.00000  Uiso   1.00
C115   C     0.20031   0.22592   0.34125   0.00000  Uiso   1.00
H116   H     0.21831   0.48931   0.40334   0.00000  Uiso   1.00
H117   H     0.31951   0.53878   0.36479   0.00000  Uiso   1.00
H118   H     0.13836   0.57010   0.36052   0.00000  Uiso   1.00
H119   H     0.19512   0.36974   0.51090   0.00000  Uiso   1.00
H120   H     0.43469   0.57683   0.28071   0.00000  Uiso   1.00
H121   H     0.05272   0.64285   0.27172   0.00000  Uiso   1.00
H122   H     0.17239   0.22034   0.58885   0.00000  Uiso   1.00
H123   H     0.24131   0.35969   0.08492   0.00000  Uiso   1.00
H124   H     0.34378   0.40205   0.02890   0.00000  Uiso   1.00
H125   H     0.16263   0.43337   0.02463   0.00000  Uiso   1.00
H126   H     0.21939   0.23300   0.17502   0.00000  Uiso   1.00
H127   H     0.45439   0.46586   0.00809   0.00000  Uiso   1.00
H128   H     0.07242   0.53187   0.99910   0.00000  Uiso   1.00
H129   H     0.19209   0.10937   0.31623   0.00000  Uiso   1.00
O130   O     0.51153   0.55157   0.11327   0.00000  Uiso   1.00
O131   O     0.01039   0.63817   0.10150   0.00000  Uiso   1.00
O132   O     0.16740   0.08385   0.51756   0.00000  Uiso   1.00
N133   N     0.42527   0.54489   0.22424   0.00000  Uiso   1.00
N134   N     0.06816   0.60662   0.21584   0.00000  Uiso   1.00
N135   N     0.18002   0.21161   0.51232   0.00000  Uiso   1.00
N136   N     0.43587   0.48517   0.07755   0.00000  Uiso   1.00
N137   N     0.07876   0.54690   0.06914   0.00000  Uiso   1.00
N138   N     0.19062   0.15190   0.36563   0.00000  Uiso   1.00
C139   C     0.72358   0.95961   0.33039   0.00000  Uiso   1.00
C140   C     0.78176   0.96851   0.26529   0.00000  Uiso   1.00
C141   C     0.82477   0.00927   0.29227   0.00000  Uiso   1.00
C142   C     0.87485   0.01053   0.22214   0.00000  Uiso   1.00
C143   C     0.96415   0.03018   0.13530   0.00000  Uiso   1.00
C144   C     0.68334   0.98554   0.26297   0.00000  Uiso   1.00
C145   C     0.64360   0.04060   0.28800   0.00000  Uiso   1.00
C146   C     0.61083   0.05618   0.21591   0.00000  Uiso   1.00
C147   C     0.54730   0.10223   0.12549   0.00000  Uiso   1.00
C148   C     0.71418   0.87667   0.34468   0.00000  Uiso   1.00
C149   C     0.70035   0.84020   0.43841   0.00000  Uiso   1.00
C150   C     0.69353   0.76413   0.43512   0.00000  Uiso   1.00
C151   C     0.67789   0.64115   0.47157   0.00000  Uiso   1.00
C152   C     0.73604   0.88939   0.15788   0.00000  Uiso   1.00
C153   C     0.78852   0.93037   0.17159   0.00000  Uiso   1.00
C154   C     0.83856   0.93157   0.10140   0.00000  Uiso   1.00
C155   C     0.88163   0.97232   0.12827   0.00000  Uiso   1.00
C156   C     0.69011   0.94739   0.16927   0.00000  Uiso   1.00
C157   C     0.65738   0.96290   0.09713   0.00000  Uiso   1.00
C158   C     0.61761   0.01797   0.12204   0.00000  Uiso   1.00
C159   C     0.72095   0.83853   0.25098   0.00000  Uiso   1.00
C160   C     0.71414   0.76250   0.24754   0.00000  Uiso   1.00
C161   C     0.70031   0.72592   0.34125   0.00000  Uiso   1.00
H162   H     0.71831   0.98931   0.40334   0.00000  Uiso   1.00
H163   H     0.81951   0.03878   0.36479   0.00000  Uiso   1.00
H164   H     0.63836   0.07010   0.36052   0.00000  Uiso   1.00
H165   H     0.69512   0.86974   0.51090   0.00000  Uiso   1.00
H166   H     0.93469   0.07683   0.28071   0.00000  Uiso   1.00
H167   H     0.55272   0.14285   0.27172   0.00000  Uiso   1.00
H168   H     0.67239   0.72034   0.58885   0.00000  Uiso   1.00
H169   H     0.74131   0.85969   0.08492   0.00000  Uiso   1.00
H170   H     0.84378   0.90205   0.02890   0.00000  Uiso   1.00
H171   H     0.66263   0.93337   0.02463   0.00000  Uiso   1.00
H172   H     0.71939   0.73300   0.17502   0.00000  Uiso   1.00
H173   H     0.95439   0.96586   0.00809   0.00000  Uiso   1.00
H174   H     0.57242   0.03187   0.99910   0.00000  Uiso   1.00
H175   H     0.69209   0.60937   0.31623   0.00000  Uiso   1.00
O176   O     0.01153   0.05157   0.11327   0.00000  Uiso   1.00
O177   O     0.51039   0.13817   0.10150   0.00000  Uiso   1.00
O178   O     0.66740   0.58385   0.51756   0.00000  Uiso   1.00
N179   N     0.92527   0.04489   0.22424   0.00000  Uiso   1.00
N180   N     0.56816   0.10662   0.21584   0.00000  Uiso   1.00
N181   N     0.68002   0.71161   0.51232   0.00000  Uiso   1.00
N182   N     0.93587   0.98517   0.07755   0.00000  Uiso   1.00
N183   N     0.57876   0.04690   0.06914   0.00000  Uiso   1.00
N184   N     0.69062   0.65190   0.36563   0.00000  Uiso   1.00
C185   C     0.22358   0.54039   0.83039   0.00000  Uiso   1.00
C186   C     0.28176   0.53149   0.76529   0.00000  Uiso   1.00
C187   C     0.32477   0.49073   0.79227   0.00000  Uiso   1.00
C188   C     0.37485   0.48947   0.72214   0.00000  Uiso   1.00
C189   C     0.46415   0.46982   0.63530   0.00000  Uiso   1.00
C190   C     0.18334   0.51446   0.76297   0.00000  Uiso   1.00
C191   C     0.14360   0.45940   0.78800   0.00000  Uiso   1.00
C192   C     0.11083   0.44382   0.71591   0.00000  Uiso   1.00
C193   C     0.04730   0.39777   0.62549   0.00000  Uiso   1.00
C194   C     0.21418   0.62333   0.84468   0.00000  Uiso   1.00
C195   C     0.20035   0.65980   0.93841   0.00000  Uiso   1.00
C196   C     0.19353   0.73587   0.93512   0.00000  Uiso   1.00
C197   C     0.17789   0.85885   0.97157   0.00000  Uiso   1.00
C198   C     0.23604   0.61061   0.65788   0.00000  Uiso   1.00
C199   C     0.28852   0.56963   0.67159   0.00000  Uiso   1.00
C200   C     0.33856   0.56843   0.60140   0.00000  Uiso   1.00
C201   C     0.38163   0.52768   0.62827   0.00000  Uiso   1.00
C202   C     0.19011   0.55261   0.66927   0.00000  Uiso   1.00
C203   C     0.15738   0.53710   0.59713   0.00000  Uiso   1.00
C204   C     0.11761   0.48203   0.62204   0.00000  Uiso   1.00
C205   C     0.22095   0.66147   0.75098   0.00000  Uiso   1.00
C206   C     0.21414   0.73750   0.74754   0.00000  Uiso   1.00
C207   C     0.20031   0.77408   0.84125   0.00000  Uiso   1.00
H208   H     0.21831   0.51069   0.90334   0.00000  Uiso   1.00
H209   H     0.31951   0.46122   0.86479   0.00000  Uiso   1.00
H210   H     0.13836   0.42990   0.86052   0.00000  Uiso   1.00
H211   H     0.19512   0.63026   0.01090   0.00000  Uiso   1.00
H212   H     0.43469   0.42317   0.78071   0.00000  Uiso   1.00
H213   H     0.05272   0.35715   0.77172   0.00000  Uiso   1.00
H214   H     0.17239   0.77966   0.08885   0.00000  Uiso   1.00
H215   H     0.24131   0.64031   0.58492   0.00000  Uiso   1.00
H216   H     0.34378   0.59795   0.52890   0.00000  Uiso   1.00
H217   H     0.16263   0.56663   0.52463   0.00000  Uiso   1.00
H218   H     0.21939   0.76700   0.67502   0.00000  Uiso   1.00
H219   H     0.45439   0.53414   0.50809   0.00000  Uiso   1.00
H220   H     0.07242   0.46813   0.49910   0.00000  Uiso   1.00
H221   H     0.19209   0.89063   0.81623   0.00000  Uiso   1.00
O222   O     0.51153   0.44843   0.61327   0.00000  Uiso   1.00
O223   O     0.01039   0.36183   0.60150   0.00000  Uiso   1.00
O224   O     0.16740   0.91615   0.01756   0.00000  Uiso   1.00
N225   N     0.42527   0.45511   0.72424   0.00000  Uiso   1.00
N226   N     0.06816   0.39338   0.71584   0.00000  Uiso   1.00
N227   N     0.18002   0.78839   0.01232   0.00000  Uiso   1.00
N228   N     0.43587   0.51483   0.57755   0.00000  Uiso   1.00
N229   N     0.07876   0.45310   0.56914   0.00000  Uiso   1.00
N230   N     0.19062   0.84810   0.86563   0.00000  Uiso   1.00
C231   C     0.72358   0.04039   0.83039   0.00000  Uiso   1.00
C232   C     0.78176   0.03149   0.76529   0.00000  Uiso   1.00
C233   C     0.82477   0.99073   0.79227   0.00000  Uiso   1.00
C234   C     0.87485   0.98947   0.72214   0.00000  Uiso   1.00
C235   C     0.96415   0.96982   0.63530   0.00000  Uiso   1.00
C236   C     0.68334   0.01446   0.76297   0.00000  Uiso   1.00
C237   C     0.64360   0.95940   0.78800   0.00000  Uiso   1.00
C238   C     0.61083   0.94382   0.71591   0.00000  Uiso   1.00
C239   C     0.54730   0.89777   0.62549   0.00000  Uiso   1.00
C240   C     0.71418   0.12333   0.84468   0.00000  Uiso   1.00
C241   C     0.70035   0.15980   0.93841   0.00000  Uiso   1.00
C242   C     0.69353   0.23587   0.93512   0.00000  Uiso   1.00
C243   C     0.67789   0.35885   0.97157   0.00000  Uiso   1.00
C244   C     0.73604   0.11061   0.65788   0.00000  Uiso   1.00
C245   C     0.78852   0.06963   0.67159   0.00000  Uiso   1.00
C246   C     0.83856   0.06843   0.60140   0.00000  Uiso   1.00
C247   C     0.88163   0.02768   0.62827   0.00000  Uiso   1.00
C248   C     0.69011   0.05261   0.66927   0.00000  Uiso   1.00
C249   C     0.65738   0.03710   0.59713   0.00000  Uiso   1.00
C250   C     0.61761   0.98203   0.62204   0.00000  Uiso   1.00
C251   C     0.72095   0.16147   0.75098   0.00000  Uiso   1.00
C252   C     0.71414   0.23750   0.74754   0.00000  Uiso   1.00
C253   C     0.70031   0.27408   0.84125   0.00000  Uiso   1.00
H254   H     0.71831   0.01069   0.90334   0.00000  Uiso   1.00
H255   H     0.81951   0.96122   0.86479   0.00000  Uiso   1.00
H256   H     0.63836   0.92990   0.86052   0.00000  Uiso   1.00
H257   H     0.69512   0.13026   0.01090   0.00000  Uiso   1.00
H258   H     0.93469   0.92317   0.78071   0.00000  Uiso   1.00
H259   H     0.55272   0.85715   0.77172   0.00000  Uiso   1.00
H260   H     0.67239   0.27966   0.08885   0.00000  Uiso   1.00
H261   H     0.74131   0.14031   0.58492   0.00000  Uiso   1.00
H262   H     0.84378   0.09795   0.52890   0.00000  Uiso   1.00
H263   H     0.66263   0.06663   0.52463   0.00000  Uiso   1.00
H264   H     0.71939   0.26700   0.67502   0.00000  Uiso   1.00
H265   H     0.95439   0.03414   0.50809   0.00000  Uiso   1.00
H266   H     0.57242   0.96813   0.49910   0.00000  Uiso   1.00
H267   H     0.69209   0.39063   0.81623   0.00000  Uiso   1.00
O268   O     0.01153   0.94843   0.61327   0.00000  Uiso   1.00
O269   O     0.51039   0.86183   0.60150   0.00000  Uiso   1.00
O270   O     0.66740   0.41615   0.01756   0.00000  Uiso   1.00
N271   N     0.92527   0.95511   0.72424   0.00000  Uiso   1.00
N272   N     0.56816   0.89338   0.71584   0.00000  Uiso   1.00
N273   N     0.68002   0.28839   0.01232   0.00000  Uiso   1.00
N274   N     0.93587   0.01483   0.57755   0.00000  Uiso   1.00
N275   N     0.57876   0.95310   0.56914   0.00000  Uiso   1.00
N276   N     0.69062   0.34810   0.86563   0.00000  Uiso   1.00
C277   C     0.77642   0.54039   0.66961   0.00000  Uiso   1.00
C278   C     0.71824   0.53149   0.73471   0.00000  Uiso   1.00
C279   C     0.67523   0.49073   0.70773   0.00000  Uiso   1.00
C280   C     0.62515   0.48947   0.77786   0.00000  Uiso   1.00
C281   C     0.53585   0.46982   0.86470   0.00000  Uiso   1.00
C282   C     0.81666   0.51446   0.73703   0.00000  Uiso   1.00
C283   C     0.85640   0.45940   0.71200   0.00000  Uiso   1.00
C284   C     0.88917   0.44382   0.78409   0.00000  Uiso   1.00
C285   C     0.95270   0.39777   0.87451   0.00000  Uiso   1.00
C286   C     0.78582   0.62333   0.65532   0.00000  Uiso   1.00
C287   C     0.79965   0.65980   0.56159   0.00000  Uiso   1.00
C288   C     0.80647   0.73587   0.56488   0.00000  Uiso   1.00
C289   C     0.82211   0.85885   0.52843   0.00000  Uiso   1.00
C290   C     0.76396   0.61061   0.84212   0.00000  Uiso   1.00
C291   C     0.71148   0.56963   0.82841   0.00000  Uiso   1.00
C292   C     0.66144   0.56843   0.89860   0.00000  Uiso   1.00
C293   C     0.61837   0.52768   0.87173   0.00000  Uiso   1.00
C294   C     0.80989   0.55261   0.83073   0.00000  Uiso   1.00
C295   C     0.84262   0.53710   0.90287   0.00000  Uiso   1.00
C296   C     0.88239   0.48203   0.87796   0.00000  Uiso   1.00
C297   C     0.77905   0.66147   0.74902   0.00000  Uiso   1.00
C298   C     0.78586   0.73750   0.75246   0.00000  Uiso   1.00
C299   C     0.79969   0.77408   0.65875   0.00000  Uiso   1.00
H300   H     0.78169   0.51069   0.59666   0.00000  Uiso   1.00
H301   H     0.68049   0.46122   0.63521   0.00000  Uiso   1.00
H302   H     0.86164   0.42990   0.63948   0.00000  Uiso   1.00
H303   H     0.80488   0.63026   0.48910   0.00000  Uiso   1.00
H304   H     0.56531   0.42317   0.71929   0.00000  Uiso   1.00
H305   H     0.94728   0.35715   0.72828   0.00000  Uiso   1.00
H306   H     0.82761   0.77966   0.41115   0.00000  Uiso   1.00
H307   H     0.75869   0.64031   0.91508   0.00000  Uiso   1.00
H308   H     0.65622   0.59795   0.97110   0.00000  Uiso   1.00
H309   H     0.83737   0.56663   0.97537   0.00000  Uiso   1.00
H310   H     0.78061   0.76700   0.82498   0.00000  Uiso   1.00
H311   H     0.54561   0.53414   0.99191   0.00000  Uiso   1.00
H312   H     0.92758   0.46813   0.00090   0.00000  Uiso   1.00
H313   H     0.80791   0.89063   0.68377   0.00000  Uiso   1.00
O314   O     0.48847   0.44843   0.88673   0.00000  Uiso   1.00
O315   O     0.98961   0.36183   0.89850   0.00000  Uiso   1.00
O316   O     0.83260   0.91615   0.48244   0.00000  Uiso   1.00
N317   N     0.57473   0.45511   0.77576   0.00000  Uiso   1.00
N318   N     0.93184   0.39338   0.78416   0.00000  Uiso   1.00
N319   N     0.81998   0.78839   0.48768   0.00000  Uiso   1.00
N320   N     0.56413   0.51483   0.92245   0.00000  Uiso   1.00
N321   N     0.92124   0.45310   0.93086   0.00000  Uiso   1.00
N322   N     0.80938   0.84810   0.63437   0.00000  Uiso   1.00
C323   C     0.27642   0.04039   0.66961   0.00000  Uiso   1.00
C324   C     0.21824   0.03149   0.73471   0.00000  Uiso   1.00
C325   C     0.17523   0.99073   0.70773   0.00000  Uiso   1.00
C326   C     0.12515   0.98947   0.77786   0.00000  Uiso   1.00
C327   C     0.03585   0.96982   0.86470   0.00000  Uiso   1.00
C328   C     0.31666   0.01446   0.73703   0.00000  Uiso   1.00
C329   C     0.35640   0.95940   0.71200   0.00000  Uiso   1.00
C330   C     0.38917   0.94382   0.78409   0.00000  Uiso   1.00
C331   C     0.45270   0.89777   0.87451   0.00000  Uiso   1.00
C332   C     0.28582   0.12333   0.65532   0.00000  Uiso   1.00
C333   C     0.29965   0.15980   0.56159   0.00000  Uiso   1.00
C334   C     0.30647   0.23587   0.56488   0.00000  Uiso   1.00
C335   C     0.32211   0.35885   0.52843   0.00000  Uiso   1.00
C336   C     0.26396   0.11061   0.84212   0.00000  Uiso   1.00
C337   C     0.21148   0.06963   0.82841   0.00000  Uiso   1.00
C338   C     0.16144   0.06843   0.89860   0.00000  Uiso   1.00
C339   C     0.11837   0.02768   0.87173   0.00000  Uiso   1.00
C340   C     0.30989   0.05261   0.83073   0.00000  Uiso   1.00
C341   C     0.34262   0.03710   0.90287   0.00000  Uiso   1.00
C342   C     0.38239   0.98203   0.87796   0.00000  Uiso   1.00
C343   C     0.27905   0.16147   0.74902   0.00000  Uiso   1.00
C344   C     0.28586   0.23750   0.75246   0.00000  Uiso   1.00
C345   C     0.29969   0.27408   0.65875   0.00000  Uiso   1.00
H346   H     0.28169   0.01069   0.59666   0.00000  Uiso   1.00
H347   H     0.18049   0.96122   0.63521   0.00000  Uiso   1.00
H348   H     0.36164   0.92990   0.63948   0.00000  Uiso   1.00
H349   H     0.30488   0.13026   0.48910   0.00000  Uiso   1.00
H350   H     0.06531   0.92317   0.71929   0.00000  Uiso   1.00
H351   H     0.44728   0.85715   0.72828   0.00000  Uiso   1.00
H352   H     0.32761   0.27966   0.41115   0.00000  Uiso   1.00
H353   H     0.25869   0.14031   0.91508   0.00000  Uiso   1.00
H354   H     0.15622   0.09795   0.97110   0.00000  Uiso   1.00
H355   H     0.33737   0.06663   0.97537   0.00000  Uiso   1.00
H356   H     0.28061   0.26700   0.82498   0.00000  Uiso   1.00
H357   H     0.04561   0.03414   0.99191   0.00000  Uiso   1.00
H358   H     0.42758   0.96813   0.00090   0.00000  Uiso   1.00
H359   H     0.30791   0.39063   0.68377   0.00000  Uiso   1.00
O360   O     0.98847   0.94843   0.88673   0.00000  Uiso   1.00
O361   O     0.48961   0.86183   0.89850   0.00000  Uiso   1.00
O362   O     0.33260   0.41615   0.48244   0.00000  Uiso   1.00
N363   N     0.07473   0.95511   0.77576   0.00000  Uiso   1.00
N364   N     0.43184   0.89338   0.78416   0.00000  Uiso   1.00
N365   N     0.31998   0.28839   0.48768   0.00000  Uiso   1.00
N366   N     0.06413   0.01483   0.92245   0.00000  Uiso   1.00
N367   N     0.42124   0.95310   0.93086   0.00000  Uiso   1.00
N368   N     0.30938   0.34810   0.63437   0.00000  Uiso   1.00
