data_job_02528
_audit_creation_date              2018-12-19
_audit_creation_method            'Materials Studio'
_symmetry_space_group_name_H-M    'P1'
_symmetry_Int_Tables_number       1
_symmetry_cell_setting            triclinic
loop_
_symmetry_equiv_pos_as_xyz
  x,y,z
_cell_length_a                    12.5321
_cell_length_b                    13.7064
_cell_length_c                    20.6126
_cell_angle_alpha                 80.4977
_cell_angle_beta                  86.3245
_cell_angle_gamma                 70.8556
loop_
_atom_site_label
_atom_site_type_symbol
_atom_site_fract_x
_atom_site_fract_y
_atom_site_fract_z
_atom_site_U_iso_or_equiv
_atom_site_adp_type
_atom_site_occupancy
C1     C     0.50365   0.61350   0.16817   0.00000  Uiso   1.00
C2     C     0.60390   0.64038   0.13353   0.00000  Uiso   1.00
C3     C     0.69458   0.57211   0.10447   0.00000  Uiso   1.00
C4     C     0.77779   0.61177   0.07531   0.00000  Uiso   1.00
C5     C     0.93458   0.63764   0.02157   0.00000  Uiso   1.00
C6     C     0.49933   0.64061   0.23733   0.00000  Uiso   1.00
C7     C     0.50207   0.57255   0.29555   0.00000  Uiso   1.00
C8     C     0.49723   0.61241   0.35377   0.00000  Uiso   1.00
C9     C     0.49160   0.63867   0.46118   0.00000  Uiso   1.00
C10    C     0.39850   0.69096   0.13356   0.00000  Uiso   1.00
C11    C     0.31645   0.66523   0.10454   0.00000  Uiso   1.00
C12    C     0.22671   0.74748   0.07541   0.00000  Uiso   1.00
C13    C     0.06453   0.85191   0.02170   0.00000  Uiso   1.00
C14    C     0.49018   0.80532   0.16805   0.00000  Uiso   1.00
C15    C     0.59658   0.74457   0.13347   0.00000  Uiso   1.00
C16    C     0.67967   0.78434   0.10434   0.00000  Uiso   1.00
C17    C     0.77045   0.71614   0.07524   0.00000  Uiso   1.00
C18    C     0.49201   0.74480   0.23727   0.00000  Uiso   1.00
C19    C     0.48716   0.78478   0.29541   0.00000  Uiso   1.00
C20    C     0.48990   0.71679   0.35370   0.00000  Uiso   1.00
C21    C     0.39118   0.79515   0.13350   0.00000  Uiso   1.00
C22    C     0.30155   0.87746   0.10441   0.00000  Uiso   1.00
C23    C     0.21937   0.85186   0.07535   0.00000  Uiso   1.00
H24    H     0.50935   0.53239   0.16822   0.00000  Uiso   1.00
H25    H     0.70022   0.49148   0.10454   0.00000  Uiso   1.00
H26    H     0.50772   0.49193   0.29558   0.00000  Uiso   1.00
H27    H     0.32214   0.58460   0.10460   0.00000  Uiso   1.00
H28    H     0.90862   0.49207   0.03393   0.00000  Uiso   1.00
H29    H     0.50269   0.49302   0.43675   0.00000  Uiso   1.00
H30    H     0.11135   0.68843   0.03404   0.00000  Uiso   1.00
H31    H     0.48448   0.88644   0.16800   0.00000  Uiso   1.00
H32    H     0.67398   0.86497   0.10430   0.00000  Uiso   1.00
H33    H     0.48149   0.86541   0.29535   0.00000  Uiso   1.00
H34    H     0.29591   0.95807   0.10437   0.00000  Uiso   1.00
H35    H     0.88733   0.79521   0.03374   0.00000  Uiso   1.00
H36    H     0.48140   0.79615   0.43656   0.00000  Uiso   1.00
H37    H     0.09007   0.99156   0.03385   0.00000  Uiso   1.00
O38    O     0.02310   0.62312   0.99195   0.00000  Uiso   1.00
O39    O     0.49052   0.62436   0.52044   0.00000  Uiso   1.00
O40    O     0.97710   0.88073   0.99209   0.00000  Uiso   1.00
N41    N     0.87759   0.56637   0.04261   0.00000  Uiso   1.00
N42    N     0.49809   0.56725   0.41923   0.00000  Uiso   1.00
N43    N     0.13221   0.74993   0.04274   0.00000  Uiso   1.00
N44    N     0.86613   0.72948   0.04251   0.00000  Uiso   1.00
N45    N     0.48664   0.73036   0.41913   0.00000  Uiso   1.00
N46    N     0.12075   0.91305   0.04264   0.00000  Uiso   1.00
C47    C     0.49635   0.38650   0.83183   0.00000  Uiso   1.00
C48    C     0.39610   0.35962   0.86647   0.00000  Uiso   1.00
C49    C     0.30542   0.42789   0.89553   0.00000  Uiso   1.00
C50    C     0.22221   0.38823   0.92469   0.00000  Uiso   1.00
C51    C     0.06542   0.36236   0.97843   0.00000  Uiso   1.00
C52    C     0.50067   0.35939   0.76267   0.00000  Uiso   1.00
C53    C     0.49793   0.42745   0.70445   0.00000  Uiso   1.00
C54    C     0.50277   0.38759   0.64623   0.00000  Uiso   1.00
C55    C     0.50840   0.36133   0.53882   0.00000  Uiso   1.00
C56    C     0.60150   0.30904   0.86644   0.00000  Uiso   1.00
C57    C     0.68355   0.33477   0.89546   0.00000  Uiso   1.00
C58    C     0.77329   0.25252   0.92459   0.00000  Uiso   1.00
C59    C     0.93547   0.14809   0.97830   0.00000  Uiso   1.00
C60    C     0.50982   0.19468   0.83195   0.00000  Uiso   1.00
C61    C     0.40342   0.25543   0.86653   0.00000  Uiso   1.00
C62    C     0.32033   0.21566   0.89566   0.00000  Uiso   1.00
C63    C     0.22955   0.28386   0.92476   0.00000  Uiso   1.00
C64    C     0.50799   0.25520   0.76273   0.00000  Uiso   1.00
C65    C     0.51284   0.21522   0.70459   0.00000  Uiso   1.00
C66    C     0.51010   0.28321   0.64630   0.00000  Uiso   1.00
C67    C     0.60882   0.20485   0.86650   0.00000  Uiso   1.00
C68    C     0.69845   0.12254   0.89559   0.00000  Uiso   1.00
C69    C     0.78063   0.14814   0.92465   0.00000  Uiso   1.00
H70    H     0.49065   0.46761   0.83178   0.00000  Uiso   1.00
H71    H     0.29978   0.50852   0.89546   0.00000  Uiso   1.00
H72    H     0.49228   0.50807   0.70442   0.00000  Uiso   1.00
H73    H     0.67786   0.41540   0.89540   0.00000  Uiso   1.00
H74    H     0.09138   0.50793   0.96607   0.00000  Uiso   1.00
H75    H     0.49731   0.50698   0.56325   0.00000  Uiso   1.00
H76    H     0.88865   0.31157   0.96596   0.00000  Uiso   1.00
H77    H     0.51552   0.11356   0.83200   0.00000  Uiso   1.00
H78    H     0.32602   0.13503   0.89570   0.00000  Uiso   1.00
H79    H     0.51851   0.13459   0.70465   0.00000  Uiso   1.00
H80    H     0.70409   0.04193   0.89563   0.00000  Uiso   1.00
H81    H     0.11267   0.20479   0.96626   0.00000  Uiso   1.00
H82    H     0.51860   0.20385   0.56344   0.00000  Uiso   1.00
H83    H     0.90993   0.00844   0.96615   0.00000  Uiso   1.00
O84    O     0.97690   0.37688   0.00805   0.00000  Uiso   1.00
O85    O     0.50948   0.37564   0.47956   0.00000  Uiso   1.00
O86    O     0.02290   0.11927   0.00791   0.00000  Uiso   1.00
N87    N     0.12241   0.43363   0.95739   0.00000  Uiso   1.00
N88    N     0.50191   0.43275   0.58077   0.00000  Uiso   1.00
N89    N     0.86779   0.25007   0.95726   0.00000  Uiso   1.00
N90    N     0.13387   0.27052   0.95749   0.00000  Uiso   1.00
N91    N     0.51336   0.26964   0.58087   0.00000  Uiso   1.00
N92    N     0.87925   0.08695   0.95736   0.00000  Uiso   1.00
