data_job_04862
_audit_creation_date              2018-12-19
_audit_creation_method            'Materials Studio'
_symmetry_space_group_name_H-M    'P1'
_symmetry_Int_Tables_number       1
_symmetry_cell_setting            triclinic
loop_
_symmetry_equiv_pos_as_xyz
  x,y,z
_cell_length_a                    22.5574
_cell_length_b                    12.4826
_cell_length_c                    19.9241
_cell_angle_alpha                 90.0000
_cell_angle_beta                  90.0000
_cell_angle_gamma                 90.0000
loop_
_atom_site_label
_atom_site_type_symbol
_atom_site_fract_x
_atom_site_fract_y
_atom_site_fract_z
_atom_site_U_iso_or_equiv
_atom_site_adp_type
_atom_site_occupancy
C1     C     0.47576   0.65726   0.04782   0.00000  Uiso   1.00
C2     C     0.43888   0.55566   0.03990   0.00000  Uiso   1.00
C3     C     0.43183   0.49763   0.98103   0.00000  Uiso   1.00
C4     C     0.39630   0.40695   0.98415   0.00000  Uiso   1.00
C5     C     0.34323   0.25395   0.96276   0.00000  Uiso   1.00
C6     C     0.52005   0.63421   0.10382   0.00000  Uiso   1.00
C7     C     0.58125   0.64224   0.09868   0.00000  Uiso   1.00
C8     C     0.61404   0.61770   0.15562   0.00000  Uiso   1.00
C9     C     0.68698   0.58672   0.23347   0.00000  Uiso   1.00
C10    C     0.43371   0.74226   0.07529   0.00000  Uiso   1.00
C11    C     0.42232   0.84115   0.04618   0.00000  Uiso   1.00
C12    C     0.38243   0.90758   0.07911   0.00000  Uiso   1.00
C13    C     0.32132   0.04436   0.11266   0.00000  Uiso   1.00
C14    C     0.42519   0.59941   0.15806   0.00000  Uiso   1.00
C15    C     0.41141   0.52424   0.09978   0.00000  Uiso   1.00
C16    C     0.37587   0.43363   0.10300   0.00000  Uiso   1.00
C17    C     0.36877   0.37548   0.04414   0.00000  Uiso   1.00
C18    C     0.49258   0.60279   0.16369   0.00000  Uiso   1.00
C19    C     0.52529   0.57824   0.22065   0.00000  Uiso   1.00
C20    C     0.58652   0.58622   0.21561   0.00000  Uiso   1.00
C21    C     0.40623   0.71084   0.13517   0.00000  Uiso   1.00
C22    C     0.36636   0.77714   0.16815   0.00000  Uiso   1.00
C23    C     0.35491   0.87611   0.13910   0.00000  Uiso   1.00
H24    H     0.49716   0.68172   0.00120   0.00000  Uiso   1.00
H25    H     0.45311   0.52197   0.93470   0.00000  Uiso   1.00
H26    H     0.60249   0.66657   0.05234   0.00000  Uiso   1.00
H27    H     0.44359   0.86543   0.99985   0.00000  Uiso   1.00
H28    H     0.39217   0.33098   0.88738   0.00000  Uiso   1.00
H29    H     0.70716   0.63590   0.13544   0.00000  Uiso   1.00
H30    H     0.37208   0.05525   0.02474   0.00000  Uiso   1.00
H31    H     0.40380   0.57495   0.20468   0.00000  Uiso   1.00
H32    H     0.35462   0.40934   0.14934   0.00000  Uiso   1.00
H33    H     0.50401   0.55394   0.26698   0.00000  Uiso   1.00
H34    H     0.34511   0.75280   0.21449   0.00000  Uiso   1.00
H35    H     0.31224   0.23956   0.06159   0.00000  Uiso   1.00
H36    H     0.62723   0.54449   0.30965   0.00000  Uiso   1.00
H37    H     0.29215   0.96384   0.19896   0.00000  Uiso   1.00
O38    O     0.32156   0.17823   0.93442   0.00000  Uiso   1.00
O39    O     0.73481   0.57830   0.25986   0.00000  Uiso   1.00
O40    O     0.29519   0.12847   0.11463   0.00000  Uiso   1.00
N41    N     0.38010   0.33220   0.93597   0.00000  Uiso   1.00
N42    N     0.67459   0.61727   0.16789   0.00000  Uiso   1.00
N43    N     0.36134   0.00934   0.06441   0.00000  Uiso   1.00
N44    N     0.33709   0.28301   0.02971   0.00000  Uiso   1.00
N45    N     0.63158   0.56808   0.26163   0.00000  Uiso   1.00
N46    N     0.31832   0.96015   0.15815   0.00000  Uiso   1.00
C47    C     0.58979   0.17012   0.95481   0.00000  Uiso   1.00
C48    C     0.62662   0.06857   0.96326   0.00000  Uiso   1.00
C49    C     0.63306   0.01059   0.02224   0.00000  Uiso   1.00
C50    C     0.66866   0.91996   0.01963   0.00000  Uiso   1.00
C51    C     0.72156   0.76703   0.04179   0.00000  Uiso   1.00
C52    C     0.54611   0.14698   0.89822   0.00000  Uiso   1.00
C53    C     0.48486   0.15494   0.90251   0.00000  Uiso   1.00
C54    C     0.45269   0.13031   0.84514   0.00000  Uiso   1.00
C55    C     0.38059   0.09919   0.76632   0.00000  Uiso   1.00
C56    C     0.63210   0.25514   0.92789   0.00000  Uiso   1.00
C57    C     0.64315   0.35407   0.95712   0.00000  Uiso   1.00
C58    C     0.68336   0.42053   0.92472   0.00000  Uiso   1.00
C59    C     0.74478   0.55735   0.89196   0.00000  Uiso   1.00
C60    C     0.64156   0.11225   0.84528   0.00000  Uiso   1.00
C61    C     0.65474   0.03714   0.90377   0.00000  Uiso   1.00
C62    C     0.69034   0.94657   0.90106   0.00000  Uiso   1.00
C63    C     0.69684   0.88847   0.96003   0.00000  Uiso   1.00
C64    C     0.57423   0.11554   0.83873   0.00000  Uiso   1.00
C65    C     0.54214   0.09091   0.78134   0.00000  Uiso   1.00
C66    C     0.48086   0.09882   0.78555   0.00000  Uiso   1.00
C67    C     0.66022   0.22371   0.86840   0.00000  Uiso   1.00
C68    C     0.70043   0.29004   0.83594   0.00000  Uiso   1.00
C69    C     0.71153   0.38904   0.86512   0.00000  Uiso   1.00
H70    H     0.56789   0.19459   0.00112   0.00000  Uiso   1.00
H71    H     0.61129   0.03494   0.06827   0.00000  Uiso   1.00
H72    H     0.46312   0.17927   0.94856   0.00000  Uiso   1.00
H73    H     0.62138   0.37836   0.00315   0.00000  Uiso   1.00
H74    H     0.67179   0.84406   0.11647   0.00000  Uiso   1.00
H75    H     0.35935   0.14842   0.86405   0.00000  Uiso   1.00
H76    H     0.69308   0.56825   0.97918   0.00000  Uiso   1.00
H77    H     0.66345   0.08778   0.79896   0.00000  Uiso   1.00
H78    H     0.71210   0.92226   0.85502   0.00000  Uiso   1.00
H79    H     0.56391   0.06660   0.73531   0.00000  Uiso   1.00
H80    H     0.72218   0.26569   0.78990   0.00000  Uiso   1.00
H81    H     0.75360   0.75260   0.94339   0.00000  Uiso   1.00
H82    H     0.44116   0.05697   0.69096   0.00000  Uiso   1.00
H83    H     0.77489   0.47680   0.80609   0.00000  Uiso   1.00
O84    O     0.74295   0.69136   0.07045   0.00000  Uiso   1.00
O85    O     0.33305   0.09069   0.73928   0.00000  Uiso   1.00
O86    O     0.77089   0.64150   0.89032   0.00000  Uiso   1.00
N87    N     0.68438   0.84526   0.06805   0.00000  Uiso   1.00
N88    N     0.39227   0.12980   0.83205   0.00000  Uiso   1.00
N89    N     0.70426   0.52233   0.93968   0.00000  Uiso   1.00
N90    N     0.72840   0.79605   0.97491   0.00000  Uiso   1.00
N91    N     0.43629   0.08059   0.73892   0.00000  Uiso   1.00
N92    N     0.74828   0.47311   0.84654   0.00000  Uiso   1.00
C93    C     0.52424   0.34274   0.54782   0.00000  Uiso   1.00
C94    C     0.56112   0.44434   0.53990   0.00000  Uiso   1.00
C95    C     0.56817   0.50237   0.48103   0.00000  Uiso   1.00
C96    C     0.60370   0.59305   0.48415   0.00000  Uiso   1.00
C97    C     0.65677   0.74605   0.46276   0.00000  Uiso   1.00
C98    C     0.47995   0.36579   0.60382   0.00000  Uiso   1.00
C99    C     0.41875   0.35776   0.59868   0.00000  Uiso   1.00
C100   C     0.38596   0.38230   0.65562   0.00000  Uiso   1.00
C101   C     0.31302   0.41328   0.73347   0.00000  Uiso   1.00
C102   C     0.56629   0.25774   0.57529   0.00000  Uiso   1.00
C103   C     0.57768   0.15885   0.54618   0.00000  Uiso   1.00
C104   C     0.61757   0.09242   0.57911   0.00000  Uiso   1.00
C105   C     0.67868   0.95564   0.61266   0.00000  Uiso   1.00
C106   C     0.57481   0.40059   0.65806   0.00000  Uiso   1.00
C107   C     0.58859   0.47576   0.59978   0.00000  Uiso   1.00
C108   C     0.62413   0.56637   0.60300   0.00000  Uiso   1.00
C109   C     0.63123   0.62452   0.54414   0.00000  Uiso   1.00
C110   C     0.50742   0.39721   0.66369   0.00000  Uiso   1.00
C111   C     0.47471   0.42176   0.72065   0.00000  Uiso   1.00
C112   C     0.41348   0.41378   0.71561   0.00000  Uiso   1.00
C113   C     0.59377   0.28916   0.63517   0.00000  Uiso   1.00
C114   C     0.63364   0.22286   0.66815   0.00000  Uiso   1.00
C115   C     0.64509   0.12389   0.63910   0.00000  Uiso   1.00
H116   H     0.50284   0.31828   0.50120   0.00000  Uiso   1.00
H117   H     0.54689   0.47803   0.43470   0.00000  Uiso   1.00
H118   H     0.39751   0.33343   0.55234   0.00000  Uiso   1.00
H119   H     0.55641   0.13457   0.49985   0.00000  Uiso   1.00
H120   H     0.60783   0.66902   0.38738   0.00000  Uiso   1.00
H121   H     0.29284   0.36410   0.63544   0.00000  Uiso   1.00
H122   H     0.62792   0.94475   0.52474   0.00000  Uiso   1.00
H123   H     0.59620   0.42505   0.70468   0.00000  Uiso   1.00
H124   H     0.64538   0.59066   0.64934   0.00000  Uiso   1.00
H125   H     0.49599   0.44606   0.76698   0.00000  Uiso   1.00
H126   H     0.65489   0.24720   0.71449   0.00000  Uiso   1.00
H127   H     0.68776   0.76044   0.56159   0.00000  Uiso   1.00
H128   H     0.37277   0.45551   0.80965   0.00000  Uiso   1.00
H129   H     0.70785   0.03616   0.69896   0.00000  Uiso   1.00
O130   O     0.67844   0.82177   0.43442   0.00000  Uiso   1.00
O131   O     0.26519   0.42170   0.75986   0.00000  Uiso   1.00
O132   O     0.70481   0.87153   0.61463   0.00000  Uiso   1.00
N133   N     0.61990   0.66780   0.43597   0.00000  Uiso   1.00
N134   N     0.32541   0.38273   0.66789   0.00000  Uiso   1.00
N135   N     0.63866   0.99066   0.56441   0.00000  Uiso   1.00
N136   N     0.66291   0.71699   0.52971   0.00000  Uiso   1.00
N137   N     0.36842   0.43192   0.76163   0.00000  Uiso   1.00
N138   N     0.68168   0.03985   0.65815   0.00000  Uiso   1.00
C139   C     0.41021   0.82988   0.45481   0.00000  Uiso   1.00
C140   C     0.37338   0.93143   0.46326   0.00000  Uiso   1.00
C141   C     0.36694   0.98941   0.52224   0.00000  Uiso   1.00
C142   C     0.33134   0.08004   0.51963   0.00000  Uiso   1.00
C143   C     0.27844   0.23297   0.54179   0.00000  Uiso   1.00
C144   C     0.45389   0.85302   0.39822   0.00000  Uiso   1.00
C145   C     0.51514   0.84506   0.40251   0.00000  Uiso   1.00
C146   C     0.54731   0.86969   0.34514   0.00000  Uiso   1.00
C147   C     0.61941   0.90081   0.26632   0.00000  Uiso   1.00
C148   C     0.36790   0.74486   0.42789   0.00000  Uiso   1.00
C149   C     0.35685   0.64593   0.45712   0.00000  Uiso   1.00
C150   C     0.31664   0.57947   0.42472   0.00000  Uiso   1.00
C151   C     0.25522   0.44265   0.39196   0.00000  Uiso   1.00
C152   C     0.35844   0.88775   0.34528   0.00000  Uiso   1.00
C153   C     0.34526   0.96286   0.40377   0.00000  Uiso   1.00
C154   C     0.30966   0.05343   0.40106   0.00000  Uiso   1.00
C155   C     0.30316   0.11153   0.46003   0.00000  Uiso   1.00
C156   C     0.42577   0.88446   0.33873   0.00000  Uiso   1.00
C157   C     0.45786   0.90909   0.28134   0.00000  Uiso   1.00
C158   C     0.51914   0.90118   0.28555   0.00000  Uiso   1.00
C159   C     0.33978   0.77629   0.36840   0.00000  Uiso   1.00
C160   C     0.29957   0.70996   0.33594   0.00000  Uiso   1.00
C161   C     0.28847   0.61096   0.36512   0.00000  Uiso   1.00
H162   H     0.43211   0.80541   0.50112   0.00000  Uiso   1.00
H163   H     0.38871   0.96506   0.56827   0.00000  Uiso   1.00
H164   H     0.53688   0.82073   0.44856   0.00000  Uiso   1.00
H165   H     0.37862   0.62164   0.50315   0.00000  Uiso   1.00
H166   H     0.32821   0.15594   0.61647   0.00000  Uiso   1.00
H167   H     0.64065   0.85158   0.36405   0.00000  Uiso   1.00
H168   H     0.30692   0.43175   0.47918   0.00000  Uiso   1.00
H169   H     0.33655   0.91222   0.29896   0.00000  Uiso   1.00
H170   H     0.28790   0.07774   0.35502   0.00000  Uiso   1.00
H171   H     0.43609   0.93340   0.23531   0.00000  Uiso   1.00
H172   H     0.27782   0.73431   0.28990   0.00000  Uiso   1.00
H173   H     0.24640   0.24740   0.44339   0.00000  Uiso   1.00
H174   H     0.55884   0.94303   0.19096   0.00000  Uiso   1.00
H175   H     0.22511   0.52320   0.30609   0.00000  Uiso   1.00
O176   O     0.25705   0.30864   0.57045   0.00000  Uiso   1.00
O177   O     0.66695   0.90931   0.23928   0.00000  Uiso   1.00
O178   O     0.22911   0.35850   0.39032   0.00000  Uiso   1.00
N179   N     0.31562   0.15474   0.56805   0.00000  Uiso   1.00
N180   N     0.60773   0.87020   0.33205   0.00000  Uiso   1.00
N181   N     0.29574   0.47767   0.43968   0.00000  Uiso   1.00
N182   N     0.27160   0.20395   0.47491   0.00000  Uiso   1.00
N183   N     0.56371   0.91941   0.23892   0.00000  Uiso   1.00
N184   N     0.25172   0.52689   0.34654   0.00000  Uiso   1.00
C185   C     0.97576   0.84274   0.04782   0.00000  Uiso   1.00
C186   C     0.93888   0.94434   0.03990   0.00000  Uiso   1.00
C187   C     0.93183   0.00237   0.98103   0.00000  Uiso   1.00
C188   C     0.89630   0.09305   0.98415   0.00000  Uiso   1.00
C189   C     0.84323   0.24605   0.96276   0.00000  Uiso   1.00
C190   C     0.02005   0.86579   0.10382   0.00000  Uiso   1.00
C191   C     0.08125   0.85776   0.09868   0.00000  Uiso   1.00
C192   C     0.11404   0.88230   0.15562   0.00000  Uiso   1.00
C193   C     0.18698   0.91328   0.23347   0.00000  Uiso   1.00
C194   C     0.93371   0.75774   0.07529   0.00000  Uiso   1.00
C195   C     0.92232   0.65885   0.04618   0.00000  Uiso   1.00
C196   C     0.88243   0.59242   0.07911   0.00000  Uiso   1.00
C197   C     0.82132   0.45564   0.11266   0.00000  Uiso   1.00
C198   C     0.92519   0.90059   0.15806   0.00000  Uiso   1.00
C199   C     0.91141   0.97576   0.09978   0.00000  Uiso   1.00
C200   C     0.87587   0.06637   0.10300   0.00000  Uiso   1.00
C201   C     0.86877   0.12452   0.04414   0.00000  Uiso   1.00
C202   C     0.99258   0.89721   0.16369   0.00000  Uiso   1.00
C203   C     0.02529   0.92176   0.22065   0.00000  Uiso   1.00
C204   C     0.08652   0.91378   0.21561   0.00000  Uiso   1.00
C205   C     0.90623   0.78916   0.13517   0.00000  Uiso   1.00
C206   C     0.86636   0.72286   0.16815   0.00000  Uiso   1.00
C207   C     0.85491   0.62389   0.13910   0.00000  Uiso   1.00
H208   H     0.99716   0.81828   0.00120   0.00000  Uiso   1.00
H209   H     0.95311   0.97803   0.93470   0.00000  Uiso   1.00
H210   H     0.10249   0.83343   0.05234   0.00000  Uiso   1.00
H211   H     0.94359   0.63457   0.99985   0.00000  Uiso   1.00
H212   H     0.89217   0.16902   0.88738   0.00000  Uiso   1.00
H213   H     0.20716   0.86410   0.13544   0.00000  Uiso   1.00
H214   H     0.87208   0.44475   0.02474   0.00000  Uiso   1.00
H215   H     0.90380   0.92505   0.20468   0.00000  Uiso   1.00
H216   H     0.85462   0.09066   0.14934   0.00000  Uiso   1.00
H217   H     0.00401   0.94606   0.26698   0.00000  Uiso   1.00
H218   H     0.84511   0.74720   0.21449   0.00000  Uiso   1.00
H219   H     0.81224   0.26044   0.06159   0.00000  Uiso   1.00
H220   H     0.12723   0.95551   0.30965   0.00000  Uiso   1.00
H221   H     0.79215   0.53616   0.19896   0.00000  Uiso   1.00
O222   O     0.82156   0.32177   0.93442   0.00000  Uiso   1.00
O223   O     0.23481   0.92170   0.25986   0.00000  Uiso   1.00
O224   O     0.79519   0.37153   0.11463   0.00000  Uiso   1.00
N225   N     0.88010   0.16780   0.93597   0.00000  Uiso   1.00
N226   N     0.17459   0.88273   0.16789   0.00000  Uiso   1.00
N227   N     0.86134   0.49066   0.06441   0.00000  Uiso   1.00
N228   N     0.83709   0.21699   0.02971   0.00000  Uiso   1.00
N229   N     0.13158   0.93192   0.26163   0.00000  Uiso   1.00
N230   N     0.81832   0.53985   0.15815   0.00000  Uiso   1.00
C231   C     0.08979   0.32988   0.95481   0.00000  Uiso   1.00
C232   C     0.12662   0.43143   0.96326   0.00000  Uiso   1.00
C233   C     0.13306   0.48941   0.02224   0.00000  Uiso   1.00
C234   C     0.16866   0.58004   0.01963   0.00000  Uiso   1.00
C235   C     0.22156   0.73297   0.04179   0.00000  Uiso   1.00
C236   C     0.04611   0.35302   0.89822   0.00000  Uiso   1.00
C237   C     0.98486   0.34506   0.90251   0.00000  Uiso   1.00
C238   C     0.95269   0.36969   0.84514   0.00000  Uiso   1.00
C239   C     0.88059   0.40081   0.76632   0.00000  Uiso   1.00
C240   C     0.13210   0.24486   0.92789   0.00000  Uiso   1.00
C241   C     0.14315   0.14593   0.95712   0.00000  Uiso   1.00
C242   C     0.18336   0.07947   0.92472   0.00000  Uiso   1.00
C243   C     0.24478   0.94265   0.89196   0.00000  Uiso   1.00
C244   C     0.14156   0.38775   0.84528   0.00000  Uiso   1.00
C245   C     0.15474   0.46286   0.90377   0.00000  Uiso   1.00
C246   C     0.19034   0.55343   0.90106   0.00000  Uiso   1.00
C247   C     0.19684   0.61153   0.96003   0.00000  Uiso   1.00
C248   C     0.07423   0.38446   0.83873   0.00000  Uiso   1.00
C249   C     0.04214   0.40909   0.78134   0.00000  Uiso   1.00
C250   C     0.98086   0.40118   0.78555   0.00000  Uiso   1.00
C251   C     0.16022   0.27629   0.86840   0.00000  Uiso   1.00
C252   C     0.20043   0.20996   0.83594   0.00000  Uiso   1.00
C253   C     0.21153   0.11096   0.86512   0.00000  Uiso   1.00
H254   H     0.06789   0.30541   0.00112   0.00000  Uiso   1.00
H255   H     0.11129   0.46506   0.06827   0.00000  Uiso   1.00
H256   H     0.96312   0.32073   0.94856   0.00000  Uiso   1.00
H257   H     0.12138   0.12164   0.00315   0.00000  Uiso   1.00
H258   H     0.17179   0.65594   0.11647   0.00000  Uiso   1.00
H259   H     0.85935   0.35158   0.86405   0.00000  Uiso   1.00
H260   H     0.19308   0.93175   0.97918   0.00000  Uiso   1.00
H261   H     0.16345   0.41222   0.79896   0.00000  Uiso   1.00
H262   H     0.21210   0.57774   0.85502   0.00000  Uiso   1.00
H263   H     0.06391   0.43340   0.73531   0.00000  Uiso   1.00
H264   H     0.22218   0.23431   0.78990   0.00000  Uiso   1.00
H265   H     0.25360   0.74740   0.94339   0.00000  Uiso   1.00
H266   H     0.94116   0.44303   0.69096   0.00000  Uiso   1.00
H267   H     0.27489   0.02320   0.80609   0.00000  Uiso   1.00
O268   O     0.24295   0.80864   0.07045   0.00000  Uiso   1.00
O269   O     0.83305   0.40931   0.73928   0.00000  Uiso   1.00
O270   O     0.27089   0.85850   0.89032   0.00000  Uiso   1.00
N271   N     0.18438   0.65474   0.06805   0.00000  Uiso   1.00
N272   N     0.89227   0.37020   0.83205   0.00000  Uiso   1.00
N273   N     0.20426   0.97767   0.93968   0.00000  Uiso   1.00
N274   N     0.22840   0.70395   0.97491   0.00000  Uiso   1.00
N275   N     0.93629   0.41941   0.73892   0.00000  Uiso   1.00
N276   N     0.24828   0.02689   0.84654   0.00000  Uiso   1.00
C277   C     0.02424   0.15726   0.54782   0.00000  Uiso   1.00
C278   C     0.06112   0.05566   0.53990   0.00000  Uiso   1.00
C279   C     0.06817   0.99763   0.48103   0.00000  Uiso   1.00
C280   C     0.10370   0.90695   0.48415   0.00000  Uiso   1.00
C281   C     0.15677   0.75395   0.46276   0.00000  Uiso   1.00
C282   C     0.97995   0.13421   0.60382   0.00000  Uiso   1.00
C283   C     0.91875   0.14224   0.59868   0.00000  Uiso   1.00
C284   C     0.88596   0.11770   0.65562   0.00000  Uiso   1.00
C285   C     0.81302   0.08672   0.73347   0.00000  Uiso   1.00
C286   C     0.06629   0.24226   0.57529   0.00000  Uiso   1.00
C287   C     0.07768   0.34115   0.54618   0.00000  Uiso   1.00
C288   C     0.11757   0.40758   0.57911   0.00000  Uiso   1.00
C289   C     0.17868   0.54436   0.61266   0.00000  Uiso   1.00
C290   C     0.07481   0.09941   0.65806   0.00000  Uiso   1.00
C291   C     0.08859   0.02424   0.59978   0.00000  Uiso   1.00
C292   C     0.12413   0.93363   0.60300   0.00000  Uiso   1.00
C293   C     0.13123   0.87548   0.54414   0.00000  Uiso   1.00
C294   C     0.00742   0.10279   0.66369   0.00000  Uiso   1.00
C295   C     0.97471   0.07824   0.72065   0.00000  Uiso   1.00
C296   C     0.91348   0.08622   0.71561   0.00000  Uiso   1.00
C297   C     0.09377   0.21084   0.63517   0.00000  Uiso   1.00
C298   C     0.13364   0.27714   0.66815   0.00000  Uiso   1.00
C299   C     0.14509   0.37611   0.63910   0.00000  Uiso   1.00
H300   H     0.00284   0.18172   0.50120   0.00000  Uiso   1.00
H301   H     0.04689   0.02197   0.43470   0.00000  Uiso   1.00
H302   H     0.89751   0.16657   0.55234   0.00000  Uiso   1.00
H303   H     0.05641   0.36543   0.49985   0.00000  Uiso   1.00
H304   H     0.10783   0.83098   0.38738   0.00000  Uiso   1.00
H305   H     0.79284   0.13590   0.63544   0.00000  Uiso   1.00
H306   H     0.12792   0.55525   0.52474   0.00000  Uiso   1.00
H307   H     0.09620   0.07495   0.70468   0.00000  Uiso   1.00
H308   H     0.14538   0.90934   0.64934   0.00000  Uiso   1.00
H309   H     0.99599   0.05394   0.76698   0.00000  Uiso   1.00
H310   H     0.15489   0.25280   0.71449   0.00000  Uiso   1.00
H311   H     0.18776   0.73956   0.56159   0.00000  Uiso   1.00
H312   H     0.87277   0.04449   0.80965   0.00000  Uiso   1.00
H313   H     0.20785   0.46384   0.69896   0.00000  Uiso   1.00
O314   O     0.17844   0.67823   0.43442   0.00000  Uiso   1.00
O315   O     0.76519   0.07830   0.75986   0.00000  Uiso   1.00
O316   O     0.20481   0.62847   0.61463   0.00000  Uiso   1.00
N317   N     0.11990   0.83220   0.43597   0.00000  Uiso   1.00
N318   N     0.82541   0.11727   0.66789   0.00000  Uiso   1.00
N319   N     0.13866   0.50934   0.56441   0.00000  Uiso   1.00
N320   N     0.16291   0.78301   0.52971   0.00000  Uiso   1.00
N321   N     0.86842   0.06808   0.76163   0.00000  Uiso   1.00
N322   N     0.18168   0.46015   0.65815   0.00000  Uiso   1.00
C323   C     0.91021   0.67012   0.45481   0.00000  Uiso   1.00
C324   C     0.87338   0.56857   0.46326   0.00000  Uiso   1.00
C325   C     0.86694   0.51059   0.52224   0.00000  Uiso   1.00
C326   C     0.83134   0.41996   0.51963   0.00000  Uiso   1.00
C327   C     0.77844   0.26703   0.54179   0.00000  Uiso   1.00
C328   C     0.95389   0.64698   0.39822   0.00000  Uiso   1.00
C329   C     0.01514   0.65494   0.40251   0.00000  Uiso   1.00
C330   C     0.04731   0.63031   0.34514   0.00000  Uiso   1.00
C331   C     0.11941   0.59919   0.26632   0.00000  Uiso   1.00
C332   C     0.86790   0.75514   0.42789   0.00000  Uiso   1.00
C333   C     0.85685   0.85407   0.45712   0.00000  Uiso   1.00
C334   C     0.81664   0.92053   0.42472   0.00000  Uiso   1.00
C335   C     0.75522   0.05735   0.39196   0.00000  Uiso   1.00
C336   C     0.85844   0.61225   0.34528   0.00000  Uiso   1.00
C337   C     0.84526   0.53714   0.40377   0.00000  Uiso   1.00
C338   C     0.80966   0.44657   0.40106   0.00000  Uiso   1.00
C339   C     0.80316   0.38847   0.46003   0.00000  Uiso   1.00
C340   C     0.92577   0.61554   0.33873   0.00000  Uiso   1.00
C341   C     0.95786   0.59091   0.28134   0.00000  Uiso   1.00
C342   C     0.01914   0.59882   0.28555   0.00000  Uiso   1.00
C343   C     0.83978   0.72371   0.36840   0.00000  Uiso   1.00
C344   C     0.79957   0.79004   0.33594   0.00000  Uiso   1.00
C345   C     0.78847   0.88904   0.36512   0.00000  Uiso   1.00
H346   H     0.93211   0.69459   0.50112   0.00000  Uiso   1.00
H347   H     0.88871   0.53494   0.56827   0.00000  Uiso   1.00
H348   H     0.03688   0.67927   0.44856   0.00000  Uiso   1.00
H349   H     0.87862   0.87836   0.50315   0.00000  Uiso   1.00
H350   H     0.82821   0.34406   0.61647   0.00000  Uiso   1.00
H351   H     0.14065   0.64842   0.36405   0.00000  Uiso   1.00
H352   H     0.80692   0.06825   0.47918   0.00000  Uiso   1.00
H353   H     0.83655   0.58778   0.29896   0.00000  Uiso   1.00
H354   H     0.78790   0.42226   0.35502   0.00000  Uiso   1.00
H355   H     0.93609   0.56660   0.23531   0.00000  Uiso   1.00
H356   H     0.77782   0.76569   0.28990   0.00000  Uiso   1.00
H357   H     0.74640   0.25260   0.44339   0.00000  Uiso   1.00
H358   H     0.05884   0.55697   0.19096   0.00000  Uiso   1.00
H359   H     0.72511   0.97680   0.30609   0.00000  Uiso   1.00
O360   O     0.75705   0.19136   0.57045   0.00000  Uiso   1.00
O361   O     0.16695   0.59069   0.23928   0.00000  Uiso   1.00
O362   O     0.72911   0.14150   0.39032   0.00000  Uiso   1.00
N363   N     0.81562   0.34526   0.56805   0.00000  Uiso   1.00
N364   N     0.10773   0.62980   0.33205   0.00000  Uiso   1.00
N365   N     0.79574   0.02233   0.43968   0.00000  Uiso   1.00
N366   N     0.77160   0.29605   0.47491   0.00000  Uiso   1.00
N367   N     0.06371   0.58059   0.23892   0.00000  Uiso   1.00
N368   N     0.75172   0.97311   0.34654   0.00000  Uiso   1.00
