data_job_05319
_audit_creation_date              2018-12-19
_audit_creation_method            'Materials Studio'
_symmetry_space_group_name_H-M    'P1'
_symmetry_Int_Tables_number       1
_symmetry_cell_setting            triclinic
loop_
_symmetry_equiv_pos_as_xyz
  x,y,z
_cell_length_a                    10.4689
_cell_length_b                    11.9690
_cell_length_c                    22.9394
_cell_angle_alpha                 90.0000
_cell_angle_beta                  127.4949
_cell_angle_gamma                 90.0000
loop_
_atom_site_label
_atom_site_type_symbol
_atom_site_fract_x
_atom_site_fract_y
_atom_site_fract_z
_atom_site_U_iso_or_equiv
_atom_site_adp_type
_atom_site_occupancy
C1     C     0.18228   0.83301   0.67226   0.00000  Uiso   1.00
C2     C     0.13163   0.78509   0.59939   0.00000  Uiso   1.00
C3     C     0.19498   0.81508   0.56324   0.00000  Uiso   1.00
C4     C     0.13245   0.76158   0.49717   0.00000  Uiso   1.00
C5     C     0.07223   0.69947   0.38838   0.00000  Uiso   1.00
C6     C     0.02927   0.87894   0.65761   0.00000  Uiso   1.00
C7     C     0.00658   0.98782   0.67041   0.00000  Uiso   1.00
C8     C     0.85789   0.01331   0.65336   0.00000  Uiso   1.00
C9     C     0.63880   0.09688   0.63501   0.00000  Uiso   1.00
C10    C     0.23264   0.73336   0.72344   0.00000  Uiso   1.00
C11    C     0.38092   0.71985   0.79161   0.00000  Uiso   1.00
C12    C     0.40344   0.62279   0.82999   0.00000  Uiso   1.00
C13    C     0.50011   0.48033   0.91385   0.00000  Uiso   1.00
C14    C     0.95859   0.68468   0.61922   0.00000  Uiso   1.00
C15    C     0.01013   0.70453   0.57058   0.00000  Uiso   1.00
C16    C     0.94749   0.65096   0.50455   0.00000  Uiso   1.00
C17    C     0.01074   0.68086   0.46831   0.00000  Uiso   1.00
C18    C     0.90778   0.79838   0.62880   0.00000  Uiso   1.00
C19    C     0.75909   0.82371   0.61173   0.00000  Uiso   1.00
C20    C     0.73617   0.93260   0.62450   0.00000  Uiso   1.00
C21    C     0.11114   0.65279   0.69463   0.00000  Uiso   1.00
C22    C     0.13343   0.55574   0.73292   0.00000  Uiso   1.00
C23    C     0.28172   0.54208   0.80113   0.00000  Uiso   1.00
H24    H     0.27686   0.89574   0.69469   0.00000  Uiso   1.00
H25    H     0.28899   0.87744   0.58555   0.00000  Uiso   1.00
H26    H     0.10063   0.05015   0.69271   0.00000  Uiso   1.00
H27    H     0.47491   0.78222   0.81389   0.00000  Uiso   1.00
H28    H     0.24882   0.82164   0.45182   0.00000  Uiso   1.00
H29    H     0.85166   0.18581   0.67781   0.00000  Uiso   1.00
H30    H     0.64091   0.62083   0.93333   0.00000  Uiso   1.00
H31    H     0.86400   0.62195   0.59679   0.00000  Uiso   1.00
H32    H     0.85347   0.58862   0.48227   0.00000  Uiso   1.00
H33    H     0.66510   0.76134   0.58944   0.00000  Uiso   1.00
H34    H     0.03939   0.49341   0.71061   0.00000  Uiso   1.00
H35    H     0.89532   0.58723   0.36800   0.00000  Uiso   1.00
H36    H     0.49817   0.95140   0.59399   0.00000  Uiso   1.00
H37    H     0.28742   0.38641   0.84951   0.00000  Uiso   1.00
O38    O     0.07256   0.68748   0.33633   0.00000  Uiso   1.00
O39    O     0.55152   0.16524   0.63283   0.00000  Uiso   1.00
O40    O     0.58699   0.42400   0.96806   0.00000  Uiso   1.00
N41    N     0.16709   0.77103   0.44782   0.00000  Uiso   1.00
N42    N     0.79576   0.11151   0.65909   0.00000  Uiso   1.00
N43    N     0.53363   0.58331   0.89799   0.00000  Uiso   1.00
N44    N     0.97688   0.64490   0.40271   0.00000  Uiso   1.00
N45    N     0.60555   0.98537   0.61399   0.00000  Uiso   1.00
N46    N     0.34342   0.45718   0.85289   0.00000  Uiso   1.00
C47    C     0.81772   0.83301   0.82774   0.00000  Uiso   1.00
C48    C     0.86837   0.78509   0.90061   0.00000  Uiso   1.00
C49    C     0.80502   0.81508   0.93676   0.00000  Uiso   1.00
C50    C     0.86755   0.76158   0.00283   0.00000  Uiso   1.00
C51    C     0.92777   0.69947   0.11162   0.00000  Uiso   1.00
C52    C     0.97073   0.87894   0.84239   0.00000  Uiso   1.00
C53    C     0.99342   0.98782   0.82959   0.00000  Uiso   1.00
C54    C     0.14211   0.01331   0.84664   0.00000  Uiso   1.00
C55    C     0.36120   0.09688   0.86499   0.00000  Uiso   1.00
C56    C     0.76736   0.73336   0.77656   0.00000  Uiso   1.00
C57    C     0.61908   0.71985   0.70839   0.00000  Uiso   1.00
C58    C     0.59656   0.62279   0.67001   0.00000  Uiso   1.00
C59    C     0.49989   0.48033   0.58615   0.00000  Uiso   1.00
C60    C     0.04141   0.68468   0.88078   0.00000  Uiso   1.00
C61    C     0.98987   0.70453   0.92942   0.00000  Uiso   1.00
C62    C     0.05251   0.65096   0.99545   0.00000  Uiso   1.00
C63    C     0.98926   0.68086   0.03169   0.00000  Uiso   1.00
C64    C     0.09222   0.79838   0.87120   0.00000  Uiso   1.00
C65    C     0.24091   0.82371   0.88827   0.00000  Uiso   1.00
C66    C     0.26383   0.93260   0.87550   0.00000  Uiso   1.00
C67    C     0.88886   0.65279   0.80537   0.00000  Uiso   1.00
C68    C     0.86657   0.55574   0.76708   0.00000  Uiso   1.00
C69    C     0.71828   0.54208   0.69887   0.00000  Uiso   1.00
H70    H     0.72314   0.89574   0.80531   0.00000  Uiso   1.00
H71    H     0.71101   0.87744   0.91445   0.00000  Uiso   1.00
H72    H     0.89937   0.05015   0.80729   0.00000  Uiso   1.00
H73    H     0.52509   0.78222   0.68611   0.00000  Uiso   1.00
H74    H     0.75118   0.82164   0.04818   0.00000  Uiso   1.00
H75    H     0.14834   0.18581   0.82219   0.00000  Uiso   1.00
H76    H     0.35909   0.62083   0.56667   0.00000  Uiso   1.00
H77    H     0.13600   0.62195   0.90321   0.00000  Uiso   1.00
H78    H     0.14653   0.58862   0.01773   0.00000  Uiso   1.00
H79    H     0.33490   0.76134   0.91056   0.00000  Uiso   1.00
H80    H     0.96061   0.49341   0.78939   0.00000  Uiso   1.00
H81    H     0.10468   0.58723   0.13200   0.00000  Uiso   1.00
H82    H     0.50183   0.95140   0.90601   0.00000  Uiso   1.00
H83    H     0.71258   0.38641   0.65049   0.00000  Uiso   1.00
O84    O     0.92744   0.68748   0.16367   0.00000  Uiso   1.00
O85    O     0.44848   0.16524   0.86717   0.00000  Uiso   1.00
O86    O     0.41301   0.42400   0.53194   0.00000  Uiso   1.00
N87    N     0.83291   0.77103   0.05218   0.00000  Uiso   1.00
N88    N     0.20424   0.11151   0.84091   0.00000  Uiso   1.00
N89    N     0.46637   0.58331   0.60201   0.00000  Uiso   1.00
N90    N     0.02312   0.64490   0.09729   0.00000  Uiso   1.00
N91    N     0.39445   0.98537   0.88601   0.00000  Uiso   1.00
N92    N     0.65658   0.45718   0.64711   0.00000  Uiso   1.00
C93    C     0.81772   0.16699   0.32774   0.00000  Uiso   1.00
C94    C     0.86837   0.21491   0.40061   0.00000  Uiso   1.00
C95    C     0.80502   0.18492   0.43676   0.00000  Uiso   1.00
C96    C     0.86755   0.23842   0.50283   0.00000  Uiso   1.00
C97    C     0.92777   0.30053   0.61162   0.00000  Uiso   1.00
C98    C     0.97073   0.12106   0.34239   0.00000  Uiso   1.00
C99    C     0.99342   0.01218   0.32959   0.00000  Uiso   1.00
C100   C     0.14211   0.98669   0.34664   0.00000  Uiso   1.00
C101   C     0.36120   0.90312   0.36499   0.00000  Uiso   1.00
C102   C     0.76736   0.26664   0.27656   0.00000  Uiso   1.00
C103   C     0.61908   0.28015   0.20839   0.00000  Uiso   1.00
C104   C     0.59656   0.37721   0.17001   0.00000  Uiso   1.00
C105   C     0.49989   0.51967   0.08615   0.00000  Uiso   1.00
C106   C     0.04141   0.31532   0.38078   0.00000  Uiso   1.00
C107   C     0.98987   0.29547   0.42942   0.00000  Uiso   1.00
C108   C     0.05251   0.34904   0.49545   0.00000  Uiso   1.00
C109   C     0.98926   0.31914   0.53169   0.00000  Uiso   1.00
C110   C     0.09222   0.20162   0.37120   0.00000  Uiso   1.00
C111   C     0.24091   0.17629   0.38827   0.00000  Uiso   1.00
C112   C     0.26383   0.06740   0.37550   0.00000  Uiso   1.00
C113   C     0.88886   0.34721   0.30537   0.00000  Uiso   1.00
C114   C     0.86657   0.44426   0.26708   0.00000  Uiso   1.00
C115   C     0.71828   0.45792   0.19887   0.00000  Uiso   1.00
H116   H     0.72314   0.10426   0.30531   0.00000  Uiso   1.00
H117   H     0.71101   0.12256   0.41445   0.00000  Uiso   1.00
H118   H     0.89937   0.94985   0.30729   0.00000  Uiso   1.00
H119   H     0.52509   0.21778   0.18611   0.00000  Uiso   1.00
H120   H     0.75118   0.17836   0.54818   0.00000  Uiso   1.00
H121   H     0.14834   0.81419   0.32219   0.00000  Uiso   1.00
H122   H     0.35909   0.37917   0.06667   0.00000  Uiso   1.00
H123   H     0.13600   0.37805   0.40321   0.00000  Uiso   1.00
H124   H     0.14653   0.41138   0.51773   0.00000  Uiso   1.00
H125   H     0.33490   0.23866   0.41056   0.00000  Uiso   1.00
H126   H     0.96061   0.50659   0.28939   0.00000  Uiso   1.00
H127   H     0.10468   0.41277   0.63200   0.00000  Uiso   1.00
H128   H     0.50183   0.04860   0.40601   0.00000  Uiso   1.00
H129   H     0.71258   0.61359   0.15049   0.00000  Uiso   1.00
O130   O     0.92744   0.31252   0.66367   0.00000  Uiso   1.00
O131   O     0.44848   0.83476   0.36717   0.00000  Uiso   1.00
O132   O     0.41301   0.57600   0.03194   0.00000  Uiso   1.00
N133   N     0.83291   0.22897   0.55218   0.00000  Uiso   1.00
N134   N     0.20424   0.88849   0.34091   0.00000  Uiso   1.00
N135   N     0.46637   0.41669   0.10201   0.00000  Uiso   1.00
N136   N     0.02312   0.35510   0.59729   0.00000  Uiso   1.00
N137   N     0.39445   0.01463   0.38601   0.00000  Uiso   1.00
N138   N     0.65658   0.54282   0.14711   0.00000  Uiso   1.00
C139   C     0.18228   0.16699   0.17226   0.00000  Uiso   1.00
C140   C     0.13163   0.21491   0.09939   0.00000  Uiso   1.00
C141   C     0.19498   0.18492   0.06324   0.00000  Uiso   1.00
C142   C     0.13245   0.23842   0.99717   0.00000  Uiso   1.00
C143   C     0.07223   0.30053   0.88838   0.00000  Uiso   1.00
C144   C     0.02927   0.12106   0.15761   0.00000  Uiso   1.00
C145   C     0.00658   0.01218   0.17041   0.00000  Uiso   1.00
C146   C     0.85789   0.98669   0.15336   0.00000  Uiso   1.00
C147   C     0.63880   0.90312   0.13501   0.00000  Uiso   1.00
C148   C     0.23264   0.26664   0.22344   0.00000  Uiso   1.00
C149   C     0.38092   0.28015   0.29161   0.00000  Uiso   1.00
C150   C     0.40344   0.37721   0.32999   0.00000  Uiso   1.00
C151   C     0.50011   0.51967   0.41385   0.00000  Uiso   1.00
C152   C     0.95859   0.31532   0.11922   0.00000  Uiso   1.00
C153   C     0.01013   0.29547   0.07058   0.00000  Uiso   1.00
C154   C     0.94749   0.34904   0.00455   0.00000  Uiso   1.00
C155   C     0.01074   0.31914   0.96831   0.00000  Uiso   1.00
C156   C     0.90778   0.20162   0.12880   0.00000  Uiso   1.00
C157   C     0.75909   0.17629   0.11173   0.00000  Uiso   1.00
C158   C     0.73617   0.06740   0.12450   0.00000  Uiso   1.00
C159   C     0.11114   0.34721   0.19463   0.00000  Uiso   1.00
C160   C     0.13343   0.44426   0.23292   0.00000  Uiso   1.00
C161   C     0.28172   0.45792   0.30113   0.00000  Uiso   1.00
H162   H     0.27686   0.10426   0.19469   0.00000  Uiso   1.00
H163   H     0.28899   0.12256   0.08555   0.00000  Uiso   1.00
H164   H     0.10063   0.94985   0.19271   0.00000  Uiso   1.00
H165   H     0.47491   0.21778   0.31389   0.00000  Uiso   1.00
H166   H     0.24882   0.17836   0.95182   0.00000  Uiso   1.00
H167   H     0.85166   0.81419   0.17781   0.00000  Uiso   1.00
H168   H     0.64091   0.37917   0.43333   0.00000  Uiso   1.00
H169   H     0.86400   0.37805   0.09679   0.00000  Uiso   1.00
H170   H     0.85347   0.41138   0.98227   0.00000  Uiso   1.00
H171   H     0.66510   0.23866   0.08944   0.00000  Uiso   1.00
H172   H     0.03939   0.50659   0.21061   0.00000  Uiso   1.00
H173   H     0.89532   0.41277   0.86800   0.00000  Uiso   1.00
H174   H     0.49817   0.04860   0.09399   0.00000  Uiso   1.00
H175   H     0.28742   0.61359   0.34951   0.00000  Uiso   1.00
O176   O     0.07256   0.31252   0.83633   0.00000  Uiso   1.00
O177   O     0.55152   0.83476   0.13283   0.00000  Uiso   1.00
O178   O     0.58699   0.57600   0.46806   0.00000  Uiso   1.00
N179   N     0.16709   0.22897   0.94782   0.00000  Uiso   1.00
N180   N     0.79576   0.88849   0.15909   0.00000  Uiso   1.00
N181   N     0.53363   0.41669   0.39799   0.00000  Uiso   1.00
N182   N     0.97688   0.35510   0.90271   0.00000  Uiso   1.00
N183   N     0.60555   0.01463   0.11399   0.00000  Uiso   1.00
N184   N     0.34342   0.54282   0.35289   0.00000  Uiso   1.00
