data_job_06454
_audit_creation_date              2018-12-19
_audit_creation_method            'Materials Studio'
_symmetry_space_group_name_H-M    'P1'
_symmetry_Int_Tables_number       1
_symmetry_cell_setting            triclinic
loop_
_symmetry_equiv_pos_as_xyz
  x,y,z
_cell_length_a                    17.3422
_cell_length_b                    16.8440
_cell_length_c                    15.5386
_cell_angle_alpha                 99.2795
_cell_angle_beta                  99.5272
_cell_angle_gamma                 97.3731
loop_
_atom_site_label
_atom_site_type_symbol
_atom_site_fract_x
_atom_site_fract_y
_atom_site_fract_z
_atom_site_U_iso_or_equiv
_atom_site_adp_type
_atom_site_occupancy
C1     C     0.70230   0.27124   0.14611   0.00000  Uiso   1.00
C2     C     0.73260   0.19152   0.11934   0.00000  Uiso   1.00
C3     C     0.80669   0.17400   0.15205   0.00000  Uiso   1.00
C4     C     0.82309   0.09762   0.11915   0.00000  Uiso   1.00
C5     C     0.87864   0.98249   0.08718   0.00000  Uiso   1.00
C6     C     0.67822   0.30236   0.06028   0.00000  Uiso   1.00
C7     C     0.70658   0.37804   0.04333   0.00000  Uiso   1.00
C8     C     0.67719   0.39496   0.96072   0.00000  Uiso   1.00
C9     C     0.64826   0.45194   0.83708   0.00000  Uiso   1.00
C10    C     0.62576   0.24823   0.17881   0.00000  Uiso   1.00
C11    C     0.61000   0.27840   0.26152   0.00000  Uiso   1.00
C12    C     0.53643   0.24975   0.27870   0.00000  Uiso   1.00
C13    C     0.42605   0.22267   0.33910   0.00000  Uiso   1.00
C14    C     0.59968   0.16675   0.02952   0.00000  Uiso   1.00
C15    C     0.67686   0.13477   0.05601   0.00000  Uiso   1.00
C16    C     0.69315   0.05839   0.02306   0.00000  Uiso   1.00
C17    C     0.76725   0.04075   0.05571   0.00000  Uiso   1.00
C18    C     0.62248   0.24561   0.99695   0.00000  Uiso   1.00
C19    C     0.59304   0.26243   0.91434   0.00000  Uiso   1.00
C20    C     0.62135   0.33810   0.89728   0.00000  Uiso   1.00
C21    C     0.57002   0.19147   0.11549   0.00000  Uiso   1.00
C22    C     0.49646   0.16278   0.13253   0.00000  Uiso   1.00
C23    C     0.48059   0.19289   0.21525   0.00000  Uiso   1.00
H24    H     0.74570   0.31543   0.19541   0.00000  Uiso   1.00
H25    H     0.84982   0.21794   0.20105   0.00000  Uiso   1.00
H26    H     0.74971   0.42195   0.09235   0.00000  Uiso   1.00
H27    H     0.65315   0.32232   0.31051   0.00000  Uiso   1.00
H28    H     0.94068   0.08484   0.17935   0.00000  Uiso   1.00
H29    H     0.72958   0.51501   0.95017   0.00000  Uiso   1.00
H30    H     0.52596   0.30492   0.41020   0.00000  Uiso   1.00
H31    H     0.55628   0.12256   0.98022   0.00000  Uiso   1.00
H32    H     0.65000   0.01448   0.97405   0.00000  Uiso   1.00
H33    H     0.54990   0.21849   0.86536   0.00000  Uiso   1.00
H34    H     0.45334   0.11886   0.08351   0.00000  Uiso   1.00
H35    H     0.77851   0.91971   0.99511   0.00000  Uiso   1.00
H36    H     0.56740   0.34988   0.76593   0.00000  Uiso   1.00
H37    H     0.36378   0.13978   0.22596   0.00000  Uiso   1.00
O38    O     0.92468   0.93467   0.08703   0.00000  Uiso   1.00
O39    O     0.64771   0.49904   0.78637   0.00000  Uiso   1.00
O40    O     0.38056   0.22340   0.38991   0.00000  Uiso   1.00
N41    N     0.88965   0.06080   0.13685   0.00000  Uiso   1.00
N42    N     0.69229   0.46298   0.92258   0.00000  Uiso   1.00
N43    N     0.50191   0.26658   0.35265   0.00000  Uiso   1.00
N44    N     0.80238   0.97194   0.03771   0.00000  Uiso   1.00
N45    N     0.60502   0.37413   0.82344   0.00000  Uiso   1.00
N46    N     0.41464   0.17772   0.25352   0.00000  Uiso   1.00
C47    C     0.13355   0.70360   0.27147   0.00000  Uiso   1.00
C48    C     0.10938   0.73411   0.18527   0.00000  Uiso   1.00
C49    C     0.13714   0.80982   0.16799   0.00000  Uiso   1.00
C50    C     0.10776   0.82613   0.08508   0.00000  Uiso   1.00
C51    C     0.07859   0.88226   0.96087   0.00000  Uiso   1.00
C52    C     0.05696   0.68002   0.30386   0.00000  Uiso   1.00
C53    C     0.04067   0.71024   0.38629   0.00000  Uiso   1.00
C54    C     0.96717   0.68100   0.40321   0.00000  Uiso   1.00
C55    C     0.85665   0.65309   0.46314   0.00000  Uiso   1.00
C56    C     0.16472   0.62426   0.24544   0.00000  Uiso   1.00
C57    C     0.23901   0.60758   0.27877   0.00000  Uiso   1.00
C58    C     0.25623   0.53139   0.24651   0.00000  Uiso   1.00
C59    C     0.31301   0.41692   0.21574   0.00000  Uiso   1.00
C60    C     0.03201   0.59793   0.15495   0.00000  Uiso   1.00
C61    C     0.05422   0.67672   0.12198   0.00000  Uiso   1.00
C62    C     0.02480   0.69291   0.03907   0.00000  Uiso   1.00
C63    C     0.05251   0.76864   0.02167   0.00000  Uiso   1.00
C64    C     0.00181   0.62262   0.24057   0.00000  Uiso   1.00
C65    C     0.92833   0.59333   0.25737   0.00000  Uiso   1.00
C66    C     0.91192   0.62350   0.33981   0.00000  Uiso   1.00
C67    C     0.10957   0.56686   0.18215   0.00000  Uiso   1.00
C68    C     0.12667   0.49068   0.14985   0.00000  Uiso   1.00
C69    C     0.20098   0.47389   0.18311   0.00000  Uiso   1.00
H70    H     0.17648   0.74828   0.32074   0.00000  Uiso   1.00
H71    H     0.17981   0.85423   0.21698   0.00000  Uiso   1.00
H72    H     0.08336   0.75465   0.43525   0.00000  Uiso   1.00
H73    H     0.28168   0.65201   0.32774   0.00000  Uiso   1.00
H74    H     0.15916   0.94638   0.07405   0.00000  Uiso   1.00
H75    H     0.95579   0.73640   0.53429   0.00000  Uiso   1.00
H76    H     0.37398   0.51998   0.30759   0.00000  Uiso   1.00
H77    H     0.98907   0.55324   0.10568   0.00000  Uiso   1.00
H78    H     0.98212   0.64849   0.99011   0.00000  Uiso   1.00
H79    H     0.88566   0.54891   0.20838   0.00000  Uiso   1.00
H80    H     0.08398   0.44628   0.10087   0.00000  Uiso   1.00
H81    H     0.99870   0.77940   0.88991   0.00000  Uiso   1.00
H82    H     0.79534   0.56941   0.35016   0.00000  Uiso   1.00
H83    H     0.21352   0.35299   0.12345   0.00000  Uiso   1.00
O84    O     0.07772   0.92908   0.90985   0.00000  Uiso   1.00
O85    O     0.81092   0.65357   0.51368   0.00000  Uiso   1.00
O86    O     0.35957   0.36963   0.21624   0.00000  Uiso   1.00
N87    N     0.12237   0.89401   0.04657   0.00000  Uiso   1.00
N88    N     0.93222   0.69769   0.47686   0.00000  Uiso   1.00
N89    N     0.32319   0.49535   0.26493   0.00000  Uiso   1.00
N90    N     0.03602   0.80415   0.94748   0.00000  Uiso   1.00
N91    N     0.84588   0.60784   0.37778   0.00000  Uiso   1.00
N92    N     0.23685   0.40549   0.16584   0.00000  Uiso   1.00
C93    C     0.27206   0.13761   0.71294   0.00000  Uiso   1.00
C94    C     0.19515   0.11393   0.74466   0.00000  Uiso   1.00
C95    C     0.17856   0.14354   0.82712   0.00000  Uiso   1.00
C96    C     0.10481   0.11431   0.84337   0.00000  Uiso   1.00
C97    C     0.99379   0.08615   0.90237   0.00000  Uiso   1.00
C98    C     0.30295   0.05822   0.68629   0.00000  Uiso   1.00
C99    C     0.37701   0.04100   0.71966   0.00000  Uiso   1.00
C100   C     0.39400   0.96487   0.68676   0.00000  Uiso   1.00
C101   C     0.45037   0.85025   0.65509   0.00000  Uiso   1.00
C102   C     0.24853   0.16901   0.62717   0.00000  Uiso   1.00
C103   C     0.27684   0.24494   0.61082   0.00000  Uiso   1.00
C104   C     0.24802   0.26208   0.52814   0.00000  Uiso   1.00
C105   C     0.21989   0.31948   0.40468   0.00000  Uiso   1.00
C106   C     0.17057   0.03304   0.59517   0.00000  Uiso   1.00
C107   C     0.14002   0.05713   0.68069   0.00000  Uiso   1.00
C108   C     0.06627   0.02785   0.69682   0.00000  Uiso   1.00
C109   C     0.04958   0.05741   0.77928   0.00000  Uiso   1.00
C110   C     0.24783   0.00142   0.62232   0.00000  Uiso   1.00
C111   C     0.26472   0.92531   0.58936   0.00000  Uiso   1.00
C112   C     0.33878   0.90798   0.62268   0.00000  Uiso   1.00
C113   C     0.19340   0.11222   0.56320   0.00000  Uiso   1.00
C114   C     0.16454   0.12924   0.48053   0.00000  Uiso   1.00
C115   C     0.19280   0.20518   0.46406   0.00000  Uiso   1.00
H116   H     0.31498   0.18182   0.76274   0.00000  Uiso   1.00
H117   H     0.22124   0.18749   0.87661   0.00000  Uiso   1.00
H118   H     0.41966   0.08497   0.76916   0.00000  Uiso   1.00
H119   H     0.31950   0.28887   0.66034   0.00000  Uiso   1.00
H120   H     0.09302   0.16870   0.97465   0.00000  Uiso   1.00
H121   H     0.51140   0.95254   0.74806   0.00000  Uiso   1.00
H122   H     0.30019   0.38251   0.51860   0.00000  Uiso   1.00
H123   H     0.12765   0.98882   0.54536   0.00000  Uiso   1.00
H124   H     0.02362   0.98390   0.64730   0.00000  Uiso   1.00
H125   H     0.22204   0.88137   0.53985   0.00000  Uiso   1.00
H126   H     0.12188   0.08528   0.43104   0.00000  Uiso   1.00
H127   H     0.93263   0.00345   0.78854   0.00000  Uiso   1.00
H128   H     0.35101   0.78729   0.56195   0.00000  Uiso   1.00
H129   H     0.13980   0.21727   0.33249   0.00000  Uiso   1.00
O130   O     0.94778   0.08630   0.95258   0.00000  Uiso   1.00
O131   O     0.49669   0.80271   0.65530   0.00000  Uiso   1.00
O132   O     0.21959   0.36683   0.35426   0.00000  Uiso   1.00
N133   N     0.06954   0.13050   0.91685   0.00000  Uiso   1.00
N134   N     0.46070   0.92839   0.70502   0.00000  Uiso   1.00
N135   N     0.26325   0.33038   0.49048   0.00000  Uiso   1.00
N136   N     0.98323   0.04158   0.81671   0.00000  Uiso   1.00
N137   N     0.37439   0.83948   0.60487   0.00000  Uiso   1.00
N138   N     0.17695   0.24146   0.39034   0.00000  Uiso   1.00
C139   C     0.20073   0.63640   0.77145   0.00000  Uiso   1.00
C140   C     0.23033   0.61172   0.68544   0.00000  Uiso   1.00
C141   C     0.30384   0.64049   0.66833   0.00000  Uiso   1.00
C142   C     0.31966   0.61042   0.58557   0.00000  Uiso   1.00
C143   C     0.37413   0.58070   0.46167   0.00000  Uiso   1.00
C144   C     0.17803   0.55752   0.80403   0.00000  Uiso   1.00
C145   C     0.20755   0.54071   0.88663   0.00000  Uiso   1.00
C146   C     0.17933   0.46501   0.90370   0.00000  Uiso   1.00
C147   C     0.15255   0.35117   0.96393   0.00000  Uiso   1.00
C148   C     0.12349   0.66831   0.74504   0.00000  Uiso   1.00
C149   C     0.10715   0.74465   0.77805   0.00000  Uiso   1.00
C150   C     0.03300   0.76223   0.74547   0.00000  Uiso   1.00
C151   C     0.92154   0.82040   0.71411   0.00000  Uiso   1.00
C152   C     0.09810   0.53185   0.65493   0.00000  Uiso   1.00
C153   C     0.17459   0.55493   0.62216   0.00000  Uiso   1.00
C154   C     0.19030   0.52481   0.53941   0.00000  Uiso   1.00
C155   C     0.26382   0.55353   0.52217   0.00000  Uiso   1.00
C156   C     0.12229   0.50073   0.74075   0.00000  Uiso   1.00
C157   C     0.09401   0.42504   0.75771   0.00000  Uiso   1.00
C158   C     0.12349   0.40812   0.84030   0.00000  Uiso   1.00
C159   C     0.06775   0.61152   0.68175   0.00000  Uiso   1.00
C160   C     0.99361   0.62897   0.64913   0.00000  Uiso   1.00
C161   C     0.97716   0.70533   0.68207   0.00000  Uiso   1.00
H162   H     0.24412   0.68061   0.82073   0.00000  Uiso   1.00
H163   H     0.34697   0.68443   0.71733   0.00000  Uiso   1.00
H164   H     0.25068   0.58468   0.93559   0.00000  Uiso   1.00
H165   H     0.15030   0.78858   0.82702   0.00000  Uiso   1.00
H166   H     0.43642   0.66360   0.57478   0.00000  Uiso   1.00
H167   H     0.23338   0.45327   0.03502   0.00000  Uiso   1.00
H168   H     0.02170   0.88325   0.80609   0.00000  Uiso   1.00
H169   H     0.05470   0.48763   0.60566   0.00000  Uiso   1.00
H170   H     0.14716   0.48086   0.49044   0.00000  Uiso   1.00
H171   H     0.05087   0.38111   0.70872   0.00000  Uiso   1.00
H172   H     0.95049   0.58501   0.60015   0.00000  Uiso   1.00
H173   H     0.27424   0.49837   0.39064   0.00000  Uiso   1.00
H174   H     0.07120   0.28804   0.85089   0.00000  Uiso   1.00
H175   H     0.85952   0.71802   0.62195   0.00000  Uiso   1.00
O176   O     0.41958   0.58000   0.41081   0.00000  Uiso   1.00
O177   O     0.15318   0.30406   0.01464   0.00000  Uiso   1.00
O178   O     0.87547   0.86818   0.71428   0.00000  Uiso   1.00
N179   N     0.38556   0.62565   0.54725   0.00000  Uiso   1.00
N180   N     0.19574   0.42900   0.97754   0.00000  Uiso   1.00
N181   N     0.99782   0.83099   0.76353   0.00000  Uiso   1.00
N182   N     0.29829   0.53675   0.44816   0.00000  Uiso   1.00
N183   N     0.10847   0.34010   0.87846   0.00000  Uiso   1.00
N184   N     0.91056   0.74209   0.66444   0.00000  Uiso   1.00
C185   C     0.63517   0.77130   0.21337   0.00000  Uiso   1.00
C186   C     0.61238   0.69208   0.24528   0.00000  Uiso   1.00
C187   C     0.64131   0.67498   0.32789   0.00000  Uiso   1.00
C188   C     0.61309   0.59901   0.34431   0.00000  Uiso   1.00
C189   C     0.58606   0.48466   0.40360   0.00000  Uiso   1.00
C190   C     0.55789   0.80292   0.18633   0.00000  Uiso   1.00
C191   C     0.54101   0.87902   0.21938   0.00000  Uiso   1.00
C192   C     0.46693   0.89636   0.18616   0.00000  Uiso   1.00
C193   C     0.35533   0.95411   0.15389   0.00000  Uiso   1.00
C194   C     0.66564   0.74728   0.12779   0.00000  Uiso   1.00
C195   C     0.73936   0.77661   0.11160   0.00000  Uiso   1.00
C196   C     0.75599   0.74712   0.02908   0.00000  Uiso   1.00
C197   C     0.81169   0.71847   0.90592   0.00000  Uiso   1.00
C198   C     0.53361   0.66679   0.09559   0.00000  Uiso   1.00
C199   C     0.55721   0.63532   0.18131   0.00000  Uiso   1.00
C200   C     0.52895   0.55935   0.19759   0.00000  Uiso   1.00
C201   C     0.55784   0.54215   0.28022   0.00000  Uiso   1.00
C202   C     0.50273   0.74616   0.12236   0.00000  Uiso   1.00
C203   C     0.42866   0.76340   0.08908   0.00000  Uiso   1.00
C204   C     0.41167   0.83950   0.12208   0.00000  Uiso   1.00
C205   C     0.61048   0.69051   0.06382   0.00000  Uiso   1.00
C206   C     0.62700   0.66098   0.98130   0.00000  Uiso   1.00
C207   C     0.70073   0.69025   0.96500   0.00000  Uiso   1.00
H208   H     0.67811   0.81549   0.26317   0.00000  Uiso   1.00
H209   H     0.68399   0.71893   0.37738   0.00000  Uiso   1.00
H210   H     0.58371   0.92293   0.26888   0.00000  Uiso   1.00
H211   H     0.78202   0.82053   0.16112   0.00000  Uiso   1.00
H212   H     0.66616   0.58684   0.47582   0.00000  Uiso   1.00
H213   H     0.45473   0.01702   0.24700   0.00000  Uiso   1.00
H214   H     0.87292   0.80109   0.01977   0.00000  Uiso   1.00
H215   H     0.49067   0.62260   0.04579   0.00000  Uiso   1.00
H216   H     0.48626   0.51544   0.14808   0.00000  Uiso   1.00
H217   H     0.38599   0.71946   0.03958   0.00000  Uiso   1.00
H218   H     0.58430   0.61705   0.93182   0.00000  Uiso   1.00
H219   H     0.50568   0.42169   0.28971   0.00000  Uiso   1.00
H220   H     0.29425   0.85187   0.06089   0.00000  Uiso   1.00
H221   H     0.71243   0.63594   0.83366   0.00000  Uiso   1.00
O222   O     0.58638   0.43727   0.45398   0.00000  Uiso   1.00
O223   O     0.30901   0.00165   0.15378   0.00000  Uiso   1.00
O224   O     0.85765   0.71835   0.85566   0.00000  Uiso   1.00
N225   N     0.62901   0.56267   0.41797   0.00000  Uiso   1.00
N226   N     0.43133   0.96486   0.20405   0.00000  Uiso   1.00
N227   N     0.82229   0.76300   0.99160   0.00000  Uiso   1.00
N228   N     0.54265   0.47381   0.31783   0.00000  Uiso   1.00
N229   N     0.34498   0.87599   0.10391   0.00000  Uiso   1.00
N230   N     0.73593   0.67413   0.89146   0.00000  Uiso   1.00
C231   C     0.77202   0.20475   0.64570   0.00000  Uiso   1.00
C232   C     0.69442   0.23576   0.61855   0.00000  Uiso   1.00
C233   C     0.67725   0.31190   0.65093   0.00000  Uiso   1.00
C234   C     0.60291   0.32863   0.61771   0.00000  Uiso   1.00
C235   C     0.49082   0.38553   0.58515   0.00000  Uiso   1.00
C236   C     0.80222   0.18016   0.56006   0.00000  Uiso   1.00
C237   C     0.87569   0.20954   0.54327   0.00000  Uiso   1.00
C238   C     0.89210   0.17946   0.46082   0.00000  Uiso   1.00
C239   C     0.94740   0.15000   0.33748   0.00000  Uiso   1.00
C240   C     0.74987   0.12591   0.67859   0.00000  Uiso   1.00
C241   C     0.77934   0.10966   0.76146   0.00000  Uiso   1.00
C242   C     0.75170   0.03389   0.77880   0.00000  Uiso   1.00
C243   C     0.72572   0.92019   0.83950   0.00000  Uiso   1.00
C244   C     0.67054   0.09908   0.52912   0.00000  Uiso   1.00
C245   C     0.63930   0.17837   0.55522   0.00000  Uiso   1.00
C246   C     0.56497   0.19499   0.52195   0.00000  Uiso   1.00
C247   C     0.54769   0.27113   0.55427   0.00000  Uiso   1.00
C248   C     0.74710   0.12277   0.49674   0.00000  Uiso   1.00
C249   C     0.76342   0.09263   0.41429   0.00000  Uiso   1.00
C250   C     0.83689   0.12196   0.39738   0.00000  Uiso   1.00
C251   C     0.69475   0.06851   0.61527   0.00000  Uiso   1.00
C252   C     0.66706   0.99275   0.63248   0.00000  Uiso   1.00
C253   C     0.69648   0.97639   0.71536   0.00000  Uiso   1.00
H254   H     0.81493   0.24943   0.69499   0.00000  Uiso   1.00
H255   H     0.71992   0.35630   0.69993   0.00000  Uiso   1.00
H256   H     0.91833   0.25395   0.59229   0.00000  Uiso   1.00
H257   H     0.82200   0.15409   0.81045   0.00000  Uiso   1.00
H258   H     0.59029   0.44948   0.67745   0.00000  Uiso   1.00
H259   H     0.00866   0.23366   0.45050   0.00000  Uiso   1.00
H260   H     0.80552   0.02307   0.91053   0.00000  Uiso   1.00
H261   H     0.62762   0.05439   0.47981   0.00000  Uiso   1.00
H262   H     0.52233   0.15056   0.47294   0.00000  Uiso   1.00
H263   H     0.72075   0.04821   0.36530   0.00000  Uiso   1.00
H264   H     0.62441   0.94835   0.58346   0.00000  Uiso   1.00
H265   H     0.42992   0.28250   0.49321   0.00000  Uiso   1.00
H266   H     0.84830   0.06667   0.26627   0.00000  Uiso   1.00
H267   H     0.64515   0.85608   0.72629   0.00000  Uiso   1.00
O268   O     0.44423   0.43278   0.58467   0.00000  Uiso   1.00
O269   O     0.99313   0.14961   0.28694   0.00000  Uiso   1.00
O270   O     0.72660   0.87333   0.89048   0.00000  Uiso   1.00
N271   N     0.56699   0.39698   0.63505   0.00000  Uiso   1.00
N272   N     0.95814   0.19520   0.42286   0.00000  Uiso   1.00
N273   N     0.76824   0.99831   0.85294   0.00000  Uiso   1.00
N274   N     0.48069   0.30712   0.53591   0.00000  Uiso   1.00
N275   N     0.87185   0.10535   0.32372   0.00000  Uiso   1.00
N276   N     0.68194   0.90846   0.75380   0.00000  Uiso   1.00
