data_job_04775
_audit_creation_date              2018-12-19
_audit_creation_method            'Materials Studio'
_symmetry_space_group_name_H-M    'P1'
_symmetry_Int_Tables_number       1
_symmetry_cell_setting            triclinic
loop_
_symmetry_equiv_pos_as_xyz
  x,y,z
_cell_length_a                    12.2648
_cell_length_b                    20.7024
_cell_length_c                    20.5716
_cell_angle_alpha                 90.0000
_cell_angle_beta                  90.0000
_cell_angle_gamma                 90.0000
loop_
_atom_site_label
_atom_site_type_symbol
_atom_site_fract_x
_atom_site_fract_y
_atom_site_fract_z
_atom_site_U_iso_or_equiv
_atom_site_adp_type
_atom_site_occupancy
C1     C     0.71065   0.07599   0.05305   0.00000  Uiso   1.00
C2     C     0.82388   0.10636   0.05509   0.00000  Uiso   1.00
C3     C     0.89103   0.11699   0.00186   0.00000  Uiso   1.00
C4     C     0.99162   0.14533   0.01389   0.00000  Uiso   1.00
C5     C     0.16256   0.18985   0.00749   0.00000  Uiso   1.00
C6     C     0.71468   0.01830   0.09907   0.00000  Uiso   1.00
C7     C     0.68999   0.95490   0.08281   0.00000  Uiso   1.00
C8     C     0.69865   0.90912   0.13186   0.00000  Uiso   1.00
C9     C     0.69997   0.81694   0.19375   0.00000  Uiso   1.00
C10    C     0.63400   0.12485   0.08448   0.00000  Uiso   1.00
C11    C     0.54146   0.15103   0.05597   0.00000  Uiso   1.00
C12    C     0.48217   0.19495   0.09275   0.00000  Uiso   1.00
C13    C     0.35823   0.26821   0.13198   0.00000  Uiso   1.00
C14    C     0.76989   0.10742   0.16907   0.00000  Uiso   1.00
C15    C     0.85605   0.12342   0.11811   0.00000  Uiso   1.00
C16    C     0.95657   0.15176   0.13022   0.00000  Uiso   1.00
C17    C     0.02385   0.16243   0.07702   0.00000  Uiso   1.00
C18    C     0.74685   0.03536   0.16209   0.00000  Uiso   1.00
C19    C     0.75554   0.98967   0.21117   0.00000  Uiso   1.00
C20    C     0.73088   0.92622   0.19499   0.00000  Uiso   1.00
C21    C     0.66617   0.14192   0.14750   0.00000  Uiso   1.00
C22    C     0.60701   0.18580   0.18433   0.00000  Uiso   1.00
C23    C     0.51440   0.21205   0.15588   0.00000  Uiso   1.00
H24    H     0.68560   0.06270   0.00399   0.00000  Uiso   1.00
H25    H     0.86610   0.10377   0.95310   0.00000  Uiso   1.00
H26    H     0.66508   0.94171   0.03404   0.00000  Uiso   1.00
H27    H     0.51658   0.13781   0.00720   0.00000  Uiso   1.00
H28    H     0.08042   0.15681   0.92448   0.00000  Uiso   1.00
H29    H     0.65654   0.81510   0.09515   0.00000  Uiso   1.00
H30    H     0.34339   0.22862   0.03856   0.00000  Uiso   1.00
H31    H     0.79494   0.12070   0.21813   0.00000  Uiso   1.00
H32    H     0.98145   0.16496   0.17900   0.00000  Uiso   1.00
H33    H     0.78043   0.00289   0.25994   0.00000  Uiso   1.00
H34    H     0.63193   0.19900   0.23310   0.00000  Uiso   1.00
H35    H     0.17405   0.20647   0.10782   0.00000  Uiso   1.00
H36    H     0.75016   0.86476   0.27850   0.00000  Uiso   1.00
H37    H     0.43701   0.27828   0.22190   0.00000  Uiso   1.00
O38    O     0.24797   0.20968   0.98655   0.00000  Uiso   1.00
O39    O     0.69183   0.76138   0.21046   0.00000  Uiso   1.00
O40    O     0.28098   0.30391   0.13621   0.00000  Uiso   1.00
N41    N     0.07685   0.16243   0.97300   0.00000  Uiso   1.00
N42    N     0.68056   0.84295   0.13256   0.00000  Uiso   1.00
N43    N     0.38778   0.22955   0.07966   0.00000  Uiso   1.00
N44    N     0.12723   0.18915   0.07165   0.00000  Uiso   1.00
N45    N     0.73094   0.86967   0.23122   0.00000  Uiso   1.00
N46    N     0.43815   0.25627   0.17832   0.00000  Uiso   1.00
C47    C     0.78935   0.92401   0.55305   0.00000  Uiso   1.00
C48    C     0.67612   0.89364   0.55509   0.00000  Uiso   1.00
C49    C     0.60897   0.88301   0.50186   0.00000  Uiso   1.00
C50    C     0.50838   0.85467   0.51389   0.00000  Uiso   1.00
C51    C     0.33744   0.81015   0.50749   0.00000  Uiso   1.00
C52    C     0.78532   0.98170   0.59907   0.00000  Uiso   1.00
C53    C     0.81001   0.04510   0.58281   0.00000  Uiso   1.00
C54    C     0.80135   0.09088   0.63186   0.00000  Uiso   1.00
C55    C     0.80003   0.18306   0.69375   0.00000  Uiso   1.00
C56    C     0.86600   0.87515   0.58448   0.00000  Uiso   1.00
C57    C     0.95854   0.84897   0.55597   0.00000  Uiso   1.00
C58    C     0.01783   0.80505   0.59275   0.00000  Uiso   1.00
C59    C     0.14177   0.73179   0.63198   0.00000  Uiso   1.00
C60    C     0.73011   0.89258   0.66907   0.00000  Uiso   1.00
C61    C     0.64395   0.87658   0.61811   0.00000  Uiso   1.00
C62    C     0.54343   0.84824   0.63022   0.00000  Uiso   1.00
C63    C     0.47615   0.83757   0.57702   0.00000  Uiso   1.00
C64    C     0.75315   0.96464   0.66209   0.00000  Uiso   1.00
C65    C     0.74446   0.01033   0.71117   0.00000  Uiso   1.00
C66    C     0.76912   0.07378   0.69499   0.00000  Uiso   1.00
C67    C     0.83383   0.85808   0.64750   0.00000  Uiso   1.00
C68    C     0.89299   0.81420   0.68433   0.00000  Uiso   1.00
C69    C     0.98560   0.78795   0.65588   0.00000  Uiso   1.00
H70    H     0.81440   0.93730   0.50399   0.00000  Uiso   1.00
H71    H     0.63390   0.89623   0.45310   0.00000  Uiso   1.00
H72    H     0.83492   0.05829   0.53404   0.00000  Uiso   1.00
H73    H     0.98342   0.86219   0.50720   0.00000  Uiso   1.00
H74    H     0.41958   0.84319   0.42448   0.00000  Uiso   1.00
H75    H     0.84346   0.18490   0.59515   0.00000  Uiso   1.00
H76    H     0.15661   0.77138   0.53856   0.00000  Uiso   1.00
H77    H     0.70506   0.87930   0.71813   0.00000  Uiso   1.00
H78    H     0.51855   0.83504   0.67900   0.00000  Uiso   1.00
H79    H     0.71957   0.99711   0.75994   0.00000  Uiso   1.00
H80    H     0.86807   0.80100   0.73310   0.00000  Uiso   1.00
H81    H     0.32595   0.79353   0.60782   0.00000  Uiso   1.00
H82    H     0.74984   0.13524   0.77850   0.00000  Uiso   1.00
H83    H     0.06299   0.72172   0.72190   0.00000  Uiso   1.00
O84    O     0.25203   0.79032   0.48655   0.00000  Uiso   1.00
O85    O     0.80817   0.23862   0.71046   0.00000  Uiso   1.00
O86    O     0.21902   0.69609   0.63621   0.00000  Uiso   1.00
N87    N     0.42315   0.83757   0.47300   0.00000  Uiso   1.00
N88    N     0.81944   0.15705   0.63256   0.00000  Uiso   1.00
N89    N     0.11222   0.77045   0.57966   0.00000  Uiso   1.00
N90    N     0.37277   0.81085   0.57165   0.00000  Uiso   1.00
N91    N     0.76906   0.13033   0.73122   0.00000  Uiso   1.00
N92    N     0.06185   0.74373   0.67832   0.00000  Uiso   1.00
C93    C     0.28935   0.57599   0.44695   0.00000  Uiso   1.00
C94    C     0.17612   0.60636   0.44491   0.00000  Uiso   1.00
C95    C     0.10897   0.61699   0.49814   0.00000  Uiso   1.00
C96    C     0.00838   0.64533   0.48611   0.00000  Uiso   1.00
C97    C     0.83744   0.68985   0.49251   0.00000  Uiso   1.00
C98    C     0.28532   0.51830   0.40093   0.00000  Uiso   1.00
C99    C     0.31001   0.45490   0.41719   0.00000  Uiso   1.00
C100   C     0.30135   0.40912   0.36814   0.00000  Uiso   1.00
C101   C     0.30003   0.31694   0.30625   0.00000  Uiso   1.00
C102   C     0.36600   0.62485   0.41552   0.00000  Uiso   1.00
C103   C     0.45854   0.65103   0.44403   0.00000  Uiso   1.00
C104   C     0.51783   0.69495   0.40725   0.00000  Uiso   1.00
C105   C     0.64177   0.76821   0.36802   0.00000  Uiso   1.00
C106   C     0.23011   0.60742   0.33093   0.00000  Uiso   1.00
C107   C     0.14395   0.62342   0.38189   0.00000  Uiso   1.00
C108   C     0.04343   0.65176   0.36978   0.00000  Uiso   1.00
C109   C     0.97615   0.66243   0.42298   0.00000  Uiso   1.00
C110   C     0.25315   0.53536   0.33791   0.00000  Uiso   1.00
C111   C     0.24446   0.48967   0.28883   0.00000  Uiso   1.00
C112   C     0.26912   0.42622   0.30501   0.00000  Uiso   1.00
C113   C     0.33383   0.64192   0.35250   0.00000  Uiso   1.00
C114   C     0.39299   0.68580   0.31567   0.00000  Uiso   1.00
C115   C     0.48560   0.71205   0.34412   0.00000  Uiso   1.00
H116   H     0.31440   0.56270   0.49601   0.00000  Uiso   1.00
H117   H     0.13390   0.60377   0.54690   0.00000  Uiso   1.00
H118   H     0.33492   0.44171   0.46596   0.00000  Uiso   1.00
H119   H     0.48342   0.63781   0.49280   0.00000  Uiso   1.00
H120   H     0.91958   0.65681   0.57552   0.00000  Uiso   1.00
H121   H     0.34346   0.31510   0.40485   0.00000  Uiso   1.00
H122   H     0.65661   0.72862   0.46144   0.00000  Uiso   1.00
H123   H     0.20506   0.62070   0.28187   0.00000  Uiso   1.00
H124   H     0.01855   0.66496   0.32100   0.00000  Uiso   1.00
H125   H     0.21957   0.50289   0.24006   0.00000  Uiso   1.00
H126   H     0.36807   0.69900   0.26690   0.00000  Uiso   1.00
H127   H     0.82595   0.70647   0.39218   0.00000  Uiso   1.00
H128   H     0.24984   0.36476   0.22150   0.00000  Uiso   1.00
H129   H     0.56299   0.77828   0.27810   0.00000  Uiso   1.00
O130   O     0.75203   0.70968   0.51345   0.00000  Uiso   1.00
O131   O     0.30817   0.26138   0.28954   0.00000  Uiso   1.00
O132   O     0.71902   0.80391   0.36379   0.00000  Uiso   1.00
N133   N     0.92315   0.66243   0.52700   0.00000  Uiso   1.00
N134   N     0.31944   0.34295   0.36744   0.00000  Uiso   1.00
N135   N     0.61222   0.72955   0.42034   0.00000  Uiso   1.00
N136   N     0.87277   0.68915   0.42835   0.00000  Uiso   1.00
N137   N     0.26906   0.36967   0.26878   0.00000  Uiso   1.00
N138   N     0.56185   0.75627   0.32168   0.00000  Uiso   1.00
C139   C     0.21065   0.42401   0.94695   0.00000  Uiso   1.00
C140   C     0.32388   0.39364   0.94491   0.00000  Uiso   1.00
C141   C     0.39103   0.38301   0.99814   0.00000  Uiso   1.00
C142   C     0.49162   0.35467   0.98611   0.00000  Uiso   1.00
C143   C     0.66256   0.31015   0.99251   0.00000  Uiso   1.00
C144   C     0.21468   0.48170   0.90093   0.00000  Uiso   1.00
C145   C     0.18999   0.54510   0.91719   0.00000  Uiso   1.00
C146   C     0.19865   0.59088   0.86814   0.00000  Uiso   1.00
C147   C     0.19997   0.68306   0.80625   0.00000  Uiso   1.00
C148   C     0.13400   0.37515   0.91552   0.00000  Uiso   1.00
C149   C     0.04146   0.34897   0.94403   0.00000  Uiso   1.00
C150   C     0.98217   0.30505   0.90725   0.00000  Uiso   1.00
C151   C     0.85823   0.23179   0.86802   0.00000  Uiso   1.00
C152   C     0.26989   0.39258   0.83093   0.00000  Uiso   1.00
C153   C     0.35605   0.37658   0.88189   0.00000  Uiso   1.00
C154   C     0.45657   0.34824   0.86978   0.00000  Uiso   1.00
C155   C     0.52385   0.33757   0.92298   0.00000  Uiso   1.00
C156   C     0.24685   0.46464   0.83791   0.00000  Uiso   1.00
C157   C     0.25554   0.51033   0.78883   0.00000  Uiso   1.00
C158   C     0.23088   0.57378   0.80501   0.00000  Uiso   1.00
C159   C     0.16617   0.35808   0.85250   0.00000  Uiso   1.00
C160   C     0.10701   0.31420   0.81567   0.00000  Uiso   1.00
C161   C     0.01440   0.28795   0.84412   0.00000  Uiso   1.00
H162   H     0.18560   0.43730   0.99601   0.00000  Uiso   1.00
H163   H     0.36610   0.39623   0.04690   0.00000  Uiso   1.00
H164   H     0.16508   0.55829   0.96596   0.00000  Uiso   1.00
H165   H     0.01658   0.36219   0.99280   0.00000  Uiso   1.00
H166   H     0.58042   0.34319   0.07552   0.00000  Uiso   1.00
H167   H     0.15654   0.68490   0.90485   0.00000  Uiso   1.00
H168   H     0.84339   0.27138   0.96144   0.00000  Uiso   1.00
H169   H     0.29494   0.37930   0.78187   0.00000  Uiso   1.00
H170   H     0.48145   0.33504   0.82100   0.00000  Uiso   1.00
H171   H     0.28043   0.49711   0.74006   0.00000  Uiso   1.00
H172   H     0.13193   0.30100   0.76690   0.00000  Uiso   1.00
H173   H     0.67405   0.29353   0.89218   0.00000  Uiso   1.00
H174   H     0.25016   0.63524   0.72150   0.00000  Uiso   1.00
H175   H     0.93701   0.22172   0.77810   0.00000  Uiso   1.00
O176   O     0.74797   0.29032   0.01345   0.00000  Uiso   1.00
O177   O     0.19183   0.73862   0.78954   0.00000  Uiso   1.00
O178   O     0.78098   0.19609   0.86379   0.00000  Uiso   1.00
N179   N     0.57685   0.33757   0.02700   0.00000  Uiso   1.00
N180   N     0.18056   0.65705   0.86744   0.00000  Uiso   1.00
N181   N     0.88778   0.27045   0.92034   0.00000  Uiso   1.00
N182   N     0.62723   0.31085   0.92835   0.00000  Uiso   1.00
N183   N     0.23094   0.63033   0.76878   0.00000  Uiso   1.00
N184   N     0.93815   0.24373   0.82168   0.00000  Uiso   1.00
C185   C     0.28935   0.92401   0.94695   0.00000  Uiso   1.00
C186   C     0.17612   0.89364   0.94491   0.00000  Uiso   1.00
C187   C     0.10897   0.88301   0.99814   0.00000  Uiso   1.00
C188   C     0.00838   0.85467   0.98611   0.00000  Uiso   1.00
C189   C     0.83744   0.81015   0.99251   0.00000  Uiso   1.00
C190   C     0.28532   0.98170   0.90093   0.00000  Uiso   1.00
C191   C     0.31001   0.04510   0.91719   0.00000  Uiso   1.00
C192   C     0.30135   0.09088   0.86814   0.00000  Uiso   1.00
C193   C     0.30003   0.18306   0.80625   0.00000  Uiso   1.00
C194   C     0.36600   0.87515   0.91552   0.00000  Uiso   1.00
C195   C     0.45854   0.84897   0.94403   0.00000  Uiso   1.00
C196   C     0.51783   0.80505   0.90725   0.00000  Uiso   1.00
C197   C     0.64177   0.73179   0.86802   0.00000  Uiso   1.00
C198   C     0.23011   0.89258   0.83093   0.00000  Uiso   1.00
C199   C     0.14395   0.87658   0.88189   0.00000  Uiso   1.00
C200   C     0.04343   0.84824   0.86978   0.00000  Uiso   1.00
C201   C     0.97615   0.83757   0.92298   0.00000  Uiso   1.00
C202   C     0.25315   0.96464   0.83791   0.00000  Uiso   1.00
C203   C     0.24446   0.01033   0.78883   0.00000  Uiso   1.00
C204   C     0.26912   0.07378   0.80501   0.00000  Uiso   1.00
C205   C     0.33383   0.85808   0.85250   0.00000  Uiso   1.00
C206   C     0.39299   0.81420   0.81567   0.00000  Uiso   1.00
C207   C     0.48560   0.78795   0.84412   0.00000  Uiso   1.00
H208   H     0.31440   0.93730   0.99601   0.00000  Uiso   1.00
H209   H     0.13390   0.89623   0.04690   0.00000  Uiso   1.00
H210   H     0.33492   0.05829   0.96596   0.00000  Uiso   1.00
H211   H     0.48342   0.86219   0.99280   0.00000  Uiso   1.00
H212   H     0.91958   0.84319   0.07552   0.00000  Uiso   1.00
H213   H     0.34346   0.18490   0.90485   0.00000  Uiso   1.00
H214   H     0.65661   0.77138   0.96144   0.00000  Uiso   1.00
H215   H     0.20506   0.87930   0.78187   0.00000  Uiso   1.00
H216   H     0.01855   0.83504   0.82100   0.00000  Uiso   1.00
H217   H     0.21957   0.99711   0.74006   0.00000  Uiso   1.00
H218   H     0.36807   0.80100   0.76690   0.00000  Uiso   1.00
H219   H     0.82595   0.79353   0.89218   0.00000  Uiso   1.00
H220   H     0.24984   0.13524   0.72150   0.00000  Uiso   1.00
H221   H     0.56299   0.72172   0.77810   0.00000  Uiso   1.00
O222   O     0.75203   0.79032   0.01345   0.00000  Uiso   1.00
O223   O     0.30817   0.23862   0.78954   0.00000  Uiso   1.00
O224   O     0.71902   0.69609   0.86379   0.00000  Uiso   1.00
N225   N     0.92315   0.83757   0.02700   0.00000  Uiso   1.00
N226   N     0.31944   0.15705   0.86744   0.00000  Uiso   1.00
N227   N     0.61222   0.77045   0.92034   0.00000  Uiso   1.00
N228   N     0.87277   0.81085   0.92835   0.00000  Uiso   1.00
N229   N     0.26906   0.13033   0.76878   0.00000  Uiso   1.00
N230   N     0.56185   0.74373   0.82168   0.00000  Uiso   1.00
C231   C     0.21065   0.07599   0.44695   0.00000  Uiso   1.00
C232   C     0.32388   0.10636   0.44491   0.00000  Uiso   1.00
C233   C     0.39103   0.11699   0.49814   0.00000  Uiso   1.00
C234   C     0.49162   0.14533   0.48611   0.00000  Uiso   1.00
C235   C     0.66256   0.18985   0.49251   0.00000  Uiso   1.00
C236   C     0.21468   0.01830   0.40093   0.00000  Uiso   1.00
C237   C     0.18999   0.95490   0.41719   0.00000  Uiso   1.00
C238   C     0.19865   0.90912   0.36814   0.00000  Uiso   1.00
C239   C     0.19997   0.81694   0.30625   0.00000  Uiso   1.00
C240   C     0.13400   0.12485   0.41552   0.00000  Uiso   1.00
C241   C     0.04146   0.15103   0.44403   0.00000  Uiso   1.00
C242   C     0.98217   0.19495   0.40725   0.00000  Uiso   1.00
C243   C     0.85823   0.26821   0.36802   0.00000  Uiso   1.00
C244   C     0.26989   0.10742   0.33093   0.00000  Uiso   1.00
C245   C     0.35605   0.12342   0.38189   0.00000  Uiso   1.00
C246   C     0.45657   0.15176   0.36978   0.00000  Uiso   1.00
C247   C     0.52385   0.16243   0.42298   0.00000  Uiso   1.00
C248   C     0.24685   0.03536   0.33791   0.00000  Uiso   1.00
C249   C     0.25554   0.98967   0.28883   0.00000  Uiso   1.00
C250   C     0.23088   0.92622   0.30501   0.00000  Uiso   1.00
C251   C     0.16617   0.14192   0.35250   0.00000  Uiso   1.00
C252   C     0.10701   0.18580   0.31567   0.00000  Uiso   1.00
C253   C     0.01440   0.21205   0.34412   0.00000  Uiso   1.00
H254   H     0.18560   0.06270   0.49601   0.00000  Uiso   1.00
H255   H     0.36610   0.10377   0.54690   0.00000  Uiso   1.00
H256   H     0.16508   0.94171   0.46596   0.00000  Uiso   1.00
H257   H     0.01658   0.13781   0.49280   0.00000  Uiso   1.00
H258   H     0.58042   0.15681   0.57552   0.00000  Uiso   1.00
H259   H     0.15654   0.81510   0.40485   0.00000  Uiso   1.00
H260   H     0.84339   0.22862   0.46144   0.00000  Uiso   1.00
H261   H     0.29494   0.12070   0.28187   0.00000  Uiso   1.00
H262   H     0.48145   0.16496   0.32100   0.00000  Uiso   1.00
H263   H     0.28043   0.00289   0.24006   0.00000  Uiso   1.00
H264   H     0.13193   0.19900   0.26690   0.00000  Uiso   1.00
H265   H     0.67405   0.20647   0.39218   0.00000  Uiso   1.00
H266   H     0.25016   0.86476   0.22150   0.00000  Uiso   1.00
H267   H     0.93701   0.27828   0.27810   0.00000  Uiso   1.00
O268   O     0.74797   0.20968   0.51345   0.00000  Uiso   1.00
O269   O     0.19183   0.76138   0.28954   0.00000  Uiso   1.00
O270   O     0.78098   0.30391   0.36379   0.00000  Uiso   1.00
N271   N     0.57685   0.16243   0.52700   0.00000  Uiso   1.00
N272   N     0.18056   0.84295   0.36744   0.00000  Uiso   1.00
N273   N     0.88778   0.22955   0.42034   0.00000  Uiso   1.00
N274   N     0.62723   0.18915   0.42835   0.00000  Uiso   1.00
N275   N     0.23094   0.86967   0.26878   0.00000  Uiso   1.00
N276   N     0.93815   0.25627   0.32168   0.00000  Uiso   1.00
C277   C     0.71065   0.42401   0.55305   0.00000  Uiso   1.00
C278   C     0.82388   0.39364   0.55509   0.00000  Uiso   1.00
C279   C     0.89103   0.38301   0.50186   0.00000  Uiso   1.00
C280   C     0.99162   0.35467   0.51389   0.00000  Uiso   1.00
C281   C     0.16256   0.31015   0.50749   0.00000  Uiso   1.00
C282   C     0.71468   0.48170   0.59907   0.00000  Uiso   1.00
C283   C     0.68999   0.54510   0.58281   0.00000  Uiso   1.00
C284   C     0.69865   0.59088   0.63186   0.00000  Uiso   1.00
C285   C     0.69997   0.68306   0.69375   0.00000  Uiso   1.00
C286   C     0.63400   0.37515   0.58448   0.00000  Uiso   1.00
C287   C     0.54146   0.34897   0.55597   0.00000  Uiso   1.00
C288   C     0.48217   0.30505   0.59275   0.00000  Uiso   1.00
C289   C     0.35823   0.23179   0.63198   0.00000  Uiso   1.00
C290   C     0.76989   0.39258   0.66907   0.00000  Uiso   1.00
C291   C     0.85605   0.37658   0.61811   0.00000  Uiso   1.00
C292   C     0.95657   0.34824   0.63022   0.00000  Uiso   1.00
C293   C     0.02385   0.33757   0.57702   0.00000  Uiso   1.00
C294   C     0.74685   0.46464   0.66209   0.00000  Uiso   1.00
C295   C     0.75554   0.51033   0.71117   0.00000  Uiso   1.00
C296   C     0.73088   0.57378   0.69499   0.00000  Uiso   1.00
C297   C     0.66617   0.35808   0.64750   0.00000  Uiso   1.00
C298   C     0.60701   0.31420   0.68433   0.00000  Uiso   1.00
C299   C     0.51440   0.28795   0.65588   0.00000  Uiso   1.00
H300   H     0.68560   0.43730   0.50399   0.00000  Uiso   1.00
H301   H     0.86610   0.39623   0.45310   0.00000  Uiso   1.00
H302   H     0.66508   0.55829   0.53404   0.00000  Uiso   1.00
H303   H     0.51658   0.36219   0.50720   0.00000  Uiso   1.00
H304   H     0.08042   0.34319   0.42448   0.00000  Uiso   1.00
H305   H     0.65654   0.68490   0.59515   0.00000  Uiso   1.00
H306   H     0.34339   0.27138   0.53856   0.00000  Uiso   1.00
H307   H     0.79494   0.37930   0.71813   0.00000  Uiso   1.00
H308   H     0.98145   0.33504   0.67900   0.00000  Uiso   1.00
H309   H     0.78043   0.49711   0.75994   0.00000  Uiso   1.00
H310   H     0.63193   0.30100   0.73310   0.00000  Uiso   1.00
H311   H     0.17405   0.29353   0.60782   0.00000  Uiso   1.00
H312   H     0.75016   0.63524   0.77850   0.00000  Uiso   1.00
H313   H     0.43701   0.22172   0.72190   0.00000  Uiso   1.00
O314   O     0.24797   0.29032   0.48655   0.00000  Uiso   1.00
O315   O     0.69183   0.73862   0.71046   0.00000  Uiso   1.00
O316   O     0.28098   0.19609   0.63621   0.00000  Uiso   1.00
N317   N     0.07685   0.33757   0.47300   0.00000  Uiso   1.00
N318   N     0.68056   0.65705   0.63256   0.00000  Uiso   1.00
N319   N     0.38778   0.27045   0.57966   0.00000  Uiso   1.00
N320   N     0.12723   0.31085   0.57165   0.00000  Uiso   1.00
N321   N     0.73094   0.63033   0.73122   0.00000  Uiso   1.00
N322   N     0.43815   0.24373   0.67832   0.00000  Uiso   1.00
C323   C     0.78935   0.57599   0.05305   0.00000  Uiso   1.00
C324   C     0.67612   0.60636   0.05509   0.00000  Uiso   1.00
C325   C     0.60897   0.61699   0.00186   0.00000  Uiso   1.00
C326   C     0.50838   0.64533   0.01389   0.00000  Uiso   1.00
C327   C     0.33744   0.68985   0.00749   0.00000  Uiso   1.00
C328   C     0.78532   0.51830   0.09907   0.00000  Uiso   1.00
C329   C     0.81001   0.45490   0.08281   0.00000  Uiso   1.00
C330   C     0.80135   0.40912   0.13186   0.00000  Uiso   1.00
C331   C     0.80003   0.31694   0.19375   0.00000  Uiso   1.00
C332   C     0.86600   0.62485   0.08448   0.00000  Uiso   1.00
C333   C     0.95854   0.65103   0.05597   0.00000  Uiso   1.00
C334   C     0.01783   0.69495   0.09275   0.00000  Uiso   1.00
C335   C     0.14177   0.76821   0.13198   0.00000  Uiso   1.00
C336   C     0.73011   0.60742   0.16907   0.00000  Uiso   1.00
C337   C     0.64395   0.62342   0.11811   0.00000  Uiso   1.00
C338   C     0.54343   0.65176   0.13022   0.00000  Uiso   1.00
C339   C     0.47615   0.66243   0.07702   0.00000  Uiso   1.00
C340   C     0.75315   0.53536   0.16209   0.00000  Uiso   1.00
C341   C     0.74446   0.48967   0.21117   0.00000  Uiso   1.00
C342   C     0.76912   0.42622   0.19499   0.00000  Uiso   1.00
C343   C     0.83383   0.64192   0.14750   0.00000  Uiso   1.00
C344   C     0.89299   0.68580   0.18433   0.00000  Uiso   1.00
C345   C     0.98560   0.71205   0.15588   0.00000  Uiso   1.00
H346   H     0.81440   0.56270   0.00399   0.00000  Uiso   1.00
H347   H     0.63390   0.60377   0.95310   0.00000  Uiso   1.00
H348   H     0.83492   0.44171   0.03404   0.00000  Uiso   1.00
H349   H     0.98342   0.63781   0.00720   0.00000  Uiso   1.00
H350   H     0.41958   0.65681   0.92448   0.00000  Uiso   1.00
H351   H     0.84346   0.31510   0.09515   0.00000  Uiso   1.00
H352   H     0.15661   0.72862   0.03856   0.00000  Uiso   1.00
H353   H     0.70506   0.62070   0.21813   0.00000  Uiso   1.00
H354   H     0.51855   0.66496   0.17900   0.00000  Uiso   1.00
H355   H     0.71957   0.50289   0.25994   0.00000  Uiso   1.00
H356   H     0.86807   0.69900   0.23310   0.00000  Uiso   1.00
H357   H     0.32595   0.70647   0.10782   0.00000  Uiso   1.00
H358   H     0.74984   0.36476   0.27850   0.00000  Uiso   1.00
H359   H     0.06299   0.77828   0.22190   0.00000  Uiso   1.00
O360   O     0.25203   0.70968   0.98655   0.00000  Uiso   1.00
O361   O     0.80817   0.26138   0.21046   0.00000  Uiso   1.00
O362   O     0.21902   0.80391   0.13621   0.00000  Uiso   1.00
N363   N     0.42315   0.66243   0.97300   0.00000  Uiso   1.00
N364   N     0.81944   0.34295   0.13256   0.00000  Uiso   1.00
N365   N     0.11222   0.72955   0.07966   0.00000  Uiso   1.00
N366   N     0.37277   0.68915   0.07165   0.00000  Uiso   1.00
N367   N     0.76906   0.36967   0.23122   0.00000  Uiso   1.00
N368   N     0.06185   0.75627   0.17832   0.00000  Uiso   1.00
