data_job_01636
_audit_creation_date              2018-12-19
_audit_creation_method            'Materials Studio'
_symmetry_space_group_name_H-M    'P1'
_symmetry_Int_Tables_number       1
_symmetry_cell_setting            triclinic
loop_
_symmetry_equiv_pos_as_xyz
  x,y,z
_cell_length_a                    10.9186
_cell_length_b                    10.9186
_cell_length_c                    38.3746
_cell_angle_alpha                 90.0000
_cell_angle_beta                  90.0000
_cell_angle_gamma                 90.0000
loop_
_atom_site_label
_atom_site_type_symbol
_atom_site_fract_x
_atom_site_fract_y
_atom_site_fract_z
_atom_site_U_iso_or_equiv
_atom_site_adp_type
_atom_site_occupancy
C1     C     0.55500   0.98451   0.95472   0.00000  Uiso   1.00
C2     C     0.51809   0.87383   0.93288   0.00000  Uiso   1.00
C3     C     0.58380   0.82603   0.90507   0.00000  Uiso   1.00
C4     C     0.53457   0.72438   0.88845   0.00000  Uiso   1.00
C5     C     0.49409   0.56044   0.85288   0.00000  Uiso   1.00
C6     C     0.44814   0.07412   0.95255   0.00000  Uiso   1.00
C7     C     0.45505   0.19471   0.94129   0.00000  Uiso   1.00
C8     C     0.34694   0.26166   0.94124   0.00000  Uiso   1.00
C9     C     0.19789   0.40870   0.93624   0.00000  Uiso   1.00
C10    C     0.55878   0.94015   0.99238   0.00000  Uiso   1.00
C11    C     0.65871   0.94813   0.01462   0.00000  Uiso   1.00
C12    C     0.64375   0.90231   0.04810   0.00000  Uiso   1.00
C13    C     0.66649   0.84135   0.10494   0.00000  Uiso   1.00
C14    C     0.35072   0.88900   0.97465   0.00000  Uiso   1.00
C15    C     0.40712   0.82196   0.94371   0.00000  Uiso   1.00
C16    C     0.35778   0.72035   0.92712   0.00000  Uiso   1.00
C17    C     0.42341   0.67240   0.89930   0.00000  Uiso   1.00
C18    C     0.33718   0.02224   0.96338   0.00000  Uiso   1.00
C19    C     0.22904   0.08903   0.96334   0.00000  Uiso   1.00
C20    C     0.23578   0.20969   0.95208   0.00000  Uiso   1.00
C21    C     0.44783   0.88826   0.00321   0.00000  Uiso   1.00
C22    C     0.43270   0.84244   0.03667   0.00000  Uiso   1.00
C23    C     0.53259   0.85034   0.05894   0.00000  Uiso   1.00
H24    H     0.64138   0.02491   0.94629   0.00000  Uiso   1.00
H25    H     0.66966   0.86621   0.89670   0.00000  Uiso   1.00
H26    H     0.54093   0.23483   0.93292   0.00000  Uiso   1.00
H27    H     0.74456   0.98828   0.00623   0.00000  Uiso   1.00
H28    H     0.65205   0.66741   0.84649   0.00000  Uiso   1.00
H29    H     0.38063   0.44468   0.92287   0.00000  Uiso   1.00
H30    H     0.81003   0.92479   0.07746   0.00000  Uiso   1.00
H31    H     0.26433   0.84861   0.98308   0.00000  Uiso   1.00
H32    H     0.27192   0.68022   0.93551   0.00000  Uiso   1.00
H33    H     0.14319   0.04885   0.97172   0.00000  Uiso   1.00
H34    H     0.34682   0.80230   0.04503   0.00000  Uiso   1.00
H35    H     0.32923   0.51645   0.87798   0.00000  Uiso   1.00
H36    H     0.05781   0.29374   0.95436   0.00000  Uiso   1.00
H37    H     0.48721   0.77384   0.10895   0.00000  Uiso   1.00
O38    O     0.50241   0.48437   0.83027   0.00000  Uiso   1.00
O39    O     0.14633   0.50413   0.93048   0.00000  Uiso   1.00
O40    O     0.70969   0.82204   0.13330   0.00000  Uiso   1.00
N41    N     0.57505   0.65497   0.86043   0.00000  Uiso   1.00
N42    N     0.32128   0.38168   0.93184   0.00000  Uiso   1.00
N43    N     0.72272   0.89565   0.07637   0.00000  Uiso   1.00
N44    N     0.40134   0.57374   0.87738   0.00000  Uiso   1.00
N45    N     0.14758   0.30045   0.94879   0.00000  Uiso   1.00
N46    N     0.54902   0.81442   0.09332   0.00000  Uiso   1.00
C47    C     0.44500   0.01549   0.45472   0.00000  Uiso   1.00
C48    C     0.48191   0.12617   0.43288   0.00000  Uiso   1.00
C49    C     0.41620   0.17397   0.40507   0.00000  Uiso   1.00
C50    C     0.46543   0.27562   0.38845   0.00000  Uiso   1.00
C51    C     0.50591   0.43956   0.35288   0.00000  Uiso   1.00
C52    C     0.55186   0.92588   0.45255   0.00000  Uiso   1.00
C53    C     0.54495   0.80529   0.44129   0.00000  Uiso   1.00
C54    C     0.65306   0.73834   0.44124   0.00000  Uiso   1.00
C55    C     0.80211   0.59130   0.43624   0.00000  Uiso   1.00
C56    C     0.44122   0.05985   0.49238   0.00000  Uiso   1.00
C57    C     0.34129   0.05187   0.51462   0.00000  Uiso   1.00
C58    C     0.35625   0.09769   0.54810   0.00000  Uiso   1.00
C59    C     0.33351   0.15865   0.60494   0.00000  Uiso   1.00
C60    C     0.64928   0.11100   0.47465   0.00000  Uiso   1.00
C61    C     0.59288   0.17804   0.44371   0.00000  Uiso   1.00
C62    C     0.64222   0.27965   0.42712   0.00000  Uiso   1.00
C63    C     0.57659   0.32760   0.39930   0.00000  Uiso   1.00
C64    C     0.66282   0.97776   0.46338   0.00000  Uiso   1.00
C65    C     0.77096   0.91097   0.46334   0.00000  Uiso   1.00
C66    C     0.76422   0.79031   0.45208   0.00000  Uiso   1.00
C67    C     0.55217   0.11174   0.50321   0.00000  Uiso   1.00
C68    C     0.56730   0.15756   0.53667   0.00000  Uiso   1.00
C69    C     0.46741   0.14966   0.55894   0.00000  Uiso   1.00
H70    H     0.35862   0.97509   0.44629   0.00000  Uiso   1.00
H71    H     0.33034   0.13379   0.39670   0.00000  Uiso   1.00
H72    H     0.45907   0.76517   0.43292   0.00000  Uiso   1.00
H73    H     0.25544   0.01172   0.50623   0.00000  Uiso   1.00
H74    H     0.34795   0.33259   0.34649   0.00000  Uiso   1.00
H75    H     0.61937   0.55532   0.42287   0.00000  Uiso   1.00
H76    H     0.18997   0.07521   0.57746   0.00000  Uiso   1.00
H77    H     0.73567   0.15139   0.48308   0.00000  Uiso   1.00
H78    H     0.72808   0.31978   0.43551   0.00000  Uiso   1.00
H79    H     0.85681   0.95115   0.47172   0.00000  Uiso   1.00
H80    H     0.65318   0.19770   0.54503   0.00000  Uiso   1.00
H81    H     0.67077   0.48355   0.37798   0.00000  Uiso   1.00
H82    H     0.94219   0.70626   0.45436   0.00000  Uiso   1.00
H83    H     0.51279   0.22616   0.60895   0.00000  Uiso   1.00
O84    O     0.49759   0.51563   0.33027   0.00000  Uiso   1.00
O85    O     0.85367   0.49587   0.43048   0.00000  Uiso   1.00
O86    O     0.29031   0.17796   0.63330   0.00000  Uiso   1.00
N87    N     0.42495   0.34503   0.36043   0.00000  Uiso   1.00
N88    N     0.67872   0.61832   0.43184   0.00000  Uiso   1.00
N89    N     0.27728   0.10435   0.57637   0.00000  Uiso   1.00
N90    N     0.59866   0.42626   0.37738   0.00000  Uiso   1.00
N91    N     0.85242   0.69955   0.44879   0.00000  Uiso   1.00
N92    N     0.45098   0.18558   0.59332   0.00000  Uiso   1.00
C93    C     0.51549   0.05500   0.70472   0.00000  Uiso   1.00
C94    C     0.62617   0.01809   0.68288   0.00000  Uiso   1.00
C95    C     0.67397   0.08380   0.65507   0.00000  Uiso   1.00
C96    C     0.77562   0.03457   0.63845   0.00000  Uiso   1.00
C97    C     0.93956   0.99409   0.60288   0.00000  Uiso   1.00
C98    C     0.42588   0.94814   0.70255   0.00000  Uiso   1.00
C99    C     0.30529   0.95505   0.69129   0.00000  Uiso   1.00
C100   C     0.23834   0.84694   0.69124   0.00000  Uiso   1.00
C101   C     0.09130   0.69789   0.68624   0.00000  Uiso   1.00
C102   C     0.55985   0.05878   0.74238   0.00000  Uiso   1.00
C103   C     0.55187   0.15871   0.76462   0.00000  Uiso   1.00
C104   C     0.59769   0.14375   0.79810   0.00000  Uiso   1.00
C105   C     0.65865   0.16649   0.85494   0.00000  Uiso   1.00
C106   C     0.61100   0.85072   0.72465   0.00000  Uiso   1.00
C107   C     0.67804   0.90712   0.69371   0.00000  Uiso   1.00
C108   C     0.77965   0.85778   0.67712   0.00000  Uiso   1.00
C109   C     0.82760   0.92341   0.64930   0.00000  Uiso   1.00
C110   C     0.47776   0.83718   0.71338   0.00000  Uiso   1.00
C111   C     0.41097   0.72904   0.71334   0.00000  Uiso   1.00
C112   C     0.29031   0.73578   0.70208   0.00000  Uiso   1.00
C113   C     0.61174   0.94783   0.75321   0.00000  Uiso   1.00
C114   C     0.65756   0.93270   0.78667   0.00000  Uiso   1.00
C115   C     0.64966   0.03259   0.80894   0.00000  Uiso   1.00
H116   H     0.47509   0.14138   0.69629   0.00000  Uiso   1.00
H117   H     0.63379   0.16966   0.64670   0.00000  Uiso   1.00
H118   H     0.26517   0.04093   0.68292   0.00000  Uiso   1.00
H119   H     0.51172   0.24456   0.75623   0.00000  Uiso   1.00
H120   H     0.83259   0.15205   0.59649   0.00000  Uiso   1.00
H121   H     0.05532   0.88063   0.67287   0.00000  Uiso   1.00
H122   H     0.57521   0.31003   0.82746   0.00000  Uiso   1.00
H123   H     0.65139   0.76433   0.73308   0.00000  Uiso   1.00
H124   H     0.81978   0.77192   0.68551   0.00000  Uiso   1.00
H125   H     0.45115   0.64319   0.72172   0.00000  Uiso   1.00
H126   H     0.69770   0.84682   0.79503   0.00000  Uiso   1.00
H127   H     0.98355   0.82923   0.62798   0.00000  Uiso   1.00
H128   H     0.20626   0.55781   0.70436   0.00000  Uiso   1.00
H129   H     0.72616   0.98721   0.85895   0.00000  Uiso   1.00
O130   O     0.01563   0.00241   0.58027   0.00000  Uiso   1.00
O131   O     0.99587   0.64633   0.68048   0.00000  Uiso   1.00
O132   O     0.67796   0.20969   0.88330   0.00000  Uiso   1.00
N133   N     0.84503   0.07505   0.61043   0.00000  Uiso   1.00
N134   N     0.11832   0.82128   0.68184   0.00000  Uiso   1.00
N135   N     0.60435   0.22272   0.82637   0.00000  Uiso   1.00
N136   N     0.92626   0.90134   0.62738   0.00000  Uiso   1.00
N137   N     0.19955   0.64758   0.69879   0.00000  Uiso   1.00
N138   N     0.68558   0.04902   0.84332   0.00000  Uiso   1.00
C139   C     0.48451   0.94500   0.20472   0.00000  Uiso   1.00
C140   C     0.37383   0.98191   0.18288   0.00000  Uiso   1.00
C141   C     0.32603   0.91620   0.15507   0.00000  Uiso   1.00
C142   C     0.22438   0.96543   0.13845   0.00000  Uiso   1.00
C143   C     0.06044   0.00591   0.10288   0.00000  Uiso   1.00
C144   C     0.57412   0.05186   0.20255   0.00000  Uiso   1.00
C145   C     0.69471   0.04495   0.19129   0.00000  Uiso   1.00
C146   C     0.76166   0.15306   0.19124   0.00000  Uiso   1.00
C147   C     0.90870   0.30211   0.18624   0.00000  Uiso   1.00
C148   C     0.44015   0.94122   0.24238   0.00000  Uiso   1.00
C149   C     0.44813   0.84129   0.26462   0.00000  Uiso   1.00
C150   C     0.40231   0.85625   0.29810   0.00000  Uiso   1.00
C151   C     0.34135   0.83351   0.35494   0.00000  Uiso   1.00
C152   C     0.38900   0.14928   0.22465   0.00000  Uiso   1.00
C153   C     0.32196   0.09288   0.19371   0.00000  Uiso   1.00
C154   C     0.22035   0.14222   0.17712   0.00000  Uiso   1.00
C155   C     0.17240   0.07659   0.14930   0.00000  Uiso   1.00
C156   C     0.52224   0.16282   0.21338   0.00000  Uiso   1.00
C157   C     0.58903   0.27096   0.21334   0.00000  Uiso   1.00
C158   C     0.70969   0.26422   0.20208   0.00000  Uiso   1.00
C159   C     0.38826   0.05217   0.25321   0.00000  Uiso   1.00
C160   C     0.34244   0.06730   0.28667   0.00000  Uiso   1.00
C161   C     0.35034   0.96741   0.30894   0.00000  Uiso   1.00
H162   H     0.52491   0.85862   0.19629   0.00000  Uiso   1.00
H163   H     0.36621   0.83034   0.14670   0.00000  Uiso   1.00
H164   H     0.73483   0.95907   0.18292   0.00000  Uiso   1.00
H165   H     0.48828   0.75544   0.25623   0.00000  Uiso   1.00
H166   H     0.16741   0.84795   0.09649   0.00000  Uiso   1.00
H167   H     0.94468   0.11937   0.17287   0.00000  Uiso   1.00
H168   H     0.42479   0.68997   0.32746   0.00000  Uiso   1.00
H169   H     0.34861   0.23567   0.23308   0.00000  Uiso   1.00
H170   H     0.18022   0.22808   0.18551   0.00000  Uiso   1.00
H171   H     0.54885   0.35681   0.22172   0.00000  Uiso   1.00
H172   H     0.30230   0.15318   0.29503   0.00000  Uiso   1.00
H173   H     0.01645   0.17077   0.12798   0.00000  Uiso   1.00
H174   H     0.79374   0.44219   0.20436   0.00000  Uiso   1.00
H175   H     0.27384   0.01279   0.35895   0.00000  Uiso   1.00
O176   O     0.98437   0.99759   0.08027   0.00000  Uiso   1.00
O177   O     0.00413   0.35367   0.18048   0.00000  Uiso   1.00
O178   O     0.32204   0.79031   0.38330   0.00000  Uiso   1.00
N179   N     0.15497   0.92495   0.11043   0.00000  Uiso   1.00
N180   N     0.88168   0.17872   0.18184   0.00000  Uiso   1.00
N181   N     0.39565   0.77728   0.32637   0.00000  Uiso   1.00
N182   N     0.07374   0.09866   0.12738   0.00000  Uiso   1.00
N183   N     0.80045   0.35242   0.19879   0.00000  Uiso   1.00
N184   N     0.31442   0.95098   0.34332   0.00000  Uiso   1.00
C185   C     0.94500   0.48451   0.79528   0.00000  Uiso   1.00
C186   C     0.98191   0.37383   0.81712   0.00000  Uiso   1.00
C187   C     0.91620   0.32603   0.84493   0.00000  Uiso   1.00
C188   C     0.96543   0.22438   0.86155   0.00000  Uiso   1.00
C189   C     0.00591   0.06044   0.89712   0.00000  Uiso   1.00
C190   C     0.05186   0.57412   0.79745   0.00000  Uiso   1.00
C191   C     0.04495   0.69471   0.80871   0.00000  Uiso   1.00
C192   C     0.15306   0.76166   0.80876   0.00000  Uiso   1.00
C193   C     0.30211   0.90870   0.81376   0.00000  Uiso   1.00
C194   C     0.94122   0.44015   0.75762   0.00000  Uiso   1.00
C195   C     0.84129   0.44813   0.73538   0.00000  Uiso   1.00
C196   C     0.85625   0.40231   0.70190   0.00000  Uiso   1.00
C197   C     0.83351   0.34135   0.64506   0.00000  Uiso   1.00
C198   C     0.14928   0.38900   0.77535   0.00000  Uiso   1.00
C199   C     0.09288   0.32196   0.80629   0.00000  Uiso   1.00
C200   C     0.14222   0.22035   0.82288   0.00000  Uiso   1.00
C201   C     0.07659   0.17240   0.85070   0.00000  Uiso   1.00
C202   C     0.16282   0.52224   0.78662   0.00000  Uiso   1.00
C203   C     0.27096   0.58903   0.78666   0.00000  Uiso   1.00
C204   C     0.26422   0.70969   0.79792   0.00000  Uiso   1.00
C205   C     0.05217   0.38826   0.74679   0.00000  Uiso   1.00
C206   C     0.06730   0.34244   0.71333   0.00000  Uiso   1.00
C207   C     0.96741   0.35034   0.69106   0.00000  Uiso   1.00
H208   H     0.85862   0.52491   0.80371   0.00000  Uiso   1.00
H209   H     0.83034   0.36621   0.85330   0.00000  Uiso   1.00
H210   H     0.95907   0.73483   0.81708   0.00000  Uiso   1.00
H211   H     0.75544   0.48828   0.74377   0.00000  Uiso   1.00
H212   H     0.84795   0.16741   0.90351   0.00000  Uiso   1.00
H213   H     0.11937   0.94468   0.82713   0.00000  Uiso   1.00
H214   H     0.68997   0.42479   0.67254   0.00000  Uiso   1.00
H215   H     0.23567   0.34861   0.76692   0.00000  Uiso   1.00
H216   H     0.22808   0.18022   0.81449   0.00000  Uiso   1.00
H217   H     0.35681   0.54885   0.77828   0.00000  Uiso   1.00
H218   H     0.15318   0.30230   0.70497   0.00000  Uiso   1.00
H219   H     0.17077   0.01645   0.87202   0.00000  Uiso   1.00
H220   H     0.44219   0.79374   0.79564   0.00000  Uiso   1.00
H221   H     0.01279   0.27384   0.64105   0.00000  Uiso   1.00
O222   O     0.99759   0.98437   0.91973   0.00000  Uiso   1.00
O223   O     0.35367   0.00413   0.81952   0.00000  Uiso   1.00
O224   O     0.79031   0.32204   0.61670   0.00000  Uiso   1.00
N225   N     0.92495   0.15497   0.88957   0.00000  Uiso   1.00
N226   N     0.17872   0.88168   0.81816   0.00000  Uiso   1.00
N227   N     0.77728   0.39565   0.67363   0.00000  Uiso   1.00
N228   N     0.09866   0.07374   0.87262   0.00000  Uiso   1.00
N229   N     0.35242   0.80045   0.80121   0.00000  Uiso   1.00
N230   N     0.95098   0.31442   0.65668   0.00000  Uiso   1.00
C231   C     0.05500   0.51549   0.29528   0.00000  Uiso   1.00
C232   C     0.01809   0.62617   0.31712   0.00000  Uiso   1.00
C233   C     0.08380   0.67397   0.34493   0.00000  Uiso   1.00
C234   C     0.03457   0.77562   0.36155   0.00000  Uiso   1.00
C235   C     0.99409   0.93956   0.39712   0.00000  Uiso   1.00
C236   C     0.94814   0.42588   0.29745   0.00000  Uiso   1.00
C237   C     0.95505   0.30529   0.30871   0.00000  Uiso   1.00
C238   C     0.84694   0.23834   0.30876   0.00000  Uiso   1.00
C239   C     0.69789   0.09130   0.31376   0.00000  Uiso   1.00
C240   C     0.05878   0.55985   0.25762   0.00000  Uiso   1.00
C241   C     0.15871   0.55187   0.23538   0.00000  Uiso   1.00
C242   C     0.14375   0.59769   0.20190   0.00000  Uiso   1.00
C243   C     0.16649   0.65865   0.14506   0.00000  Uiso   1.00
C244   C     0.85072   0.61100   0.27535   0.00000  Uiso   1.00
C245   C     0.90712   0.67804   0.30629   0.00000  Uiso   1.00
C246   C     0.85778   0.77965   0.32288   0.00000  Uiso   1.00
C247   C     0.92341   0.82760   0.35070   0.00000  Uiso   1.00
C248   C     0.83718   0.47776   0.28662   0.00000  Uiso   1.00
C249   C     0.72904   0.41097   0.28666   0.00000  Uiso   1.00
C250   C     0.73578   0.29031   0.29792   0.00000  Uiso   1.00
C251   C     0.94783   0.61174   0.24679   0.00000  Uiso   1.00
C252   C     0.93270   0.65756   0.21333   0.00000  Uiso   1.00
C253   C     0.03259   0.64966   0.19106   0.00000  Uiso   1.00
H254   H     0.14138   0.47509   0.30371   0.00000  Uiso   1.00
H255   H     0.16966   0.63379   0.35330   0.00000  Uiso   1.00
H256   H     0.04093   0.26517   0.31708   0.00000  Uiso   1.00
H257   H     0.24456   0.51172   0.24377   0.00000  Uiso   1.00
H258   H     0.15205   0.83259   0.40351   0.00000  Uiso   1.00
H259   H     0.88063   0.05532   0.32713   0.00000  Uiso   1.00
H260   H     0.31003   0.57521   0.17254   0.00000  Uiso   1.00
H261   H     0.76433   0.65139   0.26692   0.00000  Uiso   1.00
H262   H     0.77192   0.81978   0.31449   0.00000  Uiso   1.00
H263   H     0.64319   0.45115   0.27828   0.00000  Uiso   1.00
H264   H     0.84682   0.69770   0.20497   0.00000  Uiso   1.00
H265   H     0.82923   0.98355   0.37202   0.00000  Uiso   1.00
H266   H     0.55781   0.20626   0.29564   0.00000  Uiso   1.00
H267   H     0.98721   0.72616   0.14105   0.00000  Uiso   1.00
O268   O     0.00241   0.01563   0.41973   0.00000  Uiso   1.00
O269   O     0.64633   0.99587   0.31952   0.00000  Uiso   1.00
O270   O     0.20969   0.67796   0.11670   0.00000  Uiso   1.00
N271   N     0.07505   0.84503   0.38957   0.00000  Uiso   1.00
N272   N     0.82128   0.11832   0.31816   0.00000  Uiso   1.00
N273   N     0.22272   0.60435   0.17363   0.00000  Uiso   1.00
N274   N     0.90134   0.92626   0.37262   0.00000  Uiso   1.00
N275   N     0.64758   0.19955   0.30121   0.00000  Uiso   1.00
N276   N     0.04902   0.68558   0.15668   0.00000  Uiso   1.00
C277   C     0.98451   0.55500   0.04528   0.00000  Uiso   1.00
C278   C     0.87383   0.51809   0.06712   0.00000  Uiso   1.00
C279   C     0.82603   0.58380   0.09493   0.00000  Uiso   1.00
C280   C     0.72438   0.53457   0.11155   0.00000  Uiso   1.00
C281   C     0.56044   0.49409   0.14712   0.00000  Uiso   1.00
C282   C     0.07412   0.44814   0.04745   0.00000  Uiso   1.00
C283   C     0.19471   0.45505   0.05871   0.00000  Uiso   1.00
C284   C     0.26166   0.34694   0.05876   0.00000  Uiso   1.00
C285   C     0.40870   0.19789   0.06376   0.00000  Uiso   1.00
C286   C     0.94015   0.55878   0.00762   0.00000  Uiso   1.00
C287   C     0.94813   0.65871   0.98538   0.00000  Uiso   1.00
C288   C     0.90231   0.64375   0.95190   0.00000  Uiso   1.00
C289   C     0.84135   0.66649   0.89506   0.00000  Uiso   1.00
C290   C     0.88900   0.35072   0.02535   0.00000  Uiso   1.00
C291   C     0.82196   0.40712   0.05629   0.00000  Uiso   1.00
C292   C     0.72035   0.35778   0.07288   0.00000  Uiso   1.00
C293   C     0.67240   0.42341   0.10070   0.00000  Uiso   1.00
C294   C     0.02224   0.33718   0.03662   0.00000  Uiso   1.00
C295   C     0.08903   0.22904   0.03666   0.00000  Uiso   1.00
C296   C     0.20969   0.23578   0.04792   0.00000  Uiso   1.00
C297   C     0.88826   0.44783   0.99679   0.00000  Uiso   1.00
C298   C     0.84244   0.43270   0.96333   0.00000  Uiso   1.00
C299   C     0.85034   0.53259   0.94106   0.00000  Uiso   1.00
H300   H     0.02491   0.64138   0.05371   0.00000  Uiso   1.00
H301   H     0.86621   0.66966   0.10330   0.00000  Uiso   1.00
H302   H     0.23483   0.54093   0.06708   0.00000  Uiso   1.00
H303   H     0.98828   0.74456   0.99377   0.00000  Uiso   1.00
H304   H     0.66741   0.65205   0.15351   0.00000  Uiso   1.00
H305   H     0.44468   0.38063   0.07713   0.00000  Uiso   1.00
H306   H     0.92479   0.81003   0.92254   0.00000  Uiso   1.00
H307   H     0.84861   0.26433   0.01692   0.00000  Uiso   1.00
H308   H     0.68022   0.27192   0.06449   0.00000  Uiso   1.00
H309   H     0.04885   0.14319   0.02828   0.00000  Uiso   1.00
H310   H     0.80230   0.34682   0.95497   0.00000  Uiso   1.00
H311   H     0.51645   0.32923   0.12202   0.00000  Uiso   1.00
H312   H     0.29374   0.05781   0.04564   0.00000  Uiso   1.00
H313   H     0.77384   0.48721   0.89105   0.00000  Uiso   1.00
O314   O     0.48437   0.50241   0.16973   0.00000  Uiso   1.00
O315   O     0.50413   0.14633   0.06952   0.00000  Uiso   1.00
O316   O     0.82204   0.70969   0.86670   0.00000  Uiso   1.00
N317   N     0.65497   0.57505   0.13957   0.00000  Uiso   1.00
N318   N     0.38168   0.32128   0.06816   0.00000  Uiso   1.00
N319   N     0.89565   0.72272   0.92363   0.00000  Uiso   1.00
N320   N     0.57374   0.40134   0.12262   0.00000  Uiso   1.00
N321   N     0.30045   0.14758   0.05121   0.00000  Uiso   1.00
N322   N     0.81442   0.54902   0.90668   0.00000  Uiso   1.00
C323   C     0.01549   0.44500   0.54528   0.00000  Uiso   1.00
C324   C     0.12617   0.48191   0.56712   0.00000  Uiso   1.00
C325   C     0.17397   0.41620   0.59493   0.00000  Uiso   1.00
C326   C     0.27562   0.46543   0.61155   0.00000  Uiso   1.00
C327   C     0.43956   0.50591   0.64712   0.00000  Uiso   1.00
C328   C     0.92588   0.55186   0.54745   0.00000  Uiso   1.00
C329   C     0.80529   0.54495   0.55871   0.00000  Uiso   1.00
C330   C     0.73834   0.65306   0.55876   0.00000  Uiso   1.00
C331   C     0.59130   0.80211   0.56376   0.00000  Uiso   1.00
C332   C     0.05985   0.44122   0.50762   0.00000  Uiso   1.00
C333   C     0.05187   0.34129   0.48538   0.00000  Uiso   1.00
C334   C     0.09769   0.35625   0.45190   0.00000  Uiso   1.00
C335   C     0.15865   0.33351   0.39506   0.00000  Uiso   1.00
C336   C     0.11100   0.64928   0.52535   0.00000  Uiso   1.00
C337   C     0.17804   0.59288   0.55629   0.00000  Uiso   1.00
C338   C     0.27965   0.64222   0.57288   0.00000  Uiso   1.00
C339   C     0.32760   0.57659   0.60070   0.00000  Uiso   1.00
C340   C     0.97776   0.66282   0.53662   0.00000  Uiso   1.00
C341   C     0.91097   0.77096   0.53666   0.00000  Uiso   1.00
C342   C     0.79031   0.76422   0.54792   0.00000  Uiso   1.00
C343   C     0.11174   0.55217   0.49679   0.00000  Uiso   1.00
C344   C     0.15756   0.56730   0.46333   0.00000  Uiso   1.00
C345   C     0.14966   0.46741   0.44106   0.00000  Uiso   1.00
H346   H     0.97509   0.35862   0.55371   0.00000  Uiso   1.00
H347   H     0.13379   0.33034   0.60330   0.00000  Uiso   1.00
H348   H     0.76517   0.45907   0.56708   0.00000  Uiso   1.00
H349   H     0.01172   0.25544   0.49377   0.00000  Uiso   1.00
H350   H     0.33259   0.34795   0.65351   0.00000  Uiso   1.00
H351   H     0.55532   0.61937   0.57713   0.00000  Uiso   1.00
H352   H     0.07521   0.18997   0.42254   0.00000  Uiso   1.00
H353   H     0.15139   0.73567   0.51692   0.00000  Uiso   1.00
H354   H     0.31978   0.72808   0.56449   0.00000  Uiso   1.00
H355   H     0.95115   0.85681   0.52828   0.00000  Uiso   1.00
H356   H     0.19770   0.65318   0.45497   0.00000  Uiso   1.00
H357   H     0.48355   0.67077   0.62202   0.00000  Uiso   1.00
H358   H     0.70626   0.94219   0.54564   0.00000  Uiso   1.00
H359   H     0.22616   0.51279   0.39105   0.00000  Uiso   1.00
O360   O     0.51563   0.49759   0.66973   0.00000  Uiso   1.00
O361   O     0.49587   0.85367   0.56952   0.00000  Uiso   1.00
O362   O     0.17796   0.29031   0.36670   0.00000  Uiso   1.00
N363   N     0.34503   0.42495   0.63957   0.00000  Uiso   1.00
N364   N     0.61832   0.67872   0.56816   0.00000  Uiso   1.00
N365   N     0.10435   0.27728   0.42363   0.00000  Uiso   1.00
N366   N     0.42626   0.59866   0.62262   0.00000  Uiso   1.00
N367   N     0.69955   0.85242   0.55121   0.00000  Uiso   1.00
N368   N     0.18558   0.45098   0.40668   0.00000  Uiso   1.00
