data_job_06479
_audit_creation_date              2018-12-19
_audit_creation_method            'Materials Studio'
_symmetry_space_group_name_H-M    'P1'
_symmetry_Int_Tables_number       1
_symmetry_cell_setting            triclinic
loop_
_symmetry_equiv_pos_as_xyz
  x,y,z
_cell_length_a                    20.0739
_cell_length_b                    21.0693
_cell_length_c                    23.3450
_cell_angle_alpha                 84.8006
_cell_angle_beta                  113.7026
_cell_angle_gamma                 64.0866
loop_
_atom_site_label
_atom_site_type_symbol
_atom_site_fract_x
_atom_site_fract_y
_atom_site_fract_z
_atom_site_U_iso_or_equiv
_atom_site_adp_type
_atom_site_occupancy
C1     C     0.63744   0.80944   0.43391   0.00000  Uiso   1.00
C2     C     0.61332   0.87012   0.46540   0.00000  Uiso   1.00
C3     C     0.53914   0.90415   0.46926   0.00000  Uiso   1.00
C4     C     0.52893   0.95844   0.50001   0.00000  Uiso   1.00
C5     C     0.48206   0.04972   0.54494   0.00000  Uiso   1.00
C6     C     0.65328   0.83895   0.38161   0.00000  Uiso   1.00
C7     C     0.61270   0.84676   0.31501   0.00000  Uiso   1.00
C8     C     0.63613   0.87479   0.27522   0.00000  Uiso   1.00
C9     C     0.65134   0.91763   0.19007   0.00000  Uiso   1.00
C10    C     0.72370   0.74385   0.48742   0.00000  Uiso   1.00
C11    C     0.74234   0.67169   0.50979   0.00000  Uiso   1.00
C12    C     0.82507   0.61965   0.55908   0.00000  Uiso   1.00
C13    C     0.94961   0.51483   0.63822   0.00000  Uiso   1.00
C14    C     0.75123   0.84534   0.48166   0.00000  Uiso   1.00
C15    C     0.67513   0.88962   0.49134   0.00000  Uiso   1.00
C16    C     0.66503   0.94387   0.52210   0.00000  Uiso   1.00
C17    C     0.59085   0.97797   0.52600   0.00000  Uiso   1.00
C18    C     0.71508   0.85845   0.40754   0.00000  Uiso   1.00
C19    C     0.73859   0.88647   0.36785   0.00000  Uiso   1.00
C20    C     0.69805   0.89432   0.30121   0.00000  Uiso   1.00
C21    C     0.78550   0.76335   0.51337   0.00000  Uiso   1.00
C22    C     0.86823   0.71141   0.56263   0.00000  Uiso   1.00
C23    C     0.88699   0.63918   0.58507   0.00000  Uiso   1.00
H24    H     0.58932   0.79426   0.41371   0.00000  Uiso   1.00
H25    H     0.49132   0.88905   0.44917   0.00000  Uiso   1.00
H26    H     0.56488   0.83166   0.29495   0.00000  Uiso   1.00
H27    H     0.69449   0.65662   0.48970   0.00000  Uiso   1.00
H28    H     0.40991   0.00276   0.49991   0.00000  Uiso   1.00
H29    H     0.56502   0.88172   0.17473   0.00000  Uiso   1.00
H30    H     0.83835   0.51262   0.58540   0.00000  Uiso   1.00
H31    H     0.79935   0.86052   0.50186   0.00000  Uiso   1.00
H32    H     0.71287   0.95894   0.54217   0.00000  Uiso   1.00
H33    H     0.78642   0.90155   0.38794   0.00000  Uiso   1.00
H34    H     0.91604   0.72651   0.58269   0.00000  Uiso   1.00
H35    H     0.58972   0.05949   0.57539   0.00000  Uiso   1.00
H36    H     0.74484   0.93845   0.25020   0.00000  Uiso   1.00
H37    H     0.01816   0.56935   0.66087   0.00000  Uiso   1.00
O38    O     0.43913   0.09469   0.56255   0.00000  Uiso   1.00
O39    O     0.64264   0.93588   0.13593   0.00000  Uiso   1.00
O40    O     0.00123   0.45163   0.67472   0.00000  Uiso   1.00
N41    N     0.46410   0.00259   0.51216   0.00000  Uiso   1.00
N42    N     0.60912   0.88944   0.20813   0.00000  Uiso   1.00
N43    N     0.86466   0.54436   0.59206   0.00000  Uiso   1.00
N44    N     0.56086   0.03312   0.55277   0.00000  Uiso   1.00
N45    N     0.70587   0.91996   0.24874   0.00000  Uiso   1.00
N46    N     0.96141   0.57488   0.63267   0.00000  Uiso   1.00
C47    C     0.83120   0.24188   0.38096   0.00000  Uiso   1.00
C48    C     0.83754   0.18701   0.43309   0.00000  Uiso   1.00
C49    C     0.88772   0.10989   0.45330   0.00000  Uiso   1.00
C50    C     0.88464   0.06950   0.50160   0.00000  Uiso   1.00
C51    C     0.90228   0.97890   0.57840   0.00000  Uiso   1.00
C52    C     0.73706   0.28979   0.32923   0.00000  Uiso   1.00
C53    C     0.70277   0.29910   0.26212   0.00000  Uiso   1.00
C54    C     0.61510   0.34525   0.22300   0.00000  Uiso   1.00
C55    C     0.47675   0.41427   0.13855   0.00000  Uiso   1.00
C56    C     0.85408   0.29366   0.41472   0.00000  Uiso   1.00
C57    C     0.91816   0.30624   0.41947   0.00000  Uiso   1.00
C58    C     0.92901   0.35566   0.45230   0.00000  Uiso   1.00
C59    C     0.97235   0.43068   0.50058   0.00000  Uiso   1.00
C60    C     0.73648   0.30730   0.43081   0.00000  Uiso   1.00
C61    C     0.78609   0.22254   0.46016   0.00000  Uiso   1.00
C62    C     0.78293   0.18226   0.50845   0.00000  Uiso   1.00
C63    C     0.83310   0.10510   0.52872   0.00000  Uiso   1.00
C64    C     0.68561   0.32533   0.35630   0.00000  Uiso   1.00
C65    C     0.59798   0.37148   0.31727   0.00000  Uiso   1.00
C66    C     0.56356   0.38085   0.25012   0.00000  Uiso   1.00
C67    C     0.80263   0.32919   0.44179   0.00000  Uiso   1.00
C68    C     0.81337   0.37861   0.47462   0.00000  Uiso   1.00
C69    C     0.87747   0.39126   0.47943   0.00000  Uiso   1.00
H70    H     0.87124   0.21422   0.35988   0.00000  Uiso   1.00
H71    H     0.92752   0.08241   0.43233   0.00000  Uiso   1.00
H72    H     0.74259   0.27160   0.24118   0.00000  Uiso   1.00
H73    H     0.95796   0.27873   0.39851   0.00000  Uiso   1.00
H74    H     0.96720   0.95195   0.52457   0.00000  Uiso   1.00
H75    H     0.57728   0.35089   0.12153   0.00000  Uiso   1.00
H76    H     0.03142   0.36593   0.45328   0.00000  Uiso   1.00
H77    H     0.69643   0.33496   0.45188   0.00000  Uiso   1.00
H78    H     0.74311   0.20977   0.52939   0.00000  Uiso   1.00
H79    H     0.55819   0.39897   0.33824   0.00000  Uiso   1.00
H80    H     0.77355   0.40610   0.49557   0.00000  Uiso   1.00
H81    H     0.81753   0.05532   0.60335   0.00000  Uiso   1.00
H82    H     0.42761   0.45427   0.20030   0.00000  Uiso   1.00
H83    H     0.88175   0.46930   0.53206   0.00000  Uiso   1.00
O84    O     0.92621   0.91910   0.61327   0.00000  Uiso   1.00
O85    O     0.41466   0.44251   0.08449   0.00000  Uiso   1.00
O86    O     0.01048   0.46224   0.51974   0.00000  Uiso   1.00
N87    N     0.92558   0.99346   0.53249   0.00000  Uiso   1.00
N88    N     0.56103   0.36643   0.15566   0.00000  Uiso   1.00
N89    N     0.98560   0.38051   0.46581   0.00000  Uiso   1.00
N90    N     0.84504   0.04908   0.57488   0.00000  Uiso   1.00
N91    N     0.48049   0.42206   0.19805   0.00000  Uiso   1.00
N92    N     0.90506   0.43614   0.50820   0.00000  Uiso   1.00
C93    C     0.30598   0.40421   0.45770   0.00000  Uiso   1.00
C94    C     0.39800   0.38541   0.49268   0.00000  Uiso   1.00
C95    C     0.42420   0.43666   0.49729   0.00000  Uiso   1.00
C96    C     0.51127   0.40826   0.53138   0.00000  Uiso   1.00
C97    C     0.64524   0.39077   0.58134   0.00000  Uiso   1.00
C98    C     0.29939   0.36320   0.40698   0.00000  Uiso   1.00
C99    C     0.24267   0.39578   0.33954   0.00000  Uiso   1.00
C100   C     0.24672   0.34868   0.30148   0.00000  Uiso   1.00
C101   C     0.22755   0.29670   0.21840   0.00000  Uiso   1.00
C102   C     0.29457   0.36700   0.50930   0.00000  Uiso   1.00
C103   C     0.23379   0.40277   0.52788   0.00000  Uiso   1.00
C104   C     0.23377   0.35887   0.57596   0.00000  Uiso   1.00
C105   C     0.20712   0.31280   0.65175   0.00000  Uiso   1.00
C106   C     0.41402   0.26265   0.51004   0.00000  Uiso   1.00
C107   C     0.45669   0.30852   0.52110   0.00000  Uiso   1.00
C108   C     0.54374   0.28004   0.55520   0.00000  Uiso   1.00
C109   C     0.57006   0.33123   0.55986   0.00000  Uiso   1.00
C110   C     0.35807   0.28631   0.43540   0.00000  Uiso   1.00
C111   C     0.36221   0.23916   0.39744   0.00000  Uiso   1.00
C112   C     0.30551   0.27165   0.32996   0.00000  Uiso   1.00
C113   C     0.35326   0.29011   0.53773   0.00000  Uiso   1.00
C114   C     0.35333   0.24615   0.58579   0.00000  Uiso   1.00
C115   C     0.29256   0.28184   0.60444   0.00000  Uiso   1.00
H116   H     0.26029   0.46407   0.43556   0.00000  Uiso   1.00
H117   H     0.37877   0.49616   0.47528   0.00000  Uiso   1.00
H118   H     0.19726   0.45528   0.31756   0.00000  Uiso   1.00
H119   H     0.18839   0.46227   0.50587   0.00000  Uiso   1.00
H120   H     0.53601   0.49782   0.53183   0.00000  Uiso   1.00
H121   H     0.15327   0.41163   0.19926   0.00000  Uiso   1.00
H122   H     0.13455   0.42638   0.59636   0.00000  Uiso   1.00
H123   H     0.45971   0.20278   0.53217   0.00000  Uiso   1.00
H124   H     0.58914   0.22053   0.57719   0.00000  Uiso   1.00
H125   H     0.40763   0.17966   0.41946   0.00000  Uiso   1.00
H126   H     0.39875   0.18665   0.60777   0.00000  Uiso   1.00
H127   H     0.70675   0.27412   0.61454   0.00000  Uiso   1.00
H128   H     0.32401   0.18792   0.28196   0.00000  Uiso   1.00
H129   H     0.30529   0.20267   0.67906   0.00000  Uiso   1.00
O130   O     0.70293   0.40236   0.60104   0.00000  Uiso   1.00
O131   O     0.20077   0.28927   0.16472   0.00000  Uiso   1.00
O132   O     0.17622   0.30862   0.68570   0.00000  Uiso   1.00
N133   N     0.55843   0.44274   0.54513   0.00000  Uiso   1.00
N134   N     0.20060   0.36215   0.23419   0.00000  Uiso   1.00
N135   N     0.18308   0.37594   0.60543   0.00000  Uiso   1.00
N136   N     0.65031   0.32236   0.58963   0.00000  Uiso   1.00
N137   N     0.29247   0.24178   0.27870   0.00000  Uiso   1.00
N138   N     0.27496   0.25556   0.64994   0.00000  Uiso   1.00
C139   C     0.23694   0.70121   0.93599   0.00000  Uiso   1.00
C140   C     0.33113   0.64391   0.96426   0.00000  Uiso   1.00
C141   C     0.36490   0.57015   0.96576   0.00000  Uiso   1.00
C142   C     0.45271   0.52672   0.99372   0.00000  Uiso   1.00
C143   C     0.59104   0.43330   0.03369   0.00000  Uiso   1.00
C144   C     0.21628   0.76642   0.88407   0.00000  Uiso   1.00
C145   C     0.15348   0.79568   0.81816   0.00000  Uiso   1.00
C146   C     0.14461   0.85538   0.77861   0.00000  Uiso   1.00
C147   C     0.10460   0.95220   0.69410   0.00000  Uiso   1.00
C148   C     0.22912   0.73031   0.99183   0.00000  Uiso   1.00
C149   C     0.17709   0.72922   0.01652   0.00000  Uiso   1.00
C150   C     0.17901   0.75853   0.06770   0.00000  Uiso   1.00
C151   C     0.15892   0.79927   0.15052   0.00000  Uiso   1.00
C152   C     0.33284   0.75523   0.98296   0.00000  Uiso   1.00
C153   C     0.38322   0.67326   0.98976   0.00000  Uiso   1.00
C154   C     0.47100   0.62992   0.01773   0.00000  Uiso   1.00
C155   C     0.50490   0.55611   0.01928   0.00000  Uiso   1.00
C156   C     0.26837   0.79576   0.90957   0.00000  Uiso   1.00
C157   C     0.25958   0.85544   0.87012   0.00000  Uiso   1.00
C158   C     0.19679   0.88477   0.80417   0.00000  Uiso   1.00
C159   C     0.28121   0.75965   0.01735   0.00000  Uiso   1.00
C160   C     0.28320   0.78898   0.06849   0.00000  Uiso   1.00
C161   C     0.23119   0.78793   0.09326   0.00000  Uiso   1.00
H162   H     0.19638   0.67837   0.91613   0.00000  Uiso   1.00
H163   H     0.32457   0.54747   0.94601   0.00000  Uiso   1.00
H164   H     0.11318   0.77296   0.79843   0.00000  Uiso   1.00
H165   H     0.13679   0.70651   0.99677   0.00000  Uiso   1.00
H166   H     0.48965   0.41529   0.99037   0.00000  Uiso   1.00
H167   H     0.04391   0.89077   0.67919   0.00000  Uiso   1.00
H168   H     0.09369   0.75064   0.09743   0.00000  Uiso   1.00
H169   H     0.37339   0.77807   0.00282   0.00000  Uiso   1.00
H170   H     0.51130   0.65264   0.03746   0.00000  Uiso   1.00
H171   H     0.29990   0.87813   0.88988   0.00000  Uiso   1.00
H172   H     0.32352   0.81168   0.08822   0.00000  Uiso   1.00
H173   H     0.64121   0.50065   0.06459   0.00000  Uiso   1.00
H174   H     0.19546   0.97614   0.75342   0.00000  Uiso   1.00
H175   H     0.24525   0.83600   0.17165   0.00000  Uiso   1.00
O176   O     0.65295   0.37367   0.04869   0.00000  Uiso   1.00
O177   O     0.06814   0.99749   0.64044   0.00000  Uiso   1.00
O178   O     0.13347   0.81363   0.18916   0.00000  Uiso   1.00
N179   N     0.50640   0.45259   0.00310   0.00000  Uiso   1.00
N180   N     0.08966   0.89713   0.71216   0.00000  Uiso   1.00
N181   N     0.13619   0.76614   0.10316   0.00000  Uiso   1.00
N182   N     0.58795   0.49852   0.04304   0.00000  Uiso   1.00
N183   N     0.17121   0.94306   0.75210   0.00000  Uiso   1.00
N184   N     0.21774   0.81207   0.14310   0.00000  Uiso   1.00
C185   C     0.60822   0.96605   0.88348   0.00000  Uiso   1.00
C186   C     0.60060   0.92470   0.93540   0.00000  Uiso   1.00
C187   C     0.54075   0.95651   0.95563   0.00000  Uiso   1.00
C188   C     0.54434   0.90922   0.00372   0.00000  Uiso   1.00
C189   C     0.52315   0.85663   0.08022   0.00000  Uiso   1.00
C190   C     0.60236   0.92670   0.83152   0.00000  Uiso   1.00
C191   C     0.54399   0.96019   0.76441   0.00000  Uiso   1.00
C192   C     0.54907   0.91458   0.72506   0.00000  Uiso   1.00
C193   C     0.53066   0.86510   0.64028   0.00000  Uiso   1.00
C194   C     0.69902   0.95042   0.91738   0.00000  Uiso   1.00
C195   C     0.72192   0.00386   0.92246   0.00000  Uiso   1.00
C196   C     0.80838   0.97823   0.95539   0.00000  Uiso   1.00
C197   C     0.94004   0.96559   0.00393   0.00000  Uiso   1.00
C198   C     0.72104   0.82550   0.93290   0.00000  Uiso   1.00
C199   C     0.66188   0.84836   0.96223   0.00000  Uiso   1.00
C200   C     0.66557   0.80101   0.01031   0.00000  Uiso   1.00
C201   C     0.60573   0.83274   0.03061   0.00000  Uiso   1.00
C202   C     0.66364   0.85036   0.85836   0.00000  Uiso   1.00
C203   C     0.66881   0.80469   0.81909   0.00000  Uiso   1.00
C204   C     0.61046   0.83810   0.75195   0.00000  Uiso   1.00
C205   C     0.76030   0.87408   0.94423   0.00000  Uiso   1.00
C206   C     0.84674   0.84836   0.97714   0.00000  Uiso   1.00
C207   C     0.86977   0.90175   0.98228   0.00000  Uiso   1.00
H208   H     0.56051   0.02548   0.86258   0.00000  Uiso   1.00
H209   H     0.49333   0.01559   0.93484   0.00000  Uiso   1.00
H210   H     0.49658   0.01927   0.74366   0.00000  Uiso   1.00
H211   H     0.67448   0.06293   0.90169   0.00000  Uiso   1.00
H212   H     0.44584   0.97095   0.02678   0.00000  Uiso   1.00
H213   H     0.45272   0.97872   0.62365   0.00000  Uiso   1.00
H214   H     0.82786   0.07080   0.95688   0.00000  Uiso   1.00
H215   H     0.76875   0.76606   0.95379   0.00000  Uiso   1.00
H216   H     0.71299   0.74193   0.03107   0.00000  Uiso   1.00
H217   H     0.71624   0.74562   0.83988   0.00000  Uiso   1.00
H218   H     0.89414   0.78928   0.99791   0.00000  Uiso   1.00
H219   H     0.62413   0.74884   0.10488   0.00000  Uiso   1.00
H220   H     0.63101   0.75661   0.70175   0.00000  Uiso   1.00
H221   H     0.00615   0.84869   0.03498   0.00000  Uiso   1.00
O222   O     0.49453   0.84870   0.11500   0.00000  Uiso   1.00
O223   O     0.50357   0.85889   0.58611   0.00000  Uiso   1.00
O224   O     0.99574   0.97970   0.02331   0.00000  Uiso   1.00
N225   N     0.49547   0.92199   0.03457   0.00000  Uiso   1.00
N226   N     0.50189   0.92925   0.65766   0.00000  Uiso   1.00
N227   N     0.85261   0.01534   0.96919   0.00000  Uiso   1.00
N228   N     0.59140   0.80248   0.07659   0.00000  Uiso   1.00
N229   N     0.59782   0.80974   0.69969   0.00000  Uiso   1.00
N230   N     0.94855   0.89582   0.01122   0.00000  Uiso   1.00
C231   C     0.91431   0.31680   0.97115   0.00000  Uiso   1.00
C232   C     0.92626   0.37075   0.00766   0.00000  Uiso   1.00
C233   C     0.98818   0.38893   0.01968   0.00000  Uiso   1.00
C234   C     0.98851   0.43945   0.05391   0.00000  Uiso   1.00
C235   C     0.01609   0.51851   0.10731   0.00000  Uiso   1.00
C236   C     0.82274   0.36076   0.91433   0.00000  Uiso   1.00
C237   C     0.79762   0.37054   0.84787   0.00000  Uiso   1.00
C238   C     0.71079   0.41265   0.80353   0.00000  Uiso   1.00
C239   C     0.57765   0.47615   0.71203   0.00000  Uiso   1.00
C240   C     0.91887   0.25822   0.01848   0.00000  Uiso   1.00
C241   C     0.97456   0.18178   0.03958   0.00000  Uiso   1.00
C242   C     0.96867   0.13755   0.08292   0.00000  Uiso   1.00
C243   C     0.98479   0.04184   0.15313   0.00000  Uiso   1.00
C244   C     0.80479   0.37417   0.01058   0.00000  Uiso   1.00
C245   C     0.86677   0.40191   0.02908   0.00000  Uiso   1.00
C246   C     0.86701   0.45241   0.06330   0.00000  Uiso   1.00
C247   C     0.92892   0.47067   0.07536   0.00000  Uiso   1.00
C248   C     0.76325   0.39192   0.93574   0.00000  Uiso   1.00
C249   C     0.67645   0.43402   0.89149   0.00000  Uiso   1.00
C250   C     0.65120   0.44387   0.82498   0.00000  Uiso   1.00
C251   C     0.85939   0.28938   0.03990   0.00000  Uiso   1.00
C252   C     0.85340   0.24526   0.08321   0.00000  Uiso   1.00
C253   C     0.90907   0.16877   0.10437   0.00000  Uiso   1.00
H254   H     0.96062   0.29254   0.95447   0.00000  Uiso   1.00
H255   H     0.03420   0.36481   0.00309   0.00000  Uiso   1.00
H256   H     0.84366   0.34641   0.83131   0.00000  Uiso   1.00
H257   H     0.02059   0.15768   0.02300   0.00000  Uiso   1.00
H258   H     0.08952   0.45870   0.06641   0.00000  Uiso   1.00
H259   H     0.68777   0.41989   0.70420   0.00000  Uiso   1.00
H260   H     0.06085   0.02191   0.10841   0.00000  Uiso   1.00
H261   H     0.75847   0.39844   0.02725   0.00000  Uiso   1.00
H262   H     0.82097   0.47652   0.07987   0.00000  Uiso   1.00
H263   H     0.63043   0.45812   0.90808   0.00000  Uiso   1.00
H264   H     0.80735   0.26939   0.09977   0.00000  Uiso   1.00
H265   H     0.91645   0.54937   0.12872   0.00000  Uiso   1.00
H266   H     0.51470   0.51056   0.76651   0.00000  Uiso   1.00
H267   H     0.88778   0.11258   0.17072   0.00000  Uiso   1.00
O268   O     0.04773   0.55351   0.13085   0.00000  Uiso   1.00
O269   O     0.52064   0.50258   0.65564   0.00000  Uiso   1.00
O270   O     0.01012   0.98044   0.18596   0.00000  Uiso   1.00
N271   N     0.04023   0.46931   0.07387   0.00000  Uiso   1.00
N272   N     0.66461   0.43304   0.73522   0.00000  Uiso   1.00
N273   N     0.01339   0.06096   0.11311   0.00000  Uiso   1.00
N274   N     0.94710   0.51810   0.10740   0.00000  Uiso   1.00
N275   N     0.57148   0.48182   0.76875   0.00000  Uiso   1.00
N276   N     0.92027   0.10975   0.14664   0.00000  Uiso   1.00
C277   C     0.20503   0.14399   0.40003   0.00000  Uiso   1.00
C278   C     0.20476   0.08957   0.36122   0.00000  Uiso   1.00
C279   C     0.26861   0.04745   0.34737   0.00000  Uiso   1.00
C280   C     0.25637   0.00095   0.31118   0.00000  Uiso   1.00
C281   C     0.26715   0.91706   0.25422   0.00000  Uiso   1.00
C282   C     0.19381   0.11835   0.45696   0.00000  Uiso   1.00
C283   C     0.24845   0.10044   0.52361   0.00000  Uiso   1.00
C284   C     0.22699   0.07817   0.56801   0.00000  Uiso   1.00
C285   C     0.22074   0.03901   0.65968   0.00000  Uiso   1.00
C286   C     0.12382   0.21878   0.35476   0.00000  Uiso   1.00
C287   C     0.11961   0.28531   0.33549   0.00000  Uiso   1.00
C288   C     0.03922   0.34760   0.29386   0.00000  Uiso   1.00
C289   C     0.92430   0.46436   0.22684   0.00000  Uiso   1.00
C290   C     0.06975   0.13631   0.36038   0.00000  Uiso   1.00
C291   C     0.13128   0.08540   0.33968   0.00000  Uiso   1.00
C292   C     0.11894   0.03895   0.30350   0.00000  Uiso   1.00
C293   C     0.18276   0.99677   0.28960   0.00000  Uiso   1.00
C294   C     0.12034   0.11418   0.43542   0.00000  Uiso   1.00
C295   C     0.09878   0.09194   0.47974   0.00000  Uiso   1.00
C296   C     0.15338   0.07399   0.54644   0.00000  Uiso   1.00
C297   C     0.05034   0.21461   0.33322   0.00000  Uiso   1.00
C298   C     0.96994   0.27681   0.29161   0.00000  Uiso   1.00
C299   C     0.96561   0.34342   0.27228   0.00000  Uiso   1.00
H300   H     0.26224   0.14724   0.41680   0.00000  Uiso   1.00
H301   H     0.32547   0.05069   0.36405   0.00000  Uiso   1.00
H302   H     0.30531   0.10368   0.54026   0.00000  Uiso   1.00
H303   H     0.17649   0.28851   0.35216   0.00000  Uiso   1.00
H304   H     0.36318   0.94179   0.29609   0.00000  Uiso   1.00
H305   H     0.32066   0.05354   0.66763   0.00000  Uiso   1.00
H306   H     0.04902   0.44331   0.27100   0.00000  Uiso   1.00
H307   H     0.01254   0.13306   0.34361   0.00000  Uiso   1.00
H308   H     0.06207   0.03574   0.28684   0.00000  Uiso   1.00
H309   H     0.04192   0.08872   0.46305   0.00000  Uiso   1.00
H310   H     0.91310   0.27356   0.27496   0.00000  Uiso   1.00
H311   H     0.14940   0.92965   0.23343   0.00000  Uiso   1.00
H312   H     0.10688   0.04140   0.60497   0.00000  Uiso   1.00
H313   H     0.83524   0.43117   0.20833   0.00000  Uiso   1.00
O314   O     0.29339   0.87193   0.22875   0.00000  Uiso   1.00
O315   O     0.23760   0.01855   0.71620   0.00000  Uiso   1.00
O316   O     0.88121   0.52992   0.19582   0.00000  Uiso   1.00
N317   N     0.30606   0.95230   0.28912   0.00000  Uiso   1.00
N318   N     0.26632   0.05677   0.63649   0.00000  Uiso   1.00
N319   N     0.01235   0.42117   0.26569   0.00000  Uiso   1.00
N320   N     0.19103   0.94577   0.25540   0.00000  Uiso   1.00
N321   N     0.15128   0.05023   0.60277   0.00000  Uiso   1.00
N322   N     0.89732   0.41464   0.23197   0.00000  Uiso   1.00
C323   C     0.99761   0.75760   0.46829   0.00000  Uiso   1.00
C324   C     0.98469   0.81775   0.41633   0.00000  Uiso   1.00
C325   C     0.93079   0.89401   0.39889   0.00000  Uiso   1.00
C326   C     0.92799   0.93983   0.35024   0.00000  Uiso   1.00
C327   C     0.90045   0.03770   0.27417   0.00000  Uiso   1.00
C328   C     0.09282   0.71237   0.51751   0.00000  Uiso   1.00
C329   C     0.12983   0.70003   0.58515   0.00000  Uiso   1.00
C330   C     0.21806   0.65714   0.62167   0.00000  Uiso   1.00
C331   C     0.35840   0.59138   0.70269   0.00000  Uiso   1.00
C332   C     0.97760   0.70551   0.43306   0.00000  Uiso   1.00
C333   C     0.91776   0.68738   0.42970   0.00000  Uiso   1.00
C334   C     0.90899   0.63870   0.39514   0.00000  Uiso   1.00
C335   C     0.87043   0.56228   0.34503   0.00000  Uiso   1.00
C336   C     0.08848   0.70336   0.41290   0.00000  Uiso   1.00
C337   C     0.03405   0.78828   0.38625   0.00000  Uiso   1.00
C338   C     0.03133   0.83400   0.33761   0.00000  Uiso   1.00
C339   C     0.97743   0.91032   0.32010   0.00000  Uiso   1.00
C340   C     0.14218   0.68291   0.48743   0.00000  Uiso   1.00
C341   C     0.23037   0.64003   0.52387   0.00000  Uiso   1.00
C342   C     0.26751   0.62763   0.59153   0.00000  Uiso   1.00
C343   C     0.02696   0.67605   0.40298   0.00000  Uiso   1.00
C344   C     0.01829   0.62738   0.36842   0.00000  Uiso   1.00
C345   C     0.95844   0.60918   0.36500   0.00000  Uiso   1.00
H346   H     0.95919   0.78053   0.49171   0.00000  Uiso   1.00
H347   H     0.89261   0.91678   0.42219   0.00000  Uiso   1.00
H348   H     0.09162   0.72283   0.60842   0.00000  Uiso   1.00
H349   H     0.87957   0.71019   0.45299   0.00000  Uiso   1.00
H350   H     0.84058   0.05485   0.33186   0.00000  Uiso   1.00
H351   H     0.26021   0.64588   0.72453   0.00000  Uiso   1.00
H352   H     0.81307   0.61921   0.39679   0.00000  Uiso   1.00
H353   H     0.12691   0.68042   0.38948   0.00000  Uiso   1.00
H354   H     0.06953   0.81119   0.31434   0.00000  Uiso   1.00
H355   H     0.26855   0.61723   0.50057   0.00000  Uiso   1.00
H356   H     0.05650   0.60459   0.34514   0.00000  Uiso   1.00
H357   H     0.98418   0.96915   0.24433   0.00000  Uiso   1.00
H358   H     0.40381   0.56017   0.63700   0.00000  Uiso   1.00
H359   H     0.95667   0.53350   0.30925   0.00000  Uiso   1.00
O360   O     0.87163   0.09983   0.24053   0.00000  Uiso   1.00
O361   O     0.42216   0.56325   0.75570   0.00000  Uiso   1.00
O362   O     0.83552   0.52827   0.32570   0.00000  Uiso   1.00
N363   N     0.88224   0.01674   0.32156   0.00000  Uiso   1.00
N364   N     0.27457   0.63438   0.68868   0.00000  Uiso   1.00
N365   N     0.85654   0.60943   0.38228   0.00000  Uiso   1.00
N366   N     0.95951   0.97062   0.27446   0.00000  Uiso   1.00
N367   N     0.35184   0.58826   0.64158   0.00000  Uiso   1.00
N368   N     0.93381   0.56331   0.33518   0.00000  Uiso   1.00
C369   C     0.54816   0.56678   0.39890   0.00000  Uiso   1.00
C370   C     0.45555   0.58727   0.36744   0.00000  Uiso   1.00
C371   C     0.42773   0.53720   0.36416   0.00000  Uiso   1.00
C372   C     0.34038   0.56706   0.33334   0.00000  Uiso   1.00
C373   C     0.20530   0.58713   0.28857   0.00000  Uiso   1.00
C374   C     0.56029   0.60608   0.45065   0.00000  Uiso   1.00
C375   C     0.62055   0.57182   0.51732   0.00000  Uiso   1.00
C376   C     0.62137   0.61753   0.55654   0.00000  Uiso   1.00
C377   C     0.64895   0.66682   0.64093   0.00000  Uiso   1.00
C378   C     0.55624   0.60436   0.34511   0.00000  Uiso   1.00
C379   C     0.61310   0.56866   0.32306   0.00000  Uiso   1.00
C380   C     0.61053   0.61292   0.27345   0.00000  Uiso   1.00
C381   C     0.63182   0.65953   0.19398   0.00000  Uiso   1.00
C382   C     0.44250   0.70886   0.35002   0.00000  Uiso   1.00
C383   C     0.39816   0.66444   0.34089   0.00000  Uiso   1.00
C384   C     0.31082   0.69439   0.31007   0.00000  Uiso   1.00
C385   C     0.28288   0.64437   0.30674   0.00000  Uiso   1.00
C386   C     0.50290   0.68325   0.42410   0.00000  Uiso   1.00
C387   C     0.50364   0.72902   0.46323   0.00000  Uiso   1.00
C388   C     0.56388   0.69484   0.52994   0.00000  Uiso   1.00
C389   C     0.49884   0.68153   0.31856   0.00000  Uiso   1.00
C390   C     0.49619   0.72585   0.26898   0.00000  Uiso   1.00
C391   C     0.55303   0.69023   0.24685   0.00000  Uiso   1.00
H392   H     0.59284   0.50670   0.41957   0.00000  Uiso   1.00
H393   H     0.47216   0.47748   0.38471   0.00000  Uiso   1.00
H394   H     0.66495   0.51210   0.53785   0.00000  Uiso   1.00
H395   H     0.65750   0.50894   0.34362   0.00000  Uiso   1.00
H396   H     0.31305   0.47911   0.33438   0.00000  Uiso   1.00
H397   H     0.71959   0.55213   0.65726   0.00000  Uiso   1.00
H398   H     0.70388   0.54545   0.24770   0.00000  Uiso   1.00
H399   H     0.39781   0.76895   0.32935   0.00000  Uiso   1.00
H400   H     0.26642   0.75411   0.28953   0.00000  Uiso   1.00
H401   H     0.45922   0.78874   0.44267   0.00000  Uiso   1.00
H402   H     0.45177   0.78557   0.24844   0.00000  Uiso   1.00
H403   H     0.14607   0.70364   0.25713   0.00000  Uiso   1.00
H404   H     0.55261   0.77666   0.58002   0.00000  Uiso   1.00
H405   H     0.53690   0.76998   0.17045   0.00000  Uiso   1.00
O406   O     0.14665   0.57689   0.27122   0.00000  Uiso   1.00
O407   O     0.68002   0.67268   0.69482   0.00000  Uiso   1.00
O408   O     0.65940   0.66392   0.15748   0.00000  Uiso   1.00
N409   N     0.29179   0.53399   0.32165   0.00000  Uiso   1.00
N410   N     0.67186   0.60225   0.62353   0.00000  Uiso   1.00
N411   N     0.65719   0.59601   0.24063   0.00000  Uiso   1.00
N412   N     0.20193   0.65481   0.28008   0.00000  Uiso   1.00
N413   N     0.58201   0.72307   0.58196   0.00000  Uiso   1.00
N414   N     0.56734   0.71683   0.19907   0.00000  Uiso   1.00
C415   C     0.56527   0.29382   0.89347   0.00000  Uiso   1.00
C416   C     0.46832   0.33456   0.85536   0.00000  Uiso   1.00
C417   C     0.41323   0.40939   0.84276   0.00000  Uiso   1.00
C418   C     0.32665   0.43609   0.80704   0.00000  Uiso   1.00
C419   C     0.18072   0.50643   0.75127   0.00000  Uiso   1.00
C420   C     0.59415   0.22834   0.94976   0.00000  Uiso   1.00
C421   C     0.64488   0.21387   0.01653   0.00000  Uiso   1.00
C422   C     0.66424   0.15114   0.06027   0.00000  Uiso   1.00
C423   C     0.71372   0.05654   0.15106   0.00000  Uiso   1.00
C424   C     0.59511   0.25984   0.84718   0.00000  Uiso   1.00
C425   C     0.64665   0.27182   0.82772   0.00000  Uiso   1.00
C426   C     0.66683   0.23559   0.78510   0.00000  Uiso   1.00
C427   C     0.71779   0.18989   0.71662   0.00000  Uiso   1.00
C428   C     0.50948   0.20815   0.85242   0.00000  Uiso   1.00
C429   C     0.43802   0.28803   0.83306   0.00000  Uiso   1.00
C430   C     0.35150   0.31462   0.79734   0.00000  Uiso   1.00
C431   C     0.29629   0.38948   0.78469   0.00000  Uiso   1.00
C432   C     0.56385   0.18182   0.92746   0.00000  Uiso   1.00
C433   C     0.58315   0.11909   0.97111   0.00000  Uiso   1.00
C434   C     0.63388   0.10452   0.03793   0.00000  Uiso   1.00
C435   C     0.56480   0.21331   0.82487   0.00000  Uiso   1.00
C436   C     0.58492   0.17705   0.78229   0.00000  Uiso   1.00
C437   C     0.63648   0.18898   0.76276   0.00000  Uiso   1.00
H438   H     0.58887   0.33004   0.91084   0.00000  Uiso   1.00
H439   H     0.43671   0.44538   0.86004   0.00000  Uiso   1.00
H440   H     0.66832   0.24988   0.03378   0.00000  Uiso   1.00
H441   H     0.67009   0.30783   0.84499   0.00000  Uiso   1.00
H442   H     0.25464   0.55274   0.79390   0.00000  Uiso   1.00
H443   H     0.74304   0.14050   0.16024   0.00000  Uiso   1.00
H444   H     0.74677   0.26269   0.76214   0.00000  Uiso   1.00
H445   H     0.48589   0.17193   0.83505   0.00000  Uiso   1.00
H446   H     0.32807   0.27860   0.78008   0.00000  Uiso   1.00
H447   H     0.55969   0.08310   0.95383   0.00000  Uiso   1.00
H448   H     0.56146   0.14105   0.76504   0.00000  Uiso   1.00
H449   H     0.16647   0.41737   0.72901   0.00000  Uiso   1.00
H450   H     0.65488   0.00512   0.09535   0.00000  Uiso   1.00
H451   H     0.65860   0.12732   0.69725   0.00000  Uiso   1.00
O452   O     0.10860   0.55807   0.72668   0.00000  Uiso   1.00
O453   O     0.74938   0.01722   0.20730   0.00000  Uiso   1.00
O454   O     0.75426   0.17754   0.68501   0.00000  Uiso   1.00
N455   N     0.25555   0.50625   0.78616   0.00000  Uiso   1.00
N456   N     0.71216   0.12083   0.12866   0.00000  Uiso   1.00
N457   N     0.71567   0.23505   0.75649   0.00000  Uiso   1.00
N458   N     0.20811   0.43340   0.75124   0.00000  Uiso   1.00
N459   N     0.66472   0.04799   0.09375   0.00000  Uiso   1.00
N460   N     0.66823   0.16221   0.72157   0.00000  Uiso   1.00
C461   C     0.24636   0.00247   0.96949   0.00000  Uiso   1.00
C462   C     0.25296   0.04422   0.91708   0.00000  Uiso   1.00
C463   C     0.31098   0.01255   0.89516   0.00000  Uiso   1.00
C464   C     0.30671   0.06022   0.84689   0.00000  Uiso   1.00
C465   C     0.32613   0.11340   0.76939   0.00000  Uiso   1.00
C466   C     0.25521   0.04035   0.02249   0.00000  Uiso   1.00
C467   C     0.31512   0.00541   0.08920   0.00000  Uiso   1.00
C468   C     0.31273   0.04982   0.12967   0.00000  Uiso   1.00
C469   C     0.33561   0.09698   0.21583   0.00000  Uiso   1.00
C470   C     0.15501   0.01946   0.93688   0.00000  Uiso   1.00
C471   C     0.13066   0.96696   0.93162   0.00000  Uiso   1.00
C472   C     0.04391   0.99378   0.90003   0.00000  Uiso   1.00
C473   C     0.91121   0.00851   0.85327   0.00000  Uiso   1.00
C474   C     0.13558   0.14345   0.92275   0.00000  Uiso   1.00
C475   C     0.19278   0.12080   0.89170   0.00000  Uiso   1.00
C476   C     0.18841   0.16853   0.84345   0.00000  Uiso   1.00
C477   C     0.24642   0.13693   0.82145   0.00000  Uiso   1.00
C478   C     0.19504   0.11692   0.99711   0.00000  Uiso   1.00
C479   C     0.19255   0.16139   0.03749   0.00000  Uiso   1.00
C480   C     0.25245   0.12653   0.10424   0.00000  Uiso   1.00
C481   C     0.09483   0.09603   0.91149   0.00000  Uiso   1.00
C482   C     0.00809   0.12294   0.87991   0.00000  Uiso   1.00
C483   C     0.98362   0.07050   0.87459   0.00000  Uiso   1.00
H484   H     0.29321   0.94285   0.98926   0.00000  Uiso   1.00
H485   H     0.35755   0.95328   0.91482   0.00000  Uiso   1.00
H486   H     0.36168   0.94615   0.10883   0.00000  Uiso   1.00
H487   H     0.17725   0.90771   0.95127   0.00000  Uiso   1.00
H488   H     0.40236   0.99862   0.82111   0.00000  Uiso   1.00
H489   H     0.41105   0.98357   0.23020   0.00000  Uiso   1.00
H490   H     0.02214   0.90251   0.89796   0.00000  Uiso   1.00
H491   H     0.08873   0.20307   0.90299   0.00000  Uiso   1.00
H492   H     0.14184   0.22779   0.82381   0.00000  Uiso   1.00
H493   H     0.14597   0.22065   0.01782   0.00000  Uiso   1.00
H494   H     0.96155   0.18221   0.86027   0.00000  Uiso   1.00
H495   H     0.22729   0.22142   0.74725   0.00000  Uiso   1.00
H496   H     0.23598   0.20637   0.15634   0.00000  Uiso   1.00
H497   H     0.84707   0.12530   0.82409   0.00000  Uiso   1.00
O498   O     0.35348   0.12159   0.73367   0.00000  Uiso   1.00
O499   O     0.36486   0.10184   0.27037   0.00000  Uiso   1.00
O500   O     0.85463   0.99548   0.83448   0.00000  Uiso   1.00
N501   N     0.35386   0.04766   0.81458   0.00000  Uiso   1.00
N502   N     0.36199   0.03359   0.19706   0.00000  Uiso   1.00
N503   N     0.99840   0.95780   0.88645   0.00000  Uiso   1.00
N504   N     0.25965   0.16755   0.77484   0.00000  Uiso   1.00
N505   N     0.26778   0.15348   0.15731   0.00000  Uiso   1.00
N506   N     0.90419   0.07769   0.84671   0.00000  Uiso   1.00
C507   C     0.92066   0.66603   0.88075   0.00000  Uiso   1.00
C508   C     0.91664   0.60908   0.84570   0.00000  Uiso   1.00
C509   C     0.86334   0.58130   0.83735   0.00000  Uiso   1.00
C510   C     0.86933   0.52958   0.80389   0.00000  Uiso   1.00
C511   C     0.85441   0.44463   0.75317   0.00000  Uiso   1.00
C512   C     0.01301   0.62958   0.93515   0.00000  Uiso   1.00
C513   C     0.04073   0.61904   0.00201   0.00000  Uiso   1.00
C514   C     0.12784   0.58458   0.04385   0.00000  Uiso   1.00
C515   C     0.26254   0.53151   0.13200   0.00000  Uiso   1.00
C516   C     0.90458   0.73032   0.83087   0.00000  Uiso   1.00
C517   C     0.84114   0.80451   0.81006   0.00000  Uiso   1.00
C518   C     0.83697   0.85487   0.76410   0.00000  Uiso   1.00
C519   C     0.80330   0.95823   0.69034   0.00000  Uiso   1.00
C520   C     0.02609   0.62357   0.83617   0.00000  Uiso   1.00
C521   C     0.97391   0.58601   0.82148   0.00000  Uiso   1.00
C522   C     0.97999   0.53432   0.78802   0.00000  Uiso   1.00
C523   C     0.92670   0.50647   0.77962   0.00000  Uiso   1.00
C524   C     0.07028   0.60651   0.91094   0.00000  Uiso   1.00
C525   C     0.15737   0.57206   0.95268   0.00000  Uiso   1.00
C526   C     0.18521   0.56148   0.01959   0.00000  Uiso   1.00
C527   C     0.96184   0.70726   0.80665   0.00000  Uiso   1.00
C528   C     0.95778   0.75752   0.76073   0.00000  Uiso   1.00
C529   C     0.89434   0.83177   0.73985   0.00000  Uiso   1.00
H530   H     0.87608   0.68398   0.89961   0.00000  Uiso   1.00
H531   H     0.81903   0.59916   0.85610   0.00000  Uiso   1.00
H532   H     0.99639   0.63690   0.02073   0.00000  Uiso   1.00
H533   H     0.79683   0.82233   0.82881   0.00000  Uiso   1.00
H534   H     0.78107   0.49492   0.79721   0.00000  Uiso   1.00
H535   H     0.15504   0.57453   0.14434   0.00000  Uiso   1.00
H536   H     0.73422   0.96555   0.73962   0.00000  Uiso   1.00
H537   H     0.07068   0.60561   0.81732   0.00000  Uiso   1.00
H538   H     0.02431   0.51648   0.76929   0.00000  Uiso   1.00
H539   H     0.20167   0.55423   0.93393   0.00000  Uiso   1.00
H540   H     0.00211   0.73966   0.74200   0.00000  Uiso   1.00
H541   H     0.94768   0.42782   0.72675   0.00000  Uiso   1.00
H542   H     0.32165   0.50743   0.07388   0.00000  Uiso   1.00
H543   H     0.90083   0.89845   0.66917   0.00000  Uiso   1.00
O544   O     0.83038   0.40414   0.73189   0.00000  Uiso   1.00
O545   O     0.32101   0.50860   0.18731   0.00000  Uiso   1.00
O546   O     0.76891   0.02160   0.65633   0.00000  Uiso   1.00
N547   N     0.82663   0.49137   0.78720   0.00000  Uiso   1.00
N548   N     0.17627   0.56579   0.11175   0.00000  Uiso   1.00
N549   N     0.78286   0.93137   0.73339   0.00000  Uiso   1.00
N550   N     0.91628   0.45526   0.74929   0.00000  Uiso   1.00
N551   N     0.26592   0.52968   0.07384   0.00000  Uiso   1.00
N552   N     0.87251   0.89526   0.69548   0.00000  Uiso   1.00
