data_job_02977
_audit_creation_date              2018-12-19
_audit_creation_method            'Materials Studio'
_symmetry_space_group_name_H-M    'P1'
_symmetry_Int_Tables_number       1
_symmetry_cell_setting            triclinic
loop_
_symmetry_equiv_pos_as_xyz
  x,y,z
_cell_length_a                    11.4909
_cell_length_b                    23.3705
_cell_length_c                    21.7474
_cell_angle_alpha                 90.0000
_cell_angle_beta                  90.0000
_cell_angle_gamma                 90.0000
loop_
_atom_site_label
_atom_site_type_symbol
_atom_site_fract_x
_atom_site_fract_y
_atom_site_fract_z
_atom_site_U_iso_or_equiv
_atom_site_adp_type
_atom_site_occupancy
C1     C     0.40175   0.88549   0.19601   0.00000  Uiso   1.00
C2     C     0.47065   0.83101   0.18320   0.00000  Uiso   1.00
C3     C     0.44823   0.77752   0.20825   0.00000  Uiso   1.00
C4     C     0.52131   0.73310   0.19076   0.00000  Uiso   1.00
C5     C     0.61431   0.64717   0.17714   0.00000  Uiso   1.00
C6     C     0.48972   0.92919   0.21948   0.00000  Uiso   1.00
C7     C     0.48332   0.95826   0.27503   0.00000  Uiso   1.00
C8     C     0.57245   0.99649   0.28808   0.00000  Uiso   1.00
C9     C     0.69501   0.06302   0.33076   0.00000  Uiso   1.00
C10    C     0.36114   0.90739   0.13355   0.00000  Uiso   1.00
C11    C     0.24665   0.91814   0.11684   0.00000  Uiso   1.00
C12    C     0.22753   0.93803   0.05753   0.00000  Uiso   1.00
C13    C     0.15046   0.97072   0.96679   0.00000  Uiso   1.00
C14    C     0.57139   0.90172   0.12040   0.00000  Uiso   1.00
C15    C     0.56279   0.83983   0.14213   0.00000  Uiso   1.00
C16    C     0.63592   0.79548   0.12460   0.00000  Uiso   1.00
C17    C     0.61362   0.74193   0.14961   0.00000  Uiso   1.00
C18    C     0.58186   0.93801   0.17842   0.00000  Uiso   1.00
C19    C     0.67101   0.97621   0.19138   0.00000  Uiso   1.00
C20    C     0.66476   0.00532   0.24694   0.00000  Uiso   1.00
C21    C     0.45329   0.91621   0.09247   0.00000  Uiso   1.00
C22    C     0.43434   0.93610   0.03319   0.00000  Uiso   1.00
C23    C     0.31984   0.94687   0.01639   0.00000  Uiso   1.00
H24    H     0.33001   0.87863   0.22799   0.00000  Uiso   1.00
H25    H     0.37692   0.77072   0.24004   0.00000  Uiso   1.00
H26    H     0.41200   0.95143   0.30680   0.00000  Uiso   1.00
H27    H     0.17537   0.91131   0.14863   0.00000  Uiso   1.00
H28    H     0.46959   0.65497   0.23530   0.00000  Uiso   1.00
H29    H     0.54353   0.03602   0.37607   0.00000  Uiso   1.00
H30    H     0.04454   0.95144   0.04254   0.00000  Uiso   1.00
H31    H     0.64313   0.90859   0.08843   0.00000  Uiso   1.00
H32    H     0.70722   0.80232   0.09281   0.00000  Uiso   1.00
H33    H     0.74230   0.98303   0.15959   0.00000  Uiso   1.00
H34    H     0.50567   0.94291   0.00142   0.00000  Uiso   1.00
H35    H     0.73768   0.68061   0.11581   0.00000  Uiso   1.00
H36    H     0.81161   0.06167   0.25659   0.00000  Uiso   1.00
H37    H     0.31263   0.97708   0.92306   0.00000  Uiso   1.00
O38    O     0.64017   0.59735   0.18097   0.00000  Uiso   1.00
O39    O     0.73716   0.09728   0.36566   0.00000  Uiso   1.00
O40    O     0.08250   0.98630   0.92808   0.00000  Uiso   1.00
N41    N     0.52387   0.67559   0.20656   0.00000  Uiso   1.00
N42    N     0.59301   0.03184   0.33818   0.00000  Uiso   1.00
N43    N     0.12650   0.95278   0.02637   0.00000  Uiso   1.00
N44    N     0.66813   0.68939   0.14227   0.00000  Uiso   1.00
N45    N     0.73727   0.04564   0.27389   0.00000  Uiso   1.00
N46    N     0.27076   0.96658   0.96207   0.00000  Uiso   1.00
C47    C     0.09825   0.11451   0.69601   0.00000  Uiso   1.00
C48    C     0.02935   0.16899   0.68320   0.00000  Uiso   1.00
C49    C     0.05177   0.22248   0.70825   0.00000  Uiso   1.00
C50    C     0.97869   0.26690   0.69076   0.00000  Uiso   1.00
C51    C     0.88569   0.35283   0.67714   0.00000  Uiso   1.00
C52    C     0.01028   0.07081   0.71948   0.00000  Uiso   1.00
C53    C     0.01668   0.04174   0.77503   0.00000  Uiso   1.00
C54    C     0.92755   0.00351   0.78808   0.00000  Uiso   1.00
C55    C     0.80499   0.93698   0.83076   0.00000  Uiso   1.00
C56    C     0.13886   0.09261   0.63355   0.00000  Uiso   1.00
C57    C     0.25335   0.08186   0.61684   0.00000  Uiso   1.00
C58    C     0.27247   0.06197   0.55753   0.00000  Uiso   1.00
C59    C     0.34954   0.02928   0.46679   0.00000  Uiso   1.00
C60    C     0.92861   0.09828   0.62040   0.00000  Uiso   1.00
C61    C     0.93721   0.16017   0.64213   0.00000  Uiso   1.00
C62    C     0.86408   0.20452   0.62460   0.00000  Uiso   1.00
C63    C     0.88638   0.25807   0.64961   0.00000  Uiso   1.00
C64    C     0.91814   0.06199   0.67842   0.00000  Uiso   1.00
C65    C     0.82899   0.02379   0.69138   0.00000  Uiso   1.00
C66    C     0.83524   0.99468   0.74694   0.00000  Uiso   1.00
C67    C     0.04671   0.08379   0.59247   0.00000  Uiso   1.00
C68    C     0.06566   0.06390   0.53319   0.00000  Uiso   1.00
C69    C     0.18016   0.05313   0.51639   0.00000  Uiso   1.00
H70    H     0.16999   0.12137   0.72799   0.00000  Uiso   1.00
H71    H     0.12308   0.22928   0.74004   0.00000  Uiso   1.00
H72    H     0.08800   0.04857   0.80680   0.00000  Uiso   1.00
H73    H     0.32463   0.08869   0.64863   0.00000  Uiso   1.00
H74    H     0.03041   0.34503   0.73530   0.00000  Uiso   1.00
H75    H     0.95647   0.96398   0.87607   0.00000  Uiso   1.00
H76    H     0.45546   0.04856   0.54254   0.00000  Uiso   1.00
H77    H     0.85687   0.09141   0.58843   0.00000  Uiso   1.00
H78    H     0.79278   0.19768   0.59281   0.00000  Uiso   1.00
H79    H     0.75770   0.01697   0.65959   0.00000  Uiso   1.00
H80    H     0.99433   0.05709   0.50142   0.00000  Uiso   1.00
H81    H     0.76232   0.31939   0.61581   0.00000  Uiso   1.00
H82    H     0.68839   0.93833   0.75659   0.00000  Uiso   1.00
H83    H     0.18737   0.02292   0.42306   0.00000  Uiso   1.00
O84    O     0.85983   0.40265   0.68097   0.00000  Uiso   1.00
O85    O     0.76284   0.90272   0.86566   0.00000  Uiso   1.00
O86    O     0.41750   0.01370   0.42808   0.00000  Uiso   1.00
N87    N     0.97613   0.32441   0.70656   0.00000  Uiso   1.00
N88    N     0.90699   0.96816   0.83818   0.00000  Uiso   1.00
N89    N     0.37350   0.04722   0.52637   0.00000  Uiso   1.00
N90    N     0.83187   0.31061   0.64227   0.00000  Uiso   1.00
N91    N     0.76273   0.95436   0.77389   0.00000  Uiso   1.00
N92    N     0.22924   0.03342   0.46207   0.00000  Uiso   1.00
C93    C     0.59825   0.38549   0.30399   0.00000  Uiso   1.00
C94    C     0.52935   0.33101   0.31680   0.00000  Uiso   1.00
C95    C     0.55177   0.27752   0.29175   0.00000  Uiso   1.00
C96    C     0.47869   0.23310   0.30924   0.00000  Uiso   1.00
C97    C     0.38569   0.14717   0.32286   0.00000  Uiso   1.00
C98    C     0.51028   0.42919   0.28052   0.00000  Uiso   1.00
C99    C     0.51668   0.45826   0.22497   0.00000  Uiso   1.00
C100   C     0.42755   0.49649   0.21192   0.00000  Uiso   1.00
C101   C     0.30499   0.56302   0.16924   0.00000  Uiso   1.00
C102   C     0.63886   0.40739   0.36645   0.00000  Uiso   1.00
C103   C     0.75335   0.41814   0.38316   0.00000  Uiso   1.00
C104   C     0.77247   0.43803   0.44247   0.00000  Uiso   1.00
C105   C     0.84954   0.47072   0.53321   0.00000  Uiso   1.00
C106   C     0.42861   0.40172   0.37960   0.00000  Uiso   1.00
C107   C     0.43721   0.33983   0.35787   0.00000  Uiso   1.00
C108   C     0.36408   0.29548   0.37540   0.00000  Uiso   1.00
C109   C     0.38638   0.24193   0.35039   0.00000  Uiso   1.00
C110   C     0.41814   0.43801   0.32158   0.00000  Uiso   1.00
C111   C     0.32899   0.47621   0.30862   0.00000  Uiso   1.00
C112   C     0.33524   0.50532   0.25306   0.00000  Uiso   1.00
C113   C     0.54671   0.41621   0.40753   0.00000  Uiso   1.00
C114   C     0.56566   0.43610   0.46681   0.00000  Uiso   1.00
C115   C     0.68016   0.44687   0.48361   0.00000  Uiso   1.00
H116   H     0.66999   0.37863   0.27201   0.00000  Uiso   1.00
H117   H     0.62308   0.27072   0.25996   0.00000  Uiso   1.00
H118   H     0.58800   0.45143   0.19320   0.00000  Uiso   1.00
H119   H     0.82463   0.41131   0.35137   0.00000  Uiso   1.00
H120   H     0.53041   0.15497   0.26470   0.00000  Uiso   1.00
H121   H     0.45647   0.53602   0.12393   0.00000  Uiso   1.00
H122   H     0.95546   0.45144   0.45746   0.00000  Uiso   1.00
H123   H     0.35687   0.40859   0.41157   0.00000  Uiso   1.00
H124   H     0.29278   0.30232   0.40719   0.00000  Uiso   1.00
H125   H     0.25770   0.48303   0.34041   0.00000  Uiso   1.00
H126   H     0.49433   0.44291   0.49858   0.00000  Uiso   1.00
H127   H     0.26232   0.18061   0.38419   0.00000  Uiso   1.00
H128   H     0.18839   0.56167   0.24341   0.00000  Uiso   1.00
H129   H     0.68737   0.47708   0.57694   0.00000  Uiso   1.00
O130   O     0.35983   0.09735   0.31903   0.00000  Uiso   1.00
O131   O     0.26284   0.59728   0.13434   0.00000  Uiso   1.00
O132   O     0.91750   0.48630   0.57192   0.00000  Uiso   1.00
N133   N     0.47613   0.17559   0.29344   0.00000  Uiso   1.00
N134   N     0.40699   0.53184   0.16182   0.00000  Uiso   1.00
N135   N     0.87350   0.45278   0.47363   0.00000  Uiso   1.00
N136   N     0.33187   0.18939   0.35773   0.00000  Uiso   1.00
N137   N     0.26273   0.54564   0.22611   0.00000  Uiso   1.00
N138   N     0.72924   0.46658   0.53793   0.00000  Uiso   1.00
C139   C     0.90175   0.61451   0.80399   0.00000  Uiso   1.00
C140   C     0.97065   0.66899   0.81680   0.00000  Uiso   1.00
C141   C     0.94823   0.72248   0.79175   0.00000  Uiso   1.00
C142   C     0.02131   0.76690   0.80924   0.00000  Uiso   1.00
C143   C     0.11431   0.85283   0.82286   0.00000  Uiso   1.00
C144   C     0.98972   0.57081   0.78052   0.00000  Uiso   1.00
C145   C     0.98332   0.54174   0.72497   0.00000  Uiso   1.00
C146   C     0.07245   0.50351   0.71192   0.00000  Uiso   1.00
C147   C     0.19501   0.43698   0.66924   0.00000  Uiso   1.00
C148   C     0.86114   0.59261   0.86645   0.00000  Uiso   1.00
C149   C     0.74665   0.58186   0.88316   0.00000  Uiso   1.00
C150   C     0.72753   0.56197   0.94247   0.00000  Uiso   1.00
C151   C     0.65046   0.52928   0.03321   0.00000  Uiso   1.00
C152   C     0.07139   0.59828   0.87960   0.00000  Uiso   1.00
C153   C     0.06279   0.66017   0.85787   0.00000  Uiso   1.00
C154   C     0.13592   0.70452   0.87540   0.00000  Uiso   1.00
C155   C     0.11362   0.75807   0.85039   0.00000  Uiso   1.00
C156   C     0.08186   0.56199   0.82158   0.00000  Uiso   1.00
C157   C     0.17101   0.52379   0.80862   0.00000  Uiso   1.00
C158   C     0.16476   0.49468   0.75306   0.00000  Uiso   1.00
C159   C     0.95329   0.58379   0.90753   0.00000  Uiso   1.00
C160   C     0.93434   0.56390   0.96681   0.00000  Uiso   1.00
C161   C     0.81984   0.55313   0.98361   0.00000  Uiso   1.00
H162   H     0.83001   0.62137   0.77201   0.00000  Uiso   1.00
H163   H     0.87692   0.72928   0.75996   0.00000  Uiso   1.00
H164   H     0.91200   0.54857   0.69320   0.00000  Uiso   1.00
H165   H     0.67537   0.58869   0.85137   0.00000  Uiso   1.00
H166   H     0.96959   0.84503   0.76470   0.00000  Uiso   1.00
H167   H     0.04353   0.46398   0.62393   0.00000  Uiso   1.00
H168   H     0.54454   0.54856   0.95746   0.00000  Uiso   1.00
H169   H     0.14313   0.59141   0.91157   0.00000  Uiso   1.00
H170   H     0.20722   0.69768   0.90719   0.00000  Uiso   1.00
H171   H     0.24230   0.51697   0.84041   0.00000  Uiso   1.00
H172   H     0.00567   0.55709   0.99858   0.00000  Uiso   1.00
H173   H     0.23768   0.81939   0.88419   0.00000  Uiso   1.00
H174   H     0.31161   0.43833   0.74341   0.00000  Uiso   1.00
H175   H     0.81263   0.52292   0.07694   0.00000  Uiso   1.00
O176   O     0.14017   0.90265   0.81903   0.00000  Uiso   1.00
O177   O     0.23716   0.40272   0.63434   0.00000  Uiso   1.00
O178   O     0.58250   0.51370   0.07192   0.00000  Uiso   1.00
N179   N     0.02387   0.82441   0.79344   0.00000  Uiso   1.00
N180   N     0.09301   0.46816   0.66182   0.00000  Uiso   1.00
N181   N     0.62650   0.54722   0.97363   0.00000  Uiso   1.00
N182   N     0.16813   0.81061   0.85773   0.00000  Uiso   1.00
N183   N     0.23727   0.45436   0.72611   0.00000  Uiso   1.00
N184   N     0.77076   0.53342   0.03793   0.00000  Uiso   1.00
C185   C     0.59825   0.11451   0.80399   0.00000  Uiso   1.00
C186   C     0.52935   0.16899   0.81680   0.00000  Uiso   1.00
C187   C     0.55177   0.22248   0.79175   0.00000  Uiso   1.00
C188   C     0.47869   0.26690   0.80924   0.00000  Uiso   1.00
C189   C     0.38569   0.35283   0.82286   0.00000  Uiso   1.00
C190   C     0.51028   0.07081   0.78052   0.00000  Uiso   1.00
C191   C     0.51668   0.04174   0.72497   0.00000  Uiso   1.00
C192   C     0.42755   0.00351   0.71192   0.00000  Uiso   1.00
C193   C     0.30499   0.93698   0.66924   0.00000  Uiso   1.00
C194   C     0.63886   0.09261   0.86645   0.00000  Uiso   1.00
C195   C     0.75335   0.08186   0.88316   0.00000  Uiso   1.00
C196   C     0.77247   0.06197   0.94247   0.00000  Uiso   1.00
C197   C     0.84954   0.02928   0.03321   0.00000  Uiso   1.00
C198   C     0.42861   0.09828   0.87960   0.00000  Uiso   1.00
C199   C     0.43721   0.16017   0.85787   0.00000  Uiso   1.00
C200   C     0.36408   0.20452   0.87540   0.00000  Uiso   1.00
C201   C     0.38638   0.25807   0.85039   0.00000  Uiso   1.00
C202   C     0.41814   0.06199   0.82158   0.00000  Uiso   1.00
C203   C     0.32899   0.02379   0.80862   0.00000  Uiso   1.00
C204   C     0.33524   0.99468   0.75306   0.00000  Uiso   1.00
C205   C     0.54671   0.08379   0.90753   0.00000  Uiso   1.00
C206   C     0.56566   0.06390   0.96681   0.00000  Uiso   1.00
C207   C     0.68016   0.05313   0.98361   0.00000  Uiso   1.00
H208   H     0.66999   0.12137   0.77201   0.00000  Uiso   1.00
H209   H     0.62308   0.22928   0.75996   0.00000  Uiso   1.00
H210   H     0.58800   0.04857   0.69320   0.00000  Uiso   1.00
H211   H     0.82463   0.08869   0.85137   0.00000  Uiso   1.00
H212   H     0.53041   0.34503   0.76470   0.00000  Uiso   1.00
H213   H     0.45647   0.96398   0.62393   0.00000  Uiso   1.00
H214   H     0.95546   0.04856   0.95746   0.00000  Uiso   1.00
H215   H     0.35687   0.09141   0.91157   0.00000  Uiso   1.00
H216   H     0.29278   0.19768   0.90719   0.00000  Uiso   1.00
H217   H     0.25770   0.01697   0.84041   0.00000  Uiso   1.00
H218   H     0.49433   0.05709   0.99858   0.00000  Uiso   1.00
H219   H     0.26232   0.31939   0.88419   0.00000  Uiso   1.00
H220   H     0.18839   0.93833   0.74341   0.00000  Uiso   1.00
H221   H     0.68737   0.02292   0.07694   0.00000  Uiso   1.00
O222   O     0.35983   0.40265   0.81903   0.00000  Uiso   1.00
O223   O     0.26284   0.90272   0.63434   0.00000  Uiso   1.00
O224   O     0.91750   0.01370   0.07192   0.00000  Uiso   1.00
N225   N     0.47613   0.32441   0.79344   0.00000  Uiso   1.00
N226   N     0.40699   0.96816   0.66182   0.00000  Uiso   1.00
N227   N     0.87350   0.04722   0.97363   0.00000  Uiso   1.00
N228   N     0.33187   0.31061   0.85773   0.00000  Uiso   1.00
N229   N     0.26273   0.95436   0.72611   0.00000  Uiso   1.00
N230   N     0.72924   0.03342   0.03793   0.00000  Uiso   1.00
C231   C     0.90175   0.88549   0.30399   0.00000  Uiso   1.00
C232   C     0.97065   0.83101   0.31680   0.00000  Uiso   1.00
C233   C     0.94823   0.77752   0.29175   0.00000  Uiso   1.00
C234   C     0.02131   0.73310   0.30924   0.00000  Uiso   1.00
C235   C     0.11431   0.64717   0.32286   0.00000  Uiso   1.00
C236   C     0.98972   0.92919   0.28052   0.00000  Uiso   1.00
C237   C     0.98332   0.95826   0.22497   0.00000  Uiso   1.00
C238   C     0.07245   0.99649   0.21192   0.00000  Uiso   1.00
C239   C     0.19501   0.06302   0.16924   0.00000  Uiso   1.00
C240   C     0.86114   0.90739   0.36645   0.00000  Uiso   1.00
C241   C     0.74665   0.91814   0.38316   0.00000  Uiso   1.00
C242   C     0.72753   0.93803   0.44247   0.00000  Uiso   1.00
C243   C     0.65046   0.97072   0.53321   0.00000  Uiso   1.00
C244   C     0.07139   0.90172   0.37960   0.00000  Uiso   1.00
C245   C     0.06279   0.83983   0.35787   0.00000  Uiso   1.00
C246   C     0.13592   0.79548   0.37540   0.00000  Uiso   1.00
C247   C     0.11362   0.74193   0.35039   0.00000  Uiso   1.00
C248   C     0.08186   0.93801   0.32158   0.00000  Uiso   1.00
C249   C     0.17101   0.97621   0.30862   0.00000  Uiso   1.00
C250   C     0.16476   0.00532   0.25306   0.00000  Uiso   1.00
C251   C     0.95329   0.91621   0.40753   0.00000  Uiso   1.00
C252   C     0.93434   0.93610   0.46681   0.00000  Uiso   1.00
C253   C     0.81984   0.94687   0.48361   0.00000  Uiso   1.00
H254   H     0.83001   0.87863   0.27201   0.00000  Uiso   1.00
H255   H     0.87692   0.77072   0.25996   0.00000  Uiso   1.00
H256   H     0.91200   0.95143   0.19320   0.00000  Uiso   1.00
H257   H     0.67537   0.91131   0.35137   0.00000  Uiso   1.00
H258   H     0.96959   0.65497   0.26470   0.00000  Uiso   1.00
H259   H     0.04353   0.03602   0.12393   0.00000  Uiso   1.00
H260   H     0.54454   0.95144   0.45746   0.00000  Uiso   1.00
H261   H     0.14313   0.90859   0.41157   0.00000  Uiso   1.00
H262   H     0.20722   0.80232   0.40719   0.00000  Uiso   1.00
H263   H     0.24230   0.98303   0.34041   0.00000  Uiso   1.00
H264   H     0.00567   0.94291   0.49858   0.00000  Uiso   1.00
H265   H     0.23768   0.68061   0.38419   0.00000  Uiso   1.00
H266   H     0.31161   0.06167   0.24341   0.00000  Uiso   1.00
H267   H     0.81263   0.97708   0.57694   0.00000  Uiso   1.00
O268   O     0.14017   0.59735   0.31903   0.00000  Uiso   1.00
O269   O     0.23716   0.09728   0.13434   0.00000  Uiso   1.00
O270   O     0.58250   0.98630   0.57192   0.00000  Uiso   1.00
N271   N     0.02387   0.67559   0.29344   0.00000  Uiso   1.00
N272   N     0.09301   0.03184   0.16182   0.00000  Uiso   1.00
N273   N     0.62650   0.95278   0.47363   0.00000  Uiso   1.00
N274   N     0.16813   0.68939   0.35773   0.00000  Uiso   1.00
N275   N     0.23727   0.04564   0.22611   0.00000  Uiso   1.00
N276   N     0.77076   0.96658   0.53793   0.00000  Uiso   1.00
C277   C     0.40175   0.61451   0.69601   0.00000  Uiso   1.00
C278   C     0.47065   0.66899   0.68320   0.00000  Uiso   1.00
C279   C     0.44823   0.72248   0.70825   0.00000  Uiso   1.00
C280   C     0.52131   0.76690   0.69076   0.00000  Uiso   1.00
C281   C     0.61431   0.85283   0.67714   0.00000  Uiso   1.00
C282   C     0.48972   0.57081   0.71948   0.00000  Uiso   1.00
C283   C     0.48332   0.54174   0.77503   0.00000  Uiso   1.00
C284   C     0.57245   0.50351   0.78808   0.00000  Uiso   1.00
C285   C     0.69501   0.43698   0.83076   0.00000  Uiso   1.00
C286   C     0.36114   0.59261   0.63355   0.00000  Uiso   1.00
C287   C     0.24665   0.58186   0.61684   0.00000  Uiso   1.00
C288   C     0.22753   0.56197   0.55753   0.00000  Uiso   1.00
C289   C     0.15046   0.52928   0.46679   0.00000  Uiso   1.00
C290   C     0.57139   0.59828   0.62040   0.00000  Uiso   1.00
C291   C     0.56279   0.66017   0.64213   0.00000  Uiso   1.00
C292   C     0.63592   0.70452   0.62460   0.00000  Uiso   1.00
C293   C     0.61362   0.75807   0.64961   0.00000  Uiso   1.00
C294   C     0.58186   0.56199   0.67842   0.00000  Uiso   1.00
C295   C     0.67101   0.52379   0.69138   0.00000  Uiso   1.00
C296   C     0.66476   0.49468   0.74694   0.00000  Uiso   1.00
C297   C     0.45329   0.58379   0.59247   0.00000  Uiso   1.00
C298   C     0.43434   0.56390   0.53319   0.00000  Uiso   1.00
C299   C     0.31984   0.55313   0.51639   0.00000  Uiso   1.00
H300   H     0.33001   0.62137   0.72799   0.00000  Uiso   1.00
H301   H     0.37692   0.72928   0.74004   0.00000  Uiso   1.00
H302   H     0.41200   0.54857   0.80680   0.00000  Uiso   1.00
H303   H     0.17537   0.58869   0.64863   0.00000  Uiso   1.00
H304   H     0.46959   0.84503   0.73530   0.00000  Uiso   1.00
H305   H     0.54353   0.46398   0.87607   0.00000  Uiso   1.00
H306   H     0.04454   0.54856   0.54254   0.00000  Uiso   1.00
H307   H     0.64313   0.59141   0.58843   0.00000  Uiso   1.00
H308   H     0.70722   0.69768   0.59281   0.00000  Uiso   1.00
H309   H     0.74230   0.51697   0.65959   0.00000  Uiso   1.00
H310   H     0.50567   0.55709   0.50142   0.00000  Uiso   1.00
H311   H     0.73768   0.81939   0.61581   0.00000  Uiso   1.00
H312   H     0.81161   0.43833   0.75659   0.00000  Uiso   1.00
H313   H     0.31263   0.52292   0.42306   0.00000  Uiso   1.00
O314   O     0.64017   0.90265   0.68097   0.00000  Uiso   1.00
O315   O     0.73716   0.40272   0.86566   0.00000  Uiso   1.00
O316   O     0.08250   0.51370   0.42808   0.00000  Uiso   1.00
N317   N     0.52387   0.82441   0.70656   0.00000  Uiso   1.00
N318   N     0.59301   0.46816   0.83818   0.00000  Uiso   1.00
N319   N     0.12650   0.54722   0.52637   0.00000  Uiso   1.00
N320   N     0.66813   0.81061   0.64227   0.00000  Uiso   1.00
N321   N     0.73727   0.45436   0.77389   0.00000  Uiso   1.00
N322   N     0.27076   0.53342   0.46207   0.00000  Uiso   1.00
C323   C     0.09825   0.38549   0.19601   0.00000  Uiso   1.00
C324   C     0.02935   0.33101   0.18320   0.00000  Uiso   1.00
C325   C     0.05177   0.27752   0.20825   0.00000  Uiso   1.00
C326   C     0.97869   0.23310   0.19076   0.00000  Uiso   1.00
C327   C     0.88569   0.14717   0.17714   0.00000  Uiso   1.00
C328   C     0.01028   0.42919   0.21948   0.00000  Uiso   1.00
C329   C     0.01668   0.45826   0.27503   0.00000  Uiso   1.00
C330   C     0.92755   0.49649   0.28808   0.00000  Uiso   1.00
C331   C     0.80499   0.56302   0.33076   0.00000  Uiso   1.00
C332   C     0.13886   0.40739   0.13355   0.00000  Uiso   1.00
C333   C     0.25335   0.41814   0.11684   0.00000  Uiso   1.00
C334   C     0.27247   0.43803   0.05753   0.00000  Uiso   1.00
C335   C     0.34954   0.47072   0.96679   0.00000  Uiso   1.00
C336   C     0.92861   0.40172   0.12040   0.00000  Uiso   1.00
C337   C     0.93721   0.33983   0.14213   0.00000  Uiso   1.00
C338   C     0.86408   0.29548   0.12460   0.00000  Uiso   1.00
C339   C     0.88638   0.24193   0.14961   0.00000  Uiso   1.00
C340   C     0.91814   0.43801   0.17842   0.00000  Uiso   1.00
C341   C     0.82899   0.47621   0.19138   0.00000  Uiso   1.00
C342   C     0.83524   0.50532   0.24694   0.00000  Uiso   1.00
C343   C     0.04671   0.41621   0.09247   0.00000  Uiso   1.00
C344   C     0.06566   0.43610   0.03319   0.00000  Uiso   1.00
C345   C     0.18016   0.44687   0.01639   0.00000  Uiso   1.00
H346   H     0.16999   0.37863   0.22799   0.00000  Uiso   1.00
H347   H     0.12308   0.27072   0.24004   0.00000  Uiso   1.00
H348   H     0.08800   0.45143   0.30680   0.00000  Uiso   1.00
H349   H     0.32463   0.41131   0.14863   0.00000  Uiso   1.00
H350   H     0.03041   0.15497   0.23530   0.00000  Uiso   1.00
H351   H     0.95647   0.53602   0.37607   0.00000  Uiso   1.00
H352   H     0.45546   0.45144   0.04254   0.00000  Uiso   1.00
H353   H     0.85687   0.40859   0.08843   0.00000  Uiso   1.00
H354   H     0.79278   0.30232   0.09281   0.00000  Uiso   1.00
H355   H     0.75770   0.48303   0.15959   0.00000  Uiso   1.00
H356   H     0.99433   0.44291   0.00142   0.00000  Uiso   1.00
H357   H     0.76232   0.18061   0.11581   0.00000  Uiso   1.00
H358   H     0.68839   0.56167   0.25659   0.00000  Uiso   1.00
H359   H     0.18737   0.47708   0.92306   0.00000  Uiso   1.00
O360   O     0.85983   0.09735   0.18097   0.00000  Uiso   1.00
O361   O     0.76284   0.59728   0.36566   0.00000  Uiso   1.00
O362   O     0.41750   0.48630   0.92808   0.00000  Uiso   1.00
N363   N     0.97613   0.17559   0.20656   0.00000  Uiso   1.00
N364   N     0.90699   0.53184   0.33818   0.00000  Uiso   1.00
N365   N     0.37350   0.45278   0.02637   0.00000  Uiso   1.00
N366   N     0.83187   0.18939   0.14227   0.00000  Uiso   1.00
N367   N     0.76273   0.54564   0.27389   0.00000  Uiso   1.00
N368   N     0.22924   0.46658   0.96207   0.00000  Uiso   1.00
