data_job_01717
_audit_creation_date              2018-12-19
_audit_creation_method            'Materials Studio'
_symmetry_space_group_name_H-M    'P1'
_symmetry_Int_Tables_number       1
_symmetry_cell_setting            triclinic
loop_
_symmetry_equiv_pos_as_xyz
  x,y,z
_cell_length_a                    22.5313
_cell_length_b                    11.6578
_cell_length_c                    11.5952
_cell_angle_alpha                 90.0000
_cell_angle_beta                  111.1530
_cell_angle_gamma                 90.0000
loop_
_atom_site_label
_atom_site_type_symbol
_atom_site_fract_x
_atom_site_fract_y
_atom_site_fract_z
_atom_site_U_iso_or_equiv
_atom_site_adp_type
_atom_site_occupancy
C1     C     0.64895   0.87895   0.69383   0.00000  Uiso   1.00
C2     C     0.72046   0.89444   0.76016   0.00000  Uiso   1.00
C3     C     0.74989   0.94006   0.87762   0.00000  Uiso   1.00
C4     C     0.81584   0.94696   0.92191   0.00000  Uiso   1.00
C5     C     0.92152   0.97664   0.03568   0.00000  Uiso   1.00
C6     C     0.63888   0.75206   0.66054   0.00000  Uiso   1.00
C7     C     0.59971   0.67799   0.69424   0.00000  Uiso   1.00
C8     C     0.59698   0.56505   0.65464   0.00000  Uiso   1.00
C9     C     0.57596   0.37371   0.61368   0.00000  Uiso   1.00
C10    C     0.63193   0.94315   0.57155   0.00000  Uiso   1.00
C11    C     0.58690   0.02972   0.53040   0.00000  Uiso   1.00
C12    C     0.57831   0.07765   0.41586   0.00000  Uiso   1.00
C13    C     0.54651   0.18300   0.23673   0.00000  Uiso   1.00
C14    C     0.71374   0.81009   0.56359   0.00000  Uiso   1.00
C15    C     0.75565   0.85703   0.68941   0.00000  Uiso   1.00
C16    C     0.82157   0.86387   0.73352   0.00000  Uiso   1.00
C17    C     0.85110   0.90949   0.85103   0.00000  Uiso   1.00
C18    C     0.67407   0.71466   0.58980   0.00000  Uiso   1.00
C19    C     0.67139   0.60180   0.55014   0.00000  Uiso   1.00
C20    C     0.63223   0.52757   0.58377   0.00000  Uiso   1.00
C21    C     0.66712   0.90575   0.50080   0.00000  Uiso   1.00
C22    C     0.65859   0.95354   0.38630   0.00000  Uiso   1.00
C23    C     0.61357   0.04017   0.34499   0.00000  Uiso   1.00
H24    H     0.62155   0.90806   0.74891   0.00000  Uiso   1.00
H25    H     0.72264   0.96898   0.93235   0.00000  Uiso   1.00
H26    H     0.57247   0.70696   0.74898   0.00000  Uiso   1.00
H27    H     0.55968   0.05865   0.58517   0.00000  Uiso   1.00
H28    H     0.85023   0.01999   0.10454   0.00000  Uiso   1.00
H29    H     0.53358   0.46751   0.71786   0.00000  Uiso   1.00
H30    H     0.50660   0.20910   0.37244   0.00000  Uiso   1.00
H31    H     0.74114   0.78096   0.50850   0.00000  Uiso   1.00
H32    H     0.84879   0.83491   0.67875   0.00000  Uiso   1.00
H33    H     0.69863   0.57289   0.49539   0.00000  Uiso   1.00
H34    H     0.68583   0.92457   0.33158   0.00000  Uiso   1.00
H35    H     0.95262   0.91117   0.89872   0.00000  Uiso   1.00
H36    H     0.63597   0.35869   0.51203   0.00000  Uiso   1.00
H37    H     0.60900   0.10028   0.16661   0.00000  Uiso   1.00
O38    O     0.97009   0.00333   0.11798   0.00000  Uiso   1.00
O39    O     0.55465   0.27851   0.61065   0.00000  Uiso   1.00
O40    O     0.51925   0.25146   0.15747   0.00000  Uiso   1.00
N41    N     0.85955   0.98700   0.03273   0.00000  Uiso   1.00
N42    N     0.56351   0.47046   0.67122   0.00000  Uiso   1.00
N43    N     0.53828   0.16376   0.34826   0.00000  Uiso   1.00
N44    N     0.91465   0.92844   0.92198   0.00000  Uiso   1.00
N45    N     0.61861   0.41190   0.56047   0.00000  Uiso   1.00
N46    N     0.59338   0.10521   0.23751   0.00000  Uiso   1.00
C47    C     0.14895   0.37895   0.69383   0.00000  Uiso   1.00
C48    C     0.22046   0.39444   0.76016   0.00000  Uiso   1.00
C49    C     0.24989   0.44006   0.87762   0.00000  Uiso   1.00
C50    C     0.31584   0.44696   0.92191   0.00000  Uiso   1.00
C51    C     0.42152   0.47664   0.03568   0.00000  Uiso   1.00
C52    C     0.13888   0.25206   0.66054   0.00000  Uiso   1.00
C53    C     0.09971   0.17799   0.69424   0.00000  Uiso   1.00
C54    C     0.09698   0.06505   0.65464   0.00000  Uiso   1.00
C55    C     0.07596   0.87371   0.61368   0.00000  Uiso   1.00
C56    C     0.13193   0.44315   0.57155   0.00000  Uiso   1.00
C57    C     0.08690   0.52972   0.53040   0.00000  Uiso   1.00
C58    C     0.07831   0.57765   0.41586   0.00000  Uiso   1.00
C59    C     0.04651   0.68300   0.23673   0.00000  Uiso   1.00
C60    C     0.21374   0.31009   0.56359   0.00000  Uiso   1.00
C61    C     0.25565   0.35703   0.68941   0.00000  Uiso   1.00
C62    C     0.32157   0.36387   0.73352   0.00000  Uiso   1.00
C63    C     0.35110   0.40949   0.85103   0.00000  Uiso   1.00
C64    C     0.17407   0.21466   0.58980   0.00000  Uiso   1.00
C65    C     0.17139   0.10180   0.55014   0.00000  Uiso   1.00
C66    C     0.13223   0.02757   0.58377   0.00000  Uiso   1.00
C67    C     0.16712   0.40575   0.50080   0.00000  Uiso   1.00
C68    C     0.15859   0.45354   0.38630   0.00000  Uiso   1.00
C69    C     0.11357   0.54017   0.34499   0.00000  Uiso   1.00
H70    H     0.12155   0.40806   0.74891   0.00000  Uiso   1.00
H71    H     0.22264   0.46898   0.93235   0.00000  Uiso   1.00
H72    H     0.07247   0.20696   0.74898   0.00000  Uiso   1.00
H73    H     0.05968   0.55865   0.58517   0.00000  Uiso   1.00
H74    H     0.35023   0.51999   0.10454   0.00000  Uiso   1.00
H75    H     0.03358   0.96751   0.71786   0.00000  Uiso   1.00
H76    H     0.00660   0.70910   0.37244   0.00000  Uiso   1.00
H77    H     0.24114   0.28096   0.50850   0.00000  Uiso   1.00
H78    H     0.34879   0.33491   0.67875   0.00000  Uiso   1.00
H79    H     0.19863   0.07289   0.49539   0.00000  Uiso   1.00
H80    H     0.18583   0.42457   0.33158   0.00000  Uiso   1.00
H81    H     0.45262   0.41117   0.89872   0.00000  Uiso   1.00
H82    H     0.13597   0.85869   0.51203   0.00000  Uiso   1.00
H83    H     0.10900   0.60028   0.16661   0.00000  Uiso   1.00
O84    O     0.47009   0.50333   0.11798   0.00000  Uiso   1.00
O85    O     0.05465   0.77851   0.61065   0.00000  Uiso   1.00
O86    O     0.01925   0.75146   0.15747   0.00000  Uiso   1.00
N87    N     0.35955   0.48700   0.03273   0.00000  Uiso   1.00
N88    N     0.06351   0.97046   0.67122   0.00000  Uiso   1.00
N89    N     0.03828   0.66376   0.34826   0.00000  Uiso   1.00
N90    N     0.41465   0.42844   0.92198   0.00000  Uiso   1.00
N91    N     0.11861   0.91190   0.56047   0.00000  Uiso   1.00
N92    N     0.09338   0.60521   0.23751   0.00000  Uiso   1.00
C93    C     0.35105   0.87895   0.30617   0.00000  Uiso   1.00
C94    C     0.27954   0.89444   0.23984   0.00000  Uiso   1.00
C95    C     0.25011   0.94006   0.12238   0.00000  Uiso   1.00
C96    C     0.18416   0.94696   0.07809   0.00000  Uiso   1.00
C97    C     0.07848   0.97664   0.96432   0.00000  Uiso   1.00
C98    C     0.36112   0.75206   0.33946   0.00000  Uiso   1.00
C99    C     0.40029   0.67799   0.30576   0.00000  Uiso   1.00
C100   C     0.40302   0.56505   0.34536   0.00000  Uiso   1.00
C101   C     0.42404   0.37371   0.38632   0.00000  Uiso   1.00
C102   C     0.36807   0.94315   0.42845   0.00000  Uiso   1.00
C103   C     0.41310   0.02972   0.46960   0.00000  Uiso   1.00
C104   C     0.42169   0.07765   0.58414   0.00000  Uiso   1.00
C105   C     0.45349   0.18300   0.76327   0.00000  Uiso   1.00
C106   C     0.28626   0.81009   0.43641   0.00000  Uiso   1.00
C107   C     0.24435   0.85703   0.31059   0.00000  Uiso   1.00
C108   C     0.17843   0.86387   0.26648   0.00000  Uiso   1.00
C109   C     0.14890   0.90949   0.14897   0.00000  Uiso   1.00
C110   C     0.32593   0.71466   0.41020   0.00000  Uiso   1.00
C111   C     0.32861   0.60180   0.44986   0.00000  Uiso   1.00
C112   C     0.36777   0.52757   0.41623   0.00000  Uiso   1.00
C113   C     0.33288   0.90575   0.49920   0.00000  Uiso   1.00
C114   C     0.34141   0.95354   0.61370   0.00000  Uiso   1.00
C115   C     0.38643   0.04017   0.65501   0.00000  Uiso   1.00
H116   H     0.37845   0.90806   0.25109   0.00000  Uiso   1.00
H117   H     0.27736   0.96898   0.06765   0.00000  Uiso   1.00
H118   H     0.42753   0.70696   0.25102   0.00000  Uiso   1.00
H119   H     0.44032   0.05865   0.41483   0.00000  Uiso   1.00
H120   H     0.14977   0.01999   0.89546   0.00000  Uiso   1.00
H121   H     0.46642   0.46751   0.28214   0.00000  Uiso   1.00
H122   H     0.49340   0.20910   0.62756   0.00000  Uiso   1.00
H123   H     0.25886   0.78096   0.49150   0.00000  Uiso   1.00
H124   H     0.15121   0.83491   0.32125   0.00000  Uiso   1.00
H125   H     0.30137   0.57289   0.50461   0.00000  Uiso   1.00
H126   H     0.31417   0.92457   0.66842   0.00000  Uiso   1.00
H127   H     0.04738   0.91117   0.10128   0.00000  Uiso   1.00
H128   H     0.36403   0.35869   0.48797   0.00000  Uiso   1.00
H129   H     0.39100   0.10028   0.83339   0.00000  Uiso   1.00
O130   O     0.02991   0.00333   0.88202   0.00000  Uiso   1.00
O131   O     0.44535   0.27851   0.38935   0.00000  Uiso   1.00
O132   O     0.48075   0.25146   0.84253   0.00000  Uiso   1.00
N133   N     0.14045   0.98700   0.96727   0.00000  Uiso   1.00
N134   N     0.43649   0.47046   0.32878   0.00000  Uiso   1.00
N135   N     0.46172   0.16376   0.65174   0.00000  Uiso   1.00
N136   N     0.08535   0.92844   0.07802   0.00000  Uiso   1.00
N137   N     0.38139   0.41190   0.43953   0.00000  Uiso   1.00
N138   N     0.40662   0.10521   0.76249   0.00000  Uiso   1.00
C139   C     0.85105   0.37895   0.30617   0.00000  Uiso   1.00
C140   C     0.77954   0.39444   0.23984   0.00000  Uiso   1.00
C141   C     0.75011   0.44006   0.12238   0.00000  Uiso   1.00
C142   C     0.68416   0.44696   0.07809   0.00000  Uiso   1.00
C143   C     0.57848   0.47664   0.96432   0.00000  Uiso   1.00
C144   C     0.86112   0.25206   0.33946   0.00000  Uiso   1.00
C145   C     0.90029   0.17799   0.30576   0.00000  Uiso   1.00
C146   C     0.90302   0.06505   0.34536   0.00000  Uiso   1.00
C147   C     0.92404   0.87371   0.38632   0.00000  Uiso   1.00
C148   C     0.86807   0.44315   0.42845   0.00000  Uiso   1.00
C149   C     0.91310   0.52972   0.46960   0.00000  Uiso   1.00
C150   C     0.92169   0.57765   0.58414   0.00000  Uiso   1.00
C151   C     0.95349   0.68300   0.76327   0.00000  Uiso   1.00
C152   C     0.78626   0.31009   0.43641   0.00000  Uiso   1.00
C153   C     0.74435   0.35703   0.31059   0.00000  Uiso   1.00
C154   C     0.67843   0.36387   0.26648   0.00000  Uiso   1.00
C155   C     0.64890   0.40949   0.14897   0.00000  Uiso   1.00
C156   C     0.82593   0.21466   0.41020   0.00000  Uiso   1.00
C157   C     0.82861   0.10180   0.44986   0.00000  Uiso   1.00
C158   C     0.86777   0.02757   0.41623   0.00000  Uiso   1.00
C159   C     0.83288   0.40575   0.49920   0.00000  Uiso   1.00
C160   C     0.84141   0.45354   0.61370   0.00000  Uiso   1.00
C161   C     0.88643   0.54017   0.65501   0.00000  Uiso   1.00
H162   H     0.87845   0.40806   0.25109   0.00000  Uiso   1.00
H163   H     0.77736   0.46898   0.06765   0.00000  Uiso   1.00
H164   H     0.92753   0.20696   0.25102   0.00000  Uiso   1.00
H165   H     0.94032   0.55865   0.41483   0.00000  Uiso   1.00
H166   H     0.64977   0.51999   0.89546   0.00000  Uiso   1.00
H167   H     0.96642   0.96751   0.28214   0.00000  Uiso   1.00
H168   H     0.99340   0.70910   0.62756   0.00000  Uiso   1.00
H169   H     0.75886   0.28096   0.49150   0.00000  Uiso   1.00
H170   H     0.65121   0.33491   0.32125   0.00000  Uiso   1.00
H171   H     0.80137   0.07289   0.50461   0.00000  Uiso   1.00
H172   H     0.81417   0.42457   0.66842   0.00000  Uiso   1.00
H173   H     0.54738   0.41117   0.10128   0.00000  Uiso   1.00
H174   H     0.86403   0.85869   0.48797   0.00000  Uiso   1.00
H175   H     0.89100   0.60028   0.83339   0.00000  Uiso   1.00
O176   O     0.52991   0.50333   0.88202   0.00000  Uiso   1.00
O177   O     0.94535   0.77851   0.38935   0.00000  Uiso   1.00
O178   O     0.98075   0.75146   0.84253   0.00000  Uiso   1.00
N179   N     0.64045   0.48700   0.96727   0.00000  Uiso   1.00
N180   N     0.93649   0.97046   0.32878   0.00000  Uiso   1.00
N181   N     0.96172   0.66376   0.65174   0.00000  Uiso   1.00
N182   N     0.58535   0.42844   0.07802   0.00000  Uiso   1.00
N183   N     0.88139   0.91190   0.43953   0.00000  Uiso   1.00
N184   N     0.90662   0.60521   0.76249   0.00000  Uiso   1.00
