data_job_07037
_audit_creation_date              2018-12-19
_audit_creation_method            'Materials Studio'
_symmetry_space_group_name_H-M    'P1'
_symmetry_Int_Tables_number       1
_symmetry_cell_setting            triclinic
loop_
_symmetry_equiv_pos_as_xyz
  x,y,z
_cell_length_a                    21.8733
_cell_length_b                    25.9002
_cell_length_c                    15.9170
_cell_angle_alpha                 85.1458
_cell_angle_beta                  83.9275
_cell_angle_gamma                 78.1055
loop_
_atom_site_label
_atom_site_type_symbol
_atom_site_fract_x
_atom_site_fract_y
_atom_site_fract_z
_atom_site_U_iso_or_equiv
_atom_site_adp_type
_atom_site_occupancy
C1     C     0.53263   0.15483   0.64271   0.00000  Uiso   1.00
C2     C     0.51183   0.10194   0.64618   0.00000  Uiso   1.00
C3     C     0.52426   0.06113   0.70815   0.00000  Uiso   1.00
C4     C     0.50115   0.01591   0.69999   0.00000  Uiso   1.00
C5     C     0.47410   0.93441   0.71565   0.00000  Uiso   1.00
C6     C     0.56982   0.16002   0.55687   0.00000  Uiso   1.00
C7     C     0.63100   0.16804   0.54375   0.00000  Uiso   1.00
C8     C     0.65670   0.17172   0.46041   0.00000  Uiso   1.00
C9     C     0.71966   0.18043   0.33742   0.00000  Uiso   1.00
C10    C     0.47297   0.19723   0.63964   0.00000  Uiso   1.00
C11    C     0.45273   0.23657   0.69609   0.00000  Uiso   1.00
C12    C     0.39689   0.27159   0.68242   0.00000  Uiso   1.00
C13    C     0.30948   0.33808   0.68794   0.00000  Uiso   1.00
C14    C     0.46948   0.14710   0.51803   0.00000  Uiso   1.00
C15    C     0.47753   0.09774   0.57846   0.00000  Uiso   1.00
C16    C     0.45439   0.05257   0.57021   0.00000  Uiso   1.00
C17    C     0.46679   0.01170   0.63215   0.00000  Uiso   1.00
C18    C     0.53552   0.15582   0.48915   0.00000  Uiso   1.00
C19    C     0.56113   0.15949   0.40581   0.00000  Uiso   1.00
C20    C     0.62234   0.16752   0.39257   0.00000  Uiso   1.00
C21    C     0.43866   0.19304   0.57192   0.00000  Uiso   1.00
C22    C     0.38285   0.22801   0.55815   0.00000  Uiso   1.00
C23    C     0.36253   0.26738   0.61458   0.00000  Uiso   1.00
H24    H     0.55934   0.15810   0.69543   0.00000  Uiso   1.00
H25    H     0.55082   0.06439   0.76054   0.00000  Uiso   1.00
H26    H     0.65753   0.17130   0.59617   0.00000  Uiso   1.00
H27    H     0.47928   0.23980   0.74849   0.00000  Uiso   1.00
H28    H     0.52626   0.95863   0.80285   0.00000  Uiso   1.00
H29    H     0.75127   0.18407   0.45626   0.00000  Uiso   1.00
H30    H     0.37540   0.32853   0.77746   0.00000  Uiso   1.00
H31    H     0.44277   0.14383   0.46531   0.00000  Uiso   1.00
H32    H     0.42785   0.04934   0.51779   0.00000  Uiso   1.00
H33    H     0.53457   0.15624   0.35342   0.00000  Uiso   1.00
H34    H     0.35632   0.22475   0.50574   0.00000  Uiso   1.00
H35    H     0.42646   0.94642   0.60582   0.00000  Uiso   1.00
H36    H     0.65148   0.17186   0.25923   0.00000  Uiso   1.00
H37    H     0.27560   0.31632   0.58043   0.00000  Uiso   1.00
O38    O     0.46867   0.89061   0.74299   0.00000  Uiso   1.00
O39    O     0.76387   0.18639   0.28829   0.00000  Uiso   1.00
O40    O     0.27073   0.37592   0.70970   0.00000  Uiso   1.00
N41    N     0.50481   0.96873   0.74928   0.00000  Uiso   1.00
N42    N     0.71519   0.17949   0.42525   0.00000  Uiso   1.00
N43    N     0.36379   0.31456   0.72553   0.00000  Uiso   1.00
N44    N     0.45111   0.96216   0.64326   0.00000  Uiso   1.00
N45    N     0.66149   0.17292   0.31923   0.00000  Uiso   1.00
N46    N     0.31008   0.30799   0.61951   0.00000  Uiso   1.00
C47    C     0.53666   0.66693   0.20916   0.00000  Uiso   1.00
C48    C     0.54456   0.63255   0.13404   0.00000  Uiso   1.00
C49    C     0.56796   0.64564   0.05229   0.00000  Uiso   1.00
C50    C     0.57146   0.60883   0.99253   0.00000  Uiso   1.00
C51    C     0.58662   0.56278   0.87263   0.00000  Uiso   1.00
C52    C     0.46772   0.67416   0.24278   0.00000  Uiso   1.00
C53    C     0.42652   0.72222   0.25246   0.00000  Uiso   1.00
C54    C     0.36533   0.72043   0.28425   0.00000  Uiso   1.00
C55    C     0.26120   0.73897   0.33323   0.00000  Uiso   1.00
C56    C     0.57344   0.63335   0.27755   0.00000  Uiso   1.00
C57    C     0.62112   0.64710   0.31649   0.00000  Uiso   1.00
C58    C     0.64893   0.61096   0.37757   0.00000  Uiso   1.00
C59    C     0.70895   0.56614   0.48054   0.00000  Uiso   1.00
C60    C     0.50126   0.57830   0.24840   0.00000  Uiso   1.00
C61    C     0.52533   0.58441   0.15535   0.00000  Uiso   1.00
C62    C     0.52879   0.54757   0.09570   0.00000  Uiso   1.00
C63    C     0.55220   0.56060   0.01388   0.00000  Uiso   1.00
C64    C     0.44849   0.62602   0.26409   0.00000  Uiso   1.00
C65    C     0.38735   0.62415   0.29587   0.00000  Uiso   1.00
C66    C     0.34606   0.67220   0.30560   0.00000  Uiso   1.00
C67    C     0.55421   0.58520   0.29886   0.00000  Uiso   1.00
C68    C     0.58195   0.54904   0.35990   0.00000  Uiso   1.00
C69    C     0.62966   0.56273   0.39892   0.00000  Uiso   1.00
H70    H     0.55163   0.70441   0.19257   0.00000  Uiso   1.00
H71    H     0.58284   0.68290   0.03582   0.00000  Uiso   1.00
H72    H     0.44141   0.75947   0.23597   0.00000  Uiso   1.00
H73    H     0.63598   0.68436   0.29998   0.00000  Uiso   1.00
H74    H     0.60893   0.63782   0.87143   0.00000  Uiso   1.00
H75    H     0.31074   0.79927   0.29349   0.00000  Uiso   1.00
H76    H     0.72103   0.64090   0.42847   0.00000  Uiso   1.00
H77    H     0.48628   0.54082   0.26499   0.00000  Uiso   1.00
H78    H     0.51391   0.51032   0.11221   0.00000  Uiso   1.00
H79    H     0.37248   0.58689   0.31236   0.00000  Uiso   1.00
H80    H     0.56706   0.51179   0.37637   0.00000  Uiso   1.00
H81    H     0.55299   0.49775   0.93343   0.00000  Uiso   1.00
H82    H     0.25479   0.65920   0.35549   0.00000  Uiso   1.00
H83    H     0.66508   0.50083   0.49047   0.00000  Uiso   1.00
O84    O     0.60029   0.55068   0.80061   0.00000  Uiso   1.00
O85    O     0.20908   0.76250   0.35435   0.00000  Uiso   1.00
O86    O     0.74737   0.55472   0.53144   0.00000  Uiso   1.00
N87    N     0.59199   0.60904   0.90699   0.00000  Uiso   1.00
N88    N     0.31319   0.75998   0.30158   0.00000  Uiso   1.00
N89    N     0.69677   0.61192   0.42779   0.00000  Uiso   1.00
N90    N     0.56188   0.53366   0.94035   0.00000  Uiso   1.00
N91    N     0.28309   0.68461   0.33494   0.00000  Uiso   1.00
N92    N     0.66666   0.53655   0.46115   0.00000  Uiso   1.00
C93    C     0.15734   0.41806   0.55455   0.00000  Uiso   1.00
C94    C     0.10487   0.44212   0.49862   0.00000  Uiso   1.00
C95    C     0.04908   0.47557   0.52434   0.00000  Uiso   1.00
C96    C     0.00709   0.49334   0.46363   0.00000  Uiso   1.00
C97    C     0.92356   0.53298   0.38949   0.00000  Uiso   1.00
C98    C     0.16755   0.35837   0.54882   0.00000  Uiso   1.00
C99    C     0.16447   0.32141   0.61674   0.00000  Uiso   1.00
C100   C     0.17525   0.26868   0.59828   0.00000  Uiso   1.00
C101   C     0.18908   0.17830   0.60207   0.00000  Uiso   1.00
C102   C     0.21649   0.43456   0.51097   0.00000  Uiso   1.00
C103   C     0.25457   0.46163   0.54708   0.00000  Uiso   1.00
C104   C     0.30657   0.47303   0.49676   0.00000  Uiso   1.00
C105   C     0.39639   0.50093   0.44179   0.00000  Uiso   1.00
C106   C     0.18199   0.39014   0.40099   0.00000  Uiso   1.00
C107   C     0.11826   0.42695   0.41521   0.00000  Uiso   1.00
C108   C     0.07634   0.44468   0.35444   0.00000  Uiso   1.00
C109   C     0.02050   0.47815   0.38007   0.00000  Uiso   1.00
C110   C     0.18094   0.34321   0.46541   0.00000  Uiso   1.00
C111   C     0.19173   0.29052   0.44684   0.00000  Uiso   1.00
C112   C     0.18866   0.25348   0.51472   0.00000  Uiso   1.00
C113   C     0.22988   0.41939   0.42756   0.00000  Uiso   1.00
C114   C     0.28183   0.43074   0.37718   0.00000  Uiso   1.00
C115   C     0.31998   0.45784   0.41320   0.00000  Uiso   1.00
H116   H     0.14692   0.42987   0.61949   0.00000  Uiso   1.00
H117   H     0.03873   0.48729   0.58890   0.00000  Uiso   1.00
H118   H     0.15411   0.33316   0.68128   0.00000  Uiso   1.00
H119   H     0.24420   0.47336   0.61163   0.00000  Uiso   1.00
H120   H     0.92468   0.54425   0.51821   0.00000  Uiso   1.00
H121   H     0.16798   0.21925   0.71301   0.00000  Uiso   1.00
H122   H     0.35794   0.51490   0.56614   0.00000  Uiso   1.00
H123   H     0.19241   0.37834   0.33605   0.00000  Uiso   1.00
H124   H     0.08671   0.43294   0.28990   0.00000  Uiso   1.00
H125   H     0.20209   0.27880   0.38229   0.00000  Uiso   1.00
H126   H     0.29217   0.41900   0.31263   0.00000  Uiso   1.00
H127   H     0.96362   0.50014   0.27554   0.00000  Uiso   1.00
H128   H     0.20692   0.17513   0.47034   0.00000  Uiso   1.00
H129   H     0.39688   0.47078   0.32346   0.00000  Uiso   1.00
O130   O     0.87379   0.55903   0.37164   0.00000  Uiso   1.00
O131   O     0.19300   0.13264   0.62721   0.00000  Uiso   1.00
O132   O     0.44223   0.52052   0.43451   0.00000  Uiso   1.00
N133   N     0.94835   0.52639   0.46743   0.00000  Uiso   1.00
N134   N     0.17582   0.22253   0.64955   0.00000  Uiso   1.00
N135   N     0.35343   0.49892   0.51224   0.00000  Uiso   1.00
N136   N     0.96931   0.50265   0.33684   0.00000  Uiso   1.00
N137   N     0.19677   0.19879   0.51897   0.00000  Uiso   1.00
N138   N     0.37438   0.47518   0.38166   0.00000  Uiso   1.00
C139   C     0.86239   0.05231   0.70866   0.00000  Uiso   1.00
C140   C     0.86845   0.07273   0.61606   0.00000  Uiso   1.00
C141   C     0.91403   0.09955   0.57828   0.00000  Uiso   1.00
C142   C     0.91155   0.11492   0.49281   0.00000  Uiso   1.00
C143   C     0.92804   0.14828   0.35600   0.00000  Uiso   1.00
C144   C     0.86391   0.99322   0.70799   0.00000  Uiso   1.00
C145   C     0.90567   0.95319   0.74752   0.00000  Uiso   1.00
C146   C     0.89936   0.90163   0.73944   0.00000  Uiso   1.00
C147   C     0.90877   0.81155   0.74541   0.00000  Uiso   1.00
C148   C     0.79624   0.07701   0.74394   0.00000  Uiso   1.00
C149   C     0.78110   0.10742   0.81372   0.00000  Uiso   1.00
C150   C     0.71782   0.12640   0.83591   0.00000  Uiso   1.00
C151   C     0.62217   0.16643   0.89770   0.00000  Uiso   1.00
C152   C     0.77692   0.03193   0.62404   0.00000  Uiso   1.00
C153   C     0.82203   0.06166   0.57010   0.00000  Uiso   1.00
C154   C     0.81947   0.07699   0.48465   0.00000  Uiso   1.00
C155   C     0.86504   0.10383   0.44676   0.00000  Uiso   1.00
C156   C     0.81749   0.98215   0.66203   0.00000  Uiso   1.00
C157   C     0.81111   0.93063   0.65389   0.00000  Uiso   1.00
C158   C     0.85285   0.89053   0.69339   0.00000  Uiso   1.00
C159   C     0.74982   0.06594   0.69798   0.00000  Uiso   1.00
C160   C     0.68655   0.08487   0.72008   0.00000  Uiso   1.00
C161   C     0.67132   0.11531   0.78986   0.00000  Uiso   1.00
H162   H     0.89853   0.06093   0.74445   0.00000  Uiso   1.00
H163   H     0.94995   0.10810   0.61388   0.00000  Uiso   1.00
H164   H     0.94158   0.96177   0.78309   0.00000  Uiso   1.00
H165   H     0.81704   0.11598   0.84927   0.00000  Uiso   1.00
H166   H     0.98650   0.15550   0.44883   0.00000  Uiso   1.00
H167   H     0.96885   0.84695   0.80566   0.00000  Uiso   1.00
H168   H     0.70622   0.17214   0.94521   0.00000  Uiso   1.00
H169   H     0.74078   0.02331   0.58825   0.00000  Uiso   1.00
H170   H     0.78355   0.06842   0.44910   0.00000  Uiso   1.00
H171   H     0.77518   0.92208   0.61832   0.00000  Uiso   1.00
H172   H     0.65064   0.07630   0.68449   0.00000  Uiso   1.00
H173   H     0.85145   0.12329   0.31509   0.00000  Uiso   1.00
H174   H     0.83379   0.81473   0.67192   0.00000  Uiso   1.00
H175   H     0.57116   0.13993   0.81147   0.00000  Uiso   1.00
O176   O     0.94996   0.16974   0.29324   0.00000  Uiso   1.00
O177   O     0.92680   0.76492   0.76139   0.00000  Uiso   1.00
O178   O     0.58224   0.19157   0.94447   0.00000  Uiso   1.00
N179   N     0.94884   0.14174   0.43646   0.00000  Uiso   1.00
N180   N     0.93234   0.85326   0.77006   0.00000  Uiso   1.00
N181   N     0.68681   0.15728   0.90054   0.00000  Uiso   1.00
N182   N     0.87617   0.12441   0.36449   0.00000  Uiso   1.00
N183   N     0.85967   0.83593   0.69809   0.00000  Uiso   1.00
N184   N     0.61413   0.13995   0.82857   0.00000  Uiso   1.00
C185   C     0.04464   0.56623   0.02133   0.00000  Uiso   1.00
C186   C     0.03696   0.52583   0.96090   0.00000  Uiso   1.00
C187   C     0.06324   0.47224   0.96670   0.00000  Uiso   1.00
C188   C     0.05063   0.44190   0.90523   0.00000  Uiso   1.00
C189   C     0.04439   0.37573   0.82130   0.00000  Uiso   1.00
C190   C     0.97842   0.59212   0.05462   0.00000  Uiso   1.00
C191   C     0.95548   0.59427   0.13921   0.00000  Uiso   1.00
C192   C     0.89360   0.61974   0.15662   0.00000  Uiso   1.00
C193   C     0.79650   0.65652   0.21819   0.00000  Uiso   1.00
C194   C     0.07117   0.60913   0.96659   0.00000  Uiso   1.00
C195   C     0.12620   0.62560   0.97718   0.00000  Uiso   1.00
C196   C     0.14239   0.66541   0.92049   0.00000  Uiso   1.00
C197   C     0.18928   0.72861   0.84537   0.00000  Uiso   1.00
C198   C     0.97553   0.60764   0.90184   0.00000  Uiso   1.00
C199   C     0.99942   0.54832   0.89600   0.00000  Uiso   1.00
C200   C     0.98677   0.51805   0.83450   0.00000  Uiso   1.00
C201   C     0.01302   0.46443   0.84021   0.00000  Uiso   1.00
C202   C     0.94089   0.61461   0.98972   0.00000  Uiso   1.00
C203   C     0.87902   0.64008   0.00701   0.00000  Uiso   1.00
C204   C     0.85599   0.64227   0.09160   0.00000  Uiso   1.00
C205   C     0.03363   0.63162   0.90168   0.00000  Uiso   1.00
C206   C     0.04973   0.67141   0.84497   0.00000  Uiso   1.00
C207   C     0.10478   0.68794   0.85547   0.00000  Uiso   1.00
H208   H     0.07386   0.54872   0.07186   0.00000  Uiso   1.00
H209   H     0.09228   0.45485   0.01694   0.00000  Uiso   1.00
H210   H     0.98455   0.57687   0.18942   0.00000  Uiso   1.00
H211   H     0.15523   0.60819   0.02741   0.00000  Uiso   1.00
H212   H     0.09613   0.36068   0.92745   0.00000  Uiso   1.00
H213   H     0.86897   0.61798   0.29113   0.00000  Uiso   1.00
H214   H     0.22890   0.68403   0.94950   0.00000  Uiso   1.00
H215   H     0.94630   0.62516   0.85131   0.00000  Uiso   1.00
H216   H     0.95772   0.53547   0.78428   0.00000  Uiso   1.00
H217   H     0.84999   0.65749   0.95677   0.00000  Uiso   1.00
H218   H     0.02067   0.68881   0.79475   0.00000  Uiso   1.00
H219   H     0.98691   0.42612   0.73862   0.00000  Uiso   1.00
H220   H     0.75976   0.68342   0.10230   0.00000  Uiso   1.00
H221   H     0.11968   0.74947   0.76067   0.00000  Uiso   1.00
O222   O     0.05131   0.33302   0.79294   0.00000  Uiso   1.00
O223   O     0.75330   0.67059   0.27008   0.00000  Uiso   1.00
O224   O     0.22552   0.75725   0.82187   0.00000  Uiso   1.00
N225   N     0.06887   0.38839   0.89220   0.00000  Uiso   1.00
N226   N     0.85649   0.62894   0.23222   0.00000  Uiso   1.00
N227   N     0.19298   0.69071   0.91284   0.00000  Uiso   1.00
N228   N     0.01010   0.42360   0.79059   0.00000  Uiso   1.00
N229   N     0.79772   0.66415   0.13061   0.00000  Uiso   1.00
N230   N     0.13421   0.72592   0.81123   0.00000  Uiso   1.00
C231   C     0.51292   0.06403   0.10521   0.00000  Uiso   1.00
C232   C     0.47804   0.01834   0.11289   0.00000  Uiso   1.00
C233   C     0.45645   0.99405   0.18807   0.00000  Uiso   1.00
C234   C     0.42563   0.95294   0.18165   0.00000  Uiso   1.00
C235   C     0.37280   0.88447   0.20557   0.00000  Uiso   1.00
C236   C     0.47496   0.10808   0.05116   0.00000  Uiso   1.00
C237   C     0.45079   0.15925   0.07443   0.00000  Uiso   1.00
C238   C     0.41739   0.19368   0.01605   0.00000  Uiso   1.00
C239   C     0.35981   0.26455   0.94410   0.00000  Uiso   1.00
C240   C     0.57454   0.04524   0.05215   0.00000  Uiso   1.00
C241   C     0.63410   0.04358   0.07625   0.00000  Uiso   1.00
C242   C     0.68453   0.02512   0.01869   0.00000  Uiso   1.00
C243   C     0.78157   0.99842   0.94829   0.00000  Uiso   1.00
C244   C     0.49657   0.03420   0.96013   0.00000  Uiso   1.00
C245   C     0.46916   0.00213   0.03409   0.00000  Uiso   1.00
C246   C     0.43837   0.96105   0.02756   0.00000  Uiso   1.00
C247   C     0.41674   0.93671   0.10271   0.00000  Uiso   1.00
C248   C     0.46608   0.09188   0.97236   0.00000  Uiso   1.00
C249   C     0.43271   0.12624   0.91392   0.00000  Uiso   1.00
C250   C     0.40849   0.17745   0.93710   0.00000  Uiso   1.00
C251   C     0.56567   0.02903   0.97335   0.00000  Uiso   1.00
C252   C     0.61602   0.01057   0.91574   0.00000  Uiso   1.00
C253   C     0.67564   0.00889   0.93975   0.00000  Uiso   1.00
H254   H     0.51982   0.07665   0.16655   0.00000  Uiso   1.00
H255   H     0.46332   0.00661   0.24904   0.00000  Uiso   1.00
H256   H     0.45767   0.17178   0.13541   0.00000  Uiso   1.00
H257   H     0.64095   0.05613   0.13724   0.00000  Uiso   1.00
H258   H     0.39675   0.92182   0.30573   0.00000  Uiso   1.00
H259   H     0.38485   0.27010   0.06614   0.00000  Uiso   1.00
H260   H     0.77133   0.02622   0.06998   0.00000  Uiso   1.00
H261   H     0.48966   0.02158   0.89878   0.00000  Uiso   1.00
H262   H     0.43151   0.94851   0.96657   0.00000  Uiso   1.00
H263   H     0.42585   0.11369   0.85295   0.00000  Uiso   1.00
H264   H     0.60913   0.99804   0.85477   0.00000  Uiso   1.00
H265   H     0.37092   0.87467   0.07647   0.00000  Uiso   1.00
H266   H     0.35902   0.22295   0.83688   0.00000  Uiso   1.00
H267   H     0.74550   0.97908   0.84072   0.00000  Uiso   1.00
O268   O     0.34610   0.85119   0.24053   0.00000  Uiso   1.00
O269   O     0.33051   0.30812   0.92619   0.00000  Uiso   1.00
O270   O     0.83755   0.98816   0.93123   0.00000  Uiso   1.00
N271   N     0.39866   0.92075   0.24247   0.00000  Uiso   1.00
N272   N     0.38753   0.24636   0.01848   0.00000  Uiso   1.00
N273   N     0.74885   0.01837   0.02206   0.00000  Uiso   1.00
N274   N     0.38477   0.89537   0.11911   0.00000  Uiso   1.00
N275   N     0.37363   0.22099   0.89511   0.00000  Uiso   1.00
N276   N     0.73496   0.99300   0.89869   0.00000  Uiso   1.00
C277   C     0.42214   0.76855   0.47146   0.00000  Uiso   1.00
C278   C     0.47178   0.80228   0.44913   0.00000  Uiso   1.00
C279   C     0.48949   0.82204   0.36846   0.00000  Uiso   1.00
C280   C     0.53577   0.85206   0.36127   0.00000  Uiso   1.00
C281   C     0.60863   0.90297   0.31581   0.00000  Uiso   1.00
C282   C     0.37463   0.79778   0.53711   0.00000  Uiso   1.00
C283   C     0.31065   0.81375   0.53042   0.00000  Uiso   1.00
C284   C     0.27515   0.83998   0.59730   0.00000  Uiso   1.00
C285   C     0.19717   0.88387   0.68846   0.00000  Uiso   1.00
C286   C     0.45476   0.71804   0.51769   0.00000  Uiso   1.00
C287   C     0.45816   0.66695   0.49468   0.00000  Uiso   1.00
C288   C     0.49012   0.62604   0.54522   0.00000  Uiso   1.00
C289   C     0.53657   0.54611   0.60622   0.00000  Uiso   1.00
C290   C     0.47285   0.78673   0.60214   0.00000  Uiso   1.00
C291   C     0.49932   0.81216   0.52011   0.00000  Uiso   1.00
C292   C     0.54559   0.84216   0.51304   0.00000  Uiso   1.00
C293   C     0.56337   0.86196   0.43237   0.00000  Uiso   1.00
C294   C     0.40216   0.80766   0.60809   0.00000  Uiso   1.00
C295   C     0.36675   0.83387   0.67500   0.00000  Uiso   1.00
C296   C     0.30274   0.84988   0.66841   0.00000  Uiso   1.00
C297   C     0.48231   0.72792   0.58867   0.00000  Uiso   1.00
C298   C     0.51426   0.68708   0.63926   0.00000  Uiso   1.00
C299   C     0.51771   0.63594   0.61633   0.00000  Uiso   1.00
H300   H     0.40070   0.76086   0.41620   0.00000  Uiso   1.00
H301   H     0.46816   0.81439   0.31355   0.00000  Uiso   1.00
H302   H     0.28935   0.80610   0.47549   0.00000  Uiso   1.00
H303   H     0.43684   0.65933   0.43975   0.00000  Uiso   1.00
H304   H     0.55508   0.87811   0.23104   0.00000  Uiso   1.00
H305   H     0.17805   0.86061   0.57251   0.00000  Uiso   1.00
H306   H     0.48906   0.55111   0.49715   0.00000  Uiso   1.00
H307   H     0.49429   0.79442   0.65740   0.00000  Uiso   1.00
H308   H     0.56689   0.84980   0.56798   0.00000  Uiso   1.00
H309   H     0.38808   0.84151   0.72992   0.00000  Uiso   1.00
H310   H     0.53557   0.69473   0.69418   0.00000  Uiso   1.00
H311   H     0.63522   0.90685   0.43755   0.00000  Uiso   1.00
H312   H     0.25818   0.88935   0.77902   0.00000  Uiso   1.00
H313   H     0.56919   0.57985   0.70366   0.00000  Uiso   1.00
O314   O     0.64121   0.92832   0.27112   0.00000  Uiso   1.00
O315   O     0.14655   0.90535   0.71913   0.00000  Uiso   1.00
O316   O     0.55459   0.49930   0.62025   0.00000  Uiso   1.00
N317   N     0.56399   0.87727   0.29191   0.00000  Uiso   1.00
N318   N     0.21148   0.86092   0.61116   0.00000  Uiso   1.00
N319   N     0.50224   0.57156   0.54072   0.00000  Uiso   1.00
N320   N     0.60711   0.89273   0.40303   0.00000  Uiso   1.00
N321   N     0.25461   0.87638   0.72228   0.00000  Uiso   1.00
N322   N     0.54536   0.58702   0.65184   0.00000  Uiso   1.00
C323   C     0.28580   0.47612   0.93250   0.00000  Uiso   1.00
C324   C     0.27814   0.51218   0.00542   0.00000  Uiso   1.00
C325   C     0.25627   0.50030   0.08838   0.00000  Uiso   1.00
C326   C     0.25273   0.53857   0.14572   0.00000  Uiso   1.00
C327   C     0.23818   0.58719   0.26273   0.00000  Uiso   1.00
C328   C     0.35425   0.46957   0.89679   0.00000  Uiso   1.00
C329   C     0.39637   0.42186   0.88842   0.00000  Uiso   1.00
C330   C     0.45690   0.42426   0.85430   0.00000  Uiso   1.00
C331   C     0.56050   0.40672   0.80262   0.00000  Uiso   1.00
C332   C     0.24735   0.50766   0.86395   0.00000  Uiso   1.00
C333   C     0.19958   0.49197   0.82795   0.00000  Uiso   1.00
C334   C     0.17011   0.52644   0.76616   0.00000  Uiso   1.00
C335   C     0.10772   0.56804   0.66348   0.00000  Uiso   1.00
C336   C     0.31840   0.56522   0.88677   0.00000  Uiso   1.00
C337   C     0.29585   0.56058   0.98058   0.00000  Uiso   1.00
C338   C     0.29234   0.59887   0.03780   0.00000  Uiso   1.00
C339   C     0.27047   0.58705   0.12084   0.00000  Uiso   1.00
C340   C     0.37196   0.51796   0.87196   0.00000  Uiso   1.00
C341   C     0.43244   0.52043   0.83784   0.00000  Uiso   1.00
C342   C     0.47464   0.47274   0.82942   0.00000  Uiso   1.00
C343   C     0.26505   0.55606   0.83911   0.00000  Uiso   1.00
C344   C     0.23566   0.59055   0.77736   0.00000  Uiso   1.00
C345   C     0.18786   0.57491   0.74128   0.00000  Uiso   1.00
H346   H     0.27201   0.43844   0.95183   0.00000  Uiso   1.00
H347   H     0.24258   0.46284   0.10758   0.00000  Uiso   1.00
H348   H     0.38265   0.38442   0.90764   0.00000  Uiso   1.00
H349   H     0.18589   0.45452   0.84718   0.00000  Uiso   1.00
H350   H     0.21777   0.51122   0.26932   0.00000  Uiso   1.00
H351   H     0.51312   0.34586   0.84770   0.00000  Uiso   1.00
H352   H     0.09822   0.49368   0.72021   0.00000  Uiso   1.00
H353   H     0.33219   0.60289   0.86743   0.00000  Uiso   1.00
H354   H     0.30605   0.63632   0.01856   0.00000  Uiso   1.00
H355   H     0.44613   0.55789   0.81862   0.00000  Uiso   1.00
H356   H     0.24937   0.62799   0.75816   0.00000  Uiso   1.00
H357   H     0.26930   0.65202   0.19706   0.00000  Uiso   1.00
H358   H     0.56464   0.48666   0.77545   0.00000  Uiso   1.00
H359   H     0.14974   0.63448   0.64795   0.00000  Uiso   1.00
O360   O     0.22527   0.60064   0.33413   0.00000  Uiso   1.00
O361   O     0.61275   0.38368   0.78098   0.00000  Uiso   1.00
O362   O     0.06841   0.57763   0.61371   0.00000  Uiso   1.00
N363   N     0.23347   0.53978   0.23157   0.00000  Uiso   1.00
N364   N     0.50961   0.38517   0.83740   0.00000  Uiso   1.00
N365   N     0.12172   0.52337   0.71818   0.00000  Uiso   1.00
N366   N     0.26120   0.61554   0.19269   0.00000  Uiso   1.00
N367   N     0.53733   0.46093   0.79852   0.00000  Uiso   1.00
N368   N     0.14945   0.59913   0.67931   0.00000  Uiso   1.00
C369   C     0.78011   0.34368   0.31088   0.00000  Uiso   1.00
C370   C     0.84817   0.33154   0.33216   0.00000  Uiso   1.00
C371   C     0.89444   0.29020   0.30288   0.00000  Uiso   1.00
C372   C     0.95379   0.28582   0.32963   0.00000  Uiso   1.00
C373   C     0.05757   0.26156   0.35442   0.00000  Uiso   1.00
C374   C     0.76783   0.40059   0.27325   0.00000  Uiso   1.00
C375   C     0.74655   0.41732   0.19445   0.00000  Uiso   1.00
C376   C     0.73826   0.47107   0.17161   0.00000  Uiso   1.00
C377   C     0.71726   0.55402   0.10497   0.00000  Uiso   1.00
C378   C     0.74018   0.34395   0.39545   0.00000  Uiso   1.00
C379   C     0.69563   0.31305   0.41938   0.00000  Uiso   1.00
C380   C     0.66405   0.31913   0.49942   0.00000  Uiso   1.00
C381   C     0.60013   0.31413   0.62250   0.00000  Uiso   1.00
C382   C     0.80323   0.40941   0.41045   0.00000  Uiso   1.00
C383   C     0.86072   0.36724   0.38625   0.00000  Uiso   1.00
C384   C     0.92002   0.36293   0.41305   0.00000  Uiso   1.00
C385   C     0.96637   0.32159   0.38382   0.00000  Uiso   1.00
C386   C     0.78039   0.43630   0.32733   0.00000  Uiso   1.00
C387   C     0.77213   0.49004   0.30461   0.00000  Uiso   1.00
C388   C     0.75084   0.50684   0.22579   0.00000  Uiso   1.00
C389   C     0.75274   0.37965   0.44953   0.00000  Uiso   1.00
C390   C     0.72122   0.38578   0.52955   0.00000  Uiso   1.00
C391   C     0.67663   0.35490   0.55360   0.00000  Uiso   1.00
H392   H     0.77033   0.31588   0.26877   0.00000  Uiso   1.00
H393   H     0.88470   0.26258   0.26102   0.00000  Uiso   1.00
H394   H     0.73683   0.38968   0.15261   0.00000  Uiso   1.00
H395   H     0.68593   0.28543   0.37751   0.00000  Uiso   1.00
H396   H     0.01705   0.21924   0.27626   0.00000  Uiso   1.00
H397   H     0.70522   0.48723   0.04768   0.00000  Uiso   1.00
H398   H     0.59789   0.26741   0.52192   0.00000  Uiso   1.00
H399   H     0.81300   0.43721   0.45256   0.00000  Uiso   1.00
H400   H     0.92972   0.39056   0.45490   0.00000  Uiso   1.00
H401   H     0.78185   0.51766   0.34649   0.00000  Uiso   1.00
H402   H     0.73095   0.41342   0.57139   0.00000  Uiso   1.00
H403   H     0.05359   0.32312   0.43362   0.00000  Uiso   1.00
H404   H     0.74176   0.59112   0.20504   0.00000  Uiso   1.00
H405   H     0.63443   0.37129   0.67928   0.00000  Uiso   1.00
O406   O     0.11134   0.23831   0.35315   0.00000  Uiso   1.00
O407   O     0.70222   0.58991   0.05326   0.00000  Uiso   1.00
O408   O     0.56140   0.30151   0.67546   0.00000  Uiso   1.00
N409   N     0.00963   0.25008   0.31299   0.00000  Uiso   1.00
N410   N     0.71810   0.50064   0.09927   0.00000  Uiso   1.00
N411   N     0.61774   0.29513   0.54264   0.00000  Uiso   1.00
N412   N     0.02929   0.30598   0.39766   0.00000  Uiso   1.00
N413   N     0.73776   0.55654   0.18394   0.00000  Uiso   1.00
N414   N     0.63740   0.35103   0.62731   0.00000  Uiso   1.00
C415   C     0.88109   0.74861   0.34390   0.00000  Uiso   1.00
C416   C     0.88378   0.71551   0.42784   0.00000  Uiso   1.00
C417   C     0.85389   0.67335   0.45019   0.00000  Uiso   1.00
C418   C     0.86217   0.64817   0.52990   0.00000  Uiso   1.00
C419   C     0.86072   0.59429   0.65183   0.00000  Uiso   1.00
C420   C     0.85700   0.80577   0.36637   0.00000  Uiso   1.00
C421   C     0.80461   0.83950   0.33702   0.00000  Uiso   1.00
C422   C     0.79036   0.89031   0.36498   0.00000  Uiso   1.00
C423   C     0.74737   0.97657   0.39143   0.00000  Uiso   1.00
C424   C     0.94898   0.74530   0.30727   0.00000  Uiso   1.00
C425   C     0.97391   0.72820   0.22823   0.00000  Uiso   1.00
C426   C     0.03710   0.72811   0.20643   0.00000  Uiso   1.00
C427   C     0.13691   0.72048   0.14112   0.00000  Uiso   1.00
C428   C     0.94895   0.77888   0.44571   0.00000  Uiso   1.00
C429   C     0.92064   0.73195   0.48313   0.00000  Uiso   1.00
C430   C     0.92897   0.70683   0.56283   0.00000  Uiso   1.00
C431   C     0.89910   0.66464   0.58530   0.00000  Uiso   1.00
C432   C     0.89386   0.82221   0.42166   0.00000  Uiso   1.00
C433   C     0.87969   0.87299   0.44967   0.00000  Uiso   1.00
C434   C     0.82729   0.90678   0.42038   0.00000  Uiso   1.00
C435   C     0.98584   0.76174   0.36257   0.00000  Uiso   1.00
C436   C     0.04900   0.76168   0.34088   0.00000  Uiso   1.00
C437   C     0.07402   0.74458   0.26182   0.00000  Uiso   1.00
H438   H     0.85239   0.73582   0.30085   0.00000  Uiso   1.00
H439   H     0.82536   0.66064   0.40738   0.00000  Uiso   1.00
H440   H     0.77610   0.82677   0.29422   0.00000  Uiso   1.00
H441   H     0.94538   0.71548   0.18545   0.00000  Uiso   1.00
H442   H     0.81164   0.58455   0.54989   0.00000  Uiso   1.00
H443   H     0.70777   0.93485   0.31127   0.00000  Uiso   1.00
H444   H     0.06473   0.70018   0.08191   0.00000  Uiso   1.00
H445   H     0.97765   0.79168   0.48877   0.00000  Uiso   1.00
H446   H     0.95750   0.71957   0.60561   0.00000  Uiso   1.00
H447   H     0.90823   0.88570   0.49246   0.00000  Uiso   1.00
H448   H     0.07751   0.77441   0.38369   0.00000  Uiso   1.00
H449   H     0.91888   0.63238   0.71078   0.00000  Uiso   1.00
H450   H     0.81501   0.98268   0.47217   0.00000  Uiso   1.00
H451   H     0.17197   0.74801   0.24280   0.00000  Uiso   1.00
O452   O     0.84973   0.56003   0.70382   0.00000  Uiso   1.00
O453   O     0.71346   0.01961   0.39075   0.00000  Uiso   1.00
O454   O     0.18178   0.71172   0.08984   0.00000  Uiso   1.00
N455   N     0.83966   0.60570   0.57171   0.00000  Uiso   1.00
N456   N     0.74254   0.93321   0.34863   0.00000  Uiso   1.00
N457   N     0.07626   0.71382   0.13419   0.00000  Uiso   1.00
N458   N     0.89736   0.63143   0.65829   0.00000  Uiso   1.00
N459   N     0.80024   0.95894   0.43521   0.00000  Uiso   1.00
N460   N     0.13396   0.73955   0.22076   0.00000  Uiso   1.00
C461   C     0.76288   0.34394   0.80922   0.00000  Uiso   1.00
C462   C     0.77644   0.39569   0.83443   0.00000  Uiso   1.00
C463   C     0.74474   0.44603   0.81043   0.00000  Uiso   1.00
C464   C     0.76426   0.48831   0.84012   0.00000  Uiso   1.00
C465   C     0.77783   0.56985   0.87135   0.00000  Uiso   1.00
C466   C     0.82439   0.31431   0.76680   0.00000  Uiso   1.00
C467   C     0.83300   0.29622   0.68593   0.00000  Uiso   1.00
C468   C     0.89288   0.26999   0.65869   0.00000  Uiso   1.00
C469   C     0.98088   0.22515   0.58495   0.00000  Uiso   1.00
C470   C     0.75017   0.31195   0.89180   0.00000  Uiso   1.00
C471   C     0.69638   0.29186   0.91603   0.00000  Uiso   1.00
C472   C     0.69377   0.26363   0.99403   0.00000  Uiso   1.00
C473   C     0.66653   0.21512   0.11437   0.00000  Uiso   1.00
C474   C     0.85390   0.32951   0.90464   0.00000  Uiso   1.00
C475   C     0.82589   0.38785   0.88626   0.00000  Uiso   1.00
C476   C     0.84545   0.43006   0.91600   0.00000  Uiso   1.00
C477   C     0.81379   0.48046   0.89204   0.00000  Uiso   1.00
C478   C     0.87383   0.30647   0.81862   0.00000  Uiso   1.00
C479   C     0.93371   0.28025   0.79150   0.00000  Uiso   1.00
C480   C     0.94241   0.26213   0.71061   0.00000  Uiso   1.00
C481   C     0.79961   0.30411   0.94363   0.00000  Uiso   1.00
C482   C     0.79709   0.27590   0.02161   0.00000  Uiso   1.00
C483   C     0.74331   0.25577   0.04595   0.00000  Uiso   1.00
H484   H     0.72439   0.35005   0.76886   0.00000  Uiso   1.00
H485   H     0.70649   0.45208   0.77031   0.00000  Uiso   1.00
H486   H     0.79473   0.30229   0.64584   0.00000  Uiso   1.00
H487   H     0.65813   0.29794   0.87591   0.00000  Uiso   1.00
H488   H     0.70846   0.56175   0.79475   0.00000  Uiso   1.00
H489   H     0.89452   0.24589   0.53230   0.00000  Uiso   1.00
H490   H     0.60648   0.23670   0.01744   0.00000  Uiso   1.00
H491   H     0.89240   0.32341   0.94499   0.00000  Uiso   1.00
H492   H     0.88372   0.42398   0.95611   0.00000  Uiso   1.00
H493   H     0.97196   0.27419   0.83163   0.00000  Uiso   1.00
H494   H     0.83536   0.26984   0.06170   0.00000  Uiso   1.00
H495   H     0.85231   0.53894   0.94554   0.00000  Uiso   1.00
H496   H     0.03837   0.22308   0.68310   0.00000  Uiso   1.00
H497   H     0.75032   0.21390   0.16824   0.00000  Uiso   1.00
O498   O     0.77166   0.61699   0.87426   0.00000  Uiso   1.00
O499   O     0.01576   0.20259   0.52995   0.00000  Uiso   1.00
O500   O     0.63785   0.19054   0.16644   0.00000  Uiso   1.00
N501   N     0.74350   0.54258   0.82873   0.00000  Uiso   1.00
N502   N     0.91746   0.24728   0.58335   0.00000  Uiso   1.00
N503   N     0.64816   0.23868   0.03691   0.00000  Uiso   1.00
N504   N     0.82090   0.53031   0.90987   0.00000  Uiso   1.00
N505   N     0.99486   0.23500   0.66449   0.00000  Uiso   1.00
N506   N     0.72557   0.22641   0.11805   0.00000  Uiso   1.00
C507   C     0.13665   0.96912   0.92229   0.00000  Uiso   1.00
C508   C     0.17153   0.01483   0.91414   0.00000  Uiso   1.00
C509   C     0.18741   0.04246   0.83920   0.00000  Uiso   1.00
C510   C     0.21930   0.08296   0.84510   0.00000  Uiso   1.00
C511   C     0.27113   0.15203   0.82056   0.00000  Uiso   1.00
C512   C     0.17876   0.92287   0.96682   0.00000  Uiso   1.00
C513   C     0.20072   0.87319   0.93619   0.00000  Uiso   1.00
C514   C     0.23869   0.83628   0.98645   0.00000  Uiso   1.00
C515   C     0.30172   0.76257   0.04374   0.00000  Uiso   1.00
C516   C     0.07913   0.98527   0.98440   0.00000  Uiso   1.00
C517   C     0.01731   0.98804   0.96856   0.00000  Uiso   1.00
C518   C     0.97141   0.00366   0.03362   0.00000  Uiso   1.00
C519   C     0.87974   0.02684   0.11820   0.00000  Uiso   1.00
C520   C     0.16505   0.99190   0.06602   0.00000  Uiso   1.00
C521   C     0.18695   0.02720   0.99220   0.00000  Uiso   1.00
C522   C     0.21882   0.06767   0.99822   0.00000  Uiso   1.00
C523   C     0.23475   0.09536   0.92330   0.00000  Uiso   1.00
C524   C     0.19419   0.93524   0.04489   0.00000  Uiso   1.00
C525   C     0.23213   0.89839   0.09521   0.00000  Uiso   1.00
C526   C     0.25414   0.84867   0.06466   0.00000  Uiso   1.00
C527   C     0.09455   0.99765   0.06247   0.00000  Uiso   1.00
C528   C     0.04873   0.01325   0.12757   0.00000  Uiso   1.00
C529   C     0.98686   0.01605   0.11183   0.00000  Uiso   1.00
H530   H     0.12465   0.95949   0.86151   0.00000  Uiso   1.00
H531   H     0.17547   0.03287   0.77880   0.00000  Uiso   1.00
H532   H     0.18877   0.86363   0.87578   0.00000  Uiso   1.00
H533   H     0.00540   0.97847   0.90814   0.00000  Uiso   1.00
H534   H     0.23863   0.11968   0.72152   0.00000  Uiso   1.00
H535   H     0.26667   0.76281   0.92602   0.00000  Uiso   1.00
H536   H     0.87999   0.00497   0.99426   0.00000  Uiso   1.00
H537   H     0.17705   0.00154   0.12680   0.00000  Uiso   1.00
H538   H     0.23075   0.07723   0.05864   0.00000  Uiso   1.00
H539   H     0.24406   0.90798   0.15562   0.00000  Uiso   1.00
H540   H     0.06068   0.02282   0.18798   0.00000  Uiso   1.00
H541   H     0.28351   0.15568   0.94865   0.00000  Uiso   1.00
H542   H     0.31154   0.79881   0.15315   0.00000  Uiso   1.00
H543   H     0.92486   0.04097   0.22139   0.00000  Uiso   1.00
O544   O     0.29547   0.18670   0.78545   0.00000  Uiso   1.00
O545   O     0.33223   0.71850   0.05376   0.00000  Uiso   1.00
O546   O     0.82492   0.03621   0.14329   0.00000  Uiso   1.00
N547   N     0.24182   0.11777   0.78433   0.00000  Uiso   1.00
N548   N     0.26803   0.78412   0.97552   0.00000  Uiso   1.00
N549   N     0.90652   0.01051   0.03932   0.00000  Uiso   1.00
N550   N     0.26596   0.13714   0.90654   0.00000  Uiso   1.00
N551   N     0.29218   0.80349   0.09773   0.00000  Uiso   1.00
N552   N     0.93067   0.02988   0.16154   0.00000  Uiso   1.00
