data_job_01126
_audit_creation_date              2018-12-19
_audit_creation_method            'Materials Studio'
_symmetry_space_group_name_H-M    'P1'
_symmetry_Int_Tables_number       1
_symmetry_cell_setting            triclinic
loop_
_symmetry_equiv_pos_as_xyz
  x,y,z
_cell_length_a                    24.1420
_cell_length_b                    17.1541
_cell_length_c                    12.4489
_cell_angle_alpha                 90.0000
_cell_angle_beta                  90.0000
_cell_angle_gamma                 90.0000
loop_
_atom_site_label
_atom_site_type_symbol
_atom_site_fract_x
_atom_site_fract_y
_atom_site_fract_z
_atom_site_U_iso_or_equiv
_atom_site_adp_type
_atom_site_occupancy
C1     C     0.84355   0.17459   0.52452   0.00000  Uiso   1.00
C2     C     0.85396   0.10815   0.44569   0.00000  Uiso   1.00
C3     C     0.82386   0.09359   0.35287   0.00000  Uiso   1.00
C4     C     0.83991   0.02990   0.29149   0.00000  Uiso   1.00
C5     C     0.84928   0.93391   0.16448   0.00000  Uiso   1.00
C6     C     0.83496   0.13643   0.63390   0.00000  Uiso   1.00
C7     C     0.78888   0.14566   0.69932   0.00000  Uiso   1.00
C8     C     0.78893   0.10579   0.79638   0.00000  Uiso   1.00
C9     C     0.76882   0.05376   0.96160   0.00000  Uiso   1.00
C10    C     0.89794   0.21943   0.53240   0.00000  Uiso   1.00
C11    C     0.90481   0.29844   0.51251   0.00000  Uiso   1.00
C12    C     0.95788   0.32845   0.52413   0.00000  Uiso   1.00
C13    C     0.03555   0.40528   0.53176   0.00000  Uiso   1.00
C14    C     0.92559   0.08738   0.58057   0.00000  Uiso   1.00
C15    C     0.89852   0.06078   0.47614   0.00000  Uiso   1.00
C16    C     0.91463   0.99710   0.41488   0.00000  Uiso   1.00
C17    C     0.88455   0.98244   0.32198   0.00000  Uiso   1.00
C18    C     0.87952   0.08907   0.66434   0.00000  Uiso   1.00
C19    C     0.87964   0.04918   0.76133   0.00000  Uiso   1.00
C20    C     0.83357   0.05834   0.82688   0.00000  Uiso   1.00
C21    C     0.94250   0.17206   0.56284   0.00000  Uiso   1.00
C22    C     0.99557   0.20195   0.57451   0.00000  Uiso   1.00
C23    C     0.00252   0.28100   0.55463   0.00000  Uiso   1.00
H24    H     0.80885   0.21147   0.50083   0.00000  Uiso   1.00
H25    H     0.78937   0.13025   0.32934   0.00000  Uiso   1.00
H26    H     0.75440   0.18233   0.67575   0.00000  Uiso   1.00
H27    H     0.87031   0.33508   0.48895   0.00000  Uiso   1.00
H28    H     0.78741   0.01930   0.15267   0.00000  Uiso   1.00
H29    H     0.71368   0.12913   0.88309   0.00000  Uiso   1.00
H30    H     0.95810   0.45124   0.48920   0.00000  Uiso   1.00
H31    H     0.96028   0.05050   0.60427   0.00000  Uiso   1.00
H32    H     0.94911   0.96045   0.43846   0.00000  Uiso   1.00
H33    H     0.91414   0.01253   0.78486   0.00000  Uiso   1.00
H34    H     0.03005   0.16528   0.59807   0.00000  Uiso   1.00
H35    H     0.91706   0.88148   0.24123   0.00000  Uiso   1.00
H36    H     0.84333   0.99131   0.97166   0.00000  Uiso   1.00
H37    H     0.08775   0.31342   0.57776   0.00000  Uiso   1.00
O38    O     0.84214   0.89404   0.08602   0.00000  Uiso   1.00
O39    O     0.74541   0.03814   0.04432   0.00000  Uiso   1.00
O40    O     0.06609   0.46074   0.52754   0.00000  Uiso   1.00
N41    N     0.81946   0.99923   0.19626   0.00000  Uiso   1.00
N42    N     0.75053   0.10190   0.87915   0.00000  Uiso   1.00
N43    N     0.97904   0.40306   0.51092   0.00000  Uiso   1.00
N44    N     0.88923   0.92508   0.24391   0.00000  Uiso   1.00
N45    N     0.82029   0.02774   0.92680   0.00000  Uiso   1.00
N46    N     0.04880   0.32890   0.55858   0.00000  Uiso   1.00
C47    C     0.65645   0.82541   0.02452   0.00000  Uiso   1.00
C48    C     0.64604   0.89185   0.94569   0.00000  Uiso   1.00
C49    C     0.67614   0.90641   0.85287   0.00000  Uiso   1.00
C50    C     0.66009   0.97010   0.79149   0.00000  Uiso   1.00
C51    C     0.65072   0.06609   0.66448   0.00000  Uiso   1.00
C52    C     0.66504   0.86357   0.13390   0.00000  Uiso   1.00
C53    C     0.71112   0.85434   0.19932   0.00000  Uiso   1.00
C54    C     0.71107   0.89421   0.29638   0.00000  Uiso   1.00
C55    C     0.73118   0.94624   0.46160   0.00000  Uiso   1.00
C56    C     0.60206   0.78057   0.03240   0.00000  Uiso   1.00
C57    C     0.59519   0.70156   0.01251   0.00000  Uiso   1.00
C58    C     0.54212   0.67155   0.02413   0.00000  Uiso   1.00
C59    C     0.46445   0.59472   0.03176   0.00000  Uiso   1.00
C60    C     0.57441   0.91262   0.08057   0.00000  Uiso   1.00
C61    C     0.60148   0.93922   0.97614   0.00000  Uiso   1.00
C62    C     0.58537   0.00290   0.91488   0.00000  Uiso   1.00
C63    C     0.61545   0.01756   0.82198   0.00000  Uiso   1.00
C64    C     0.62048   0.91093   0.16434   0.00000  Uiso   1.00
C65    C     0.62036   0.95082   0.26133   0.00000  Uiso   1.00
C66    C     0.66643   0.94166   0.32688   0.00000  Uiso   1.00
C67    C     0.55750   0.82794   0.06284   0.00000  Uiso   1.00
C68    C     0.50443   0.79805   0.07451   0.00000  Uiso   1.00
C69    C     0.49748   0.71900   0.05463   0.00000  Uiso   1.00
H70    H     0.69115   0.78853   0.00083   0.00000  Uiso   1.00
H71    H     0.71063   0.86975   0.82934   0.00000  Uiso   1.00
H72    H     0.74560   0.81767   0.17575   0.00000  Uiso   1.00
H73    H     0.62969   0.66492   0.98895   0.00000  Uiso   1.00
H74    H     0.71259   0.98070   0.65267   0.00000  Uiso   1.00
H75    H     0.78632   0.87087   0.38309   0.00000  Uiso   1.00
H76    H     0.54190   0.54876   0.98920   0.00000  Uiso   1.00
H77    H     0.53972   0.94950   0.10427   0.00000  Uiso   1.00
H78    H     0.55089   0.03955   0.93846   0.00000  Uiso   1.00
H79    H     0.58586   0.98747   0.28486   0.00000  Uiso   1.00
H80    H     0.46995   0.83472   0.09807   0.00000  Uiso   1.00
H81    H     0.58294   0.11852   0.74123   0.00000  Uiso   1.00
H82    H     0.65667   0.00869   0.47166   0.00000  Uiso   1.00
H83    H     0.41225   0.68658   0.07776   0.00000  Uiso   1.00
O84    O     0.65786   0.10596   0.58602   0.00000  Uiso   1.00
O85    O     0.75459   0.96186   0.54432   0.00000  Uiso   1.00
O86    O     0.43391   0.53926   0.02754   0.00000  Uiso   1.00
N87    N     0.68054   0.00077   0.69626   0.00000  Uiso   1.00
N88    N     0.74947   0.89810   0.37915   0.00000  Uiso   1.00
N89    N     0.52096   0.59694   0.01092   0.00000  Uiso   1.00
N90    N     0.61077   0.07492   0.74391   0.00000  Uiso   1.00
N91    N     0.67971   0.97226   0.42680   0.00000  Uiso   1.00
N92    N     0.45120   0.67110   0.05858   0.00000  Uiso   1.00
C93    C     0.15645   0.67459   0.97548   0.00000  Uiso   1.00
C94    C     0.14604   0.60815   0.05431   0.00000  Uiso   1.00
C95    C     0.17614   0.59359   0.14713   0.00000  Uiso   1.00
C96    C     0.16009   0.52990   0.20851   0.00000  Uiso   1.00
C97    C     0.15072   0.43391   0.33552   0.00000  Uiso   1.00
C98    C     0.16504   0.63643   0.86610   0.00000  Uiso   1.00
C99    C     0.21112   0.64566   0.80068   0.00000  Uiso   1.00
C100   C     0.21107   0.60579   0.70362   0.00000  Uiso   1.00
C101   C     0.23118   0.55376   0.53840   0.00000  Uiso   1.00
C102   C     0.10206   0.71943   0.96760   0.00000  Uiso   1.00
C103   C     0.09519   0.79844   0.98749   0.00000  Uiso   1.00
C104   C     0.04212   0.82845   0.97587   0.00000  Uiso   1.00
C105   C     0.96445   0.90528   0.96824   0.00000  Uiso   1.00
C106   C     0.07441   0.58738   0.91943   0.00000  Uiso   1.00
C107   C     0.10148   0.56078   0.02386   0.00000  Uiso   1.00
C108   C     0.08537   0.49710   0.08512   0.00000  Uiso   1.00
C109   C     0.11545   0.48244   0.17802   0.00000  Uiso   1.00
C110   C     0.12048   0.58907   0.83566   0.00000  Uiso   1.00
C111   C     0.12036   0.54918   0.73867   0.00000  Uiso   1.00
C112   C     0.16643   0.55834   0.67312   0.00000  Uiso   1.00
C113   C     0.05750   0.67206   0.93716   0.00000  Uiso   1.00
C114   C     0.00443   0.70195   0.92549   0.00000  Uiso   1.00
C115   C     0.99748   0.78100   0.94537   0.00000  Uiso   1.00
H116   H     0.19115   0.71147   0.99917   0.00000  Uiso   1.00
H117   H     0.21063   0.63025   0.17066   0.00000  Uiso   1.00
H118   H     0.24560   0.68233   0.82425   0.00000  Uiso   1.00
H119   H     0.12969   0.83508   0.01105   0.00000  Uiso   1.00
H120   H     0.21259   0.51930   0.34733   0.00000  Uiso   1.00
H121   H     0.28632   0.62913   0.61691   0.00000  Uiso   1.00
H122   H     0.04190   0.95124   0.01080   0.00000  Uiso   1.00
H123   H     0.03972   0.55050   0.89573   0.00000  Uiso   1.00
H124   H     0.05089   0.46045   0.06154   0.00000  Uiso   1.00
H125   H     0.08586   0.51253   0.71514   0.00000  Uiso   1.00
H126   H     0.96995   0.66528   0.90193   0.00000  Uiso   1.00
H127   H     0.08294   0.38148   0.25877   0.00000  Uiso   1.00
H128   H     0.15667   0.49131   0.52834   0.00000  Uiso   1.00
H129   H     0.91225   0.81342   0.92224   0.00000  Uiso   1.00
O130   O     0.15786   0.39404   0.41398   0.00000  Uiso   1.00
O131   O     0.25459   0.53814   0.45568   0.00000  Uiso   1.00
O132   O     0.93391   0.96074   0.97246   0.00000  Uiso   1.00
N133   N     0.18054   0.49923   0.30374   0.00000  Uiso   1.00
N134   N     0.24947   0.60190   0.62085   0.00000  Uiso   1.00
N135   N     0.02096   0.90306   0.98908   0.00000  Uiso   1.00
N136   N     0.11077   0.42508   0.25609   0.00000  Uiso   1.00
N137   N     0.17971   0.52774   0.57320   0.00000  Uiso   1.00
N138   N     0.95120   0.82890   0.94142   0.00000  Uiso   1.00
C139   C     0.34355   0.32541   0.47548   0.00000  Uiso   1.00
C140   C     0.35396   0.39185   0.55431   0.00000  Uiso   1.00
C141   C     0.32386   0.40641   0.64713   0.00000  Uiso   1.00
C142   C     0.33991   0.47010   0.70851   0.00000  Uiso   1.00
C143   C     0.34928   0.56609   0.83552   0.00000  Uiso   1.00
C144   C     0.33496   0.36357   0.36610   0.00000  Uiso   1.00
C145   C     0.28888   0.35434   0.30068   0.00000  Uiso   1.00
C146   C     0.28893   0.39421   0.20362   0.00000  Uiso   1.00
C147   C     0.26882   0.44624   0.03840   0.00000  Uiso   1.00
C148   C     0.39794   0.28057   0.46760   0.00000  Uiso   1.00
C149   C     0.40481   0.20156   0.48749   0.00000  Uiso   1.00
C150   C     0.45788   0.17155   0.47587   0.00000  Uiso   1.00
C151   C     0.53555   0.09472   0.46824   0.00000  Uiso   1.00
C152   C     0.42559   0.41262   0.41943   0.00000  Uiso   1.00
C153   C     0.39852   0.43922   0.52386   0.00000  Uiso   1.00
C154   C     0.41463   0.50290   0.58512   0.00000  Uiso   1.00
C155   C     0.38455   0.51756   0.67802   0.00000  Uiso   1.00
C156   C     0.37952   0.41093   0.33566   0.00000  Uiso   1.00
C157   C     0.37964   0.45082   0.23867   0.00000  Uiso   1.00
C158   C     0.33357   0.44166   0.17312   0.00000  Uiso   1.00
C159   C     0.44250   0.32794   0.43716   0.00000  Uiso   1.00
C160   C     0.49557   0.29805   0.42549   0.00000  Uiso   1.00
C161   C     0.50252   0.21900   0.44537   0.00000  Uiso   1.00
H162   H     0.30885   0.28853   0.49917   0.00000  Uiso   1.00
H163   H     0.28937   0.36975   0.67066   0.00000  Uiso   1.00
H164   H     0.25440   0.31767   0.32425   0.00000  Uiso   1.00
H165   H     0.37031   0.16492   0.51105   0.00000  Uiso   1.00
H166   H     0.28741   0.48070   0.84733   0.00000  Uiso   1.00
H167   H     0.21368   0.37087   0.11691   0.00000  Uiso   1.00
H168   H     0.45810   0.04876   0.51080   0.00000  Uiso   1.00
H169   H     0.46028   0.44950   0.39573   0.00000  Uiso   1.00
H170   H     0.44911   0.53955   0.56154   0.00000  Uiso   1.00
H171   H     0.41414   0.48747   0.21514   0.00000  Uiso   1.00
H172   H     0.53005   0.33472   0.40193   0.00000  Uiso   1.00
H173   H     0.41706   0.61852   0.75877   0.00000  Uiso   1.00
H174   H     0.34333   0.50869   0.02834   0.00000  Uiso   1.00
H175   H     0.58775   0.18658   0.42224   0.00000  Uiso   1.00
O176   O     0.34214   0.60596   0.91398   0.00000  Uiso   1.00
O177   O     0.24541   0.46186   0.95568   0.00000  Uiso   1.00
O178   O     0.56609   0.03926   0.47246   0.00000  Uiso   1.00
N179   N     0.31946   0.50077   0.80374   0.00000  Uiso   1.00
N180   N     0.25053   0.39810   0.12085   0.00000  Uiso   1.00
N181   N     0.47904   0.09694   0.48908   0.00000  Uiso   1.00
N182   N     0.38923   0.57492   0.75609   0.00000  Uiso   1.00
N183   N     0.32029   0.47226   0.07320   0.00000  Uiso   1.00
N184   N     0.54880   0.17110   0.44142   0.00000  Uiso   1.00
C185   C     0.15645   0.82541   0.47548   0.00000  Uiso   1.00
C186   C     0.14604   0.89185   0.55431   0.00000  Uiso   1.00
C187   C     0.17614   0.90641   0.64713   0.00000  Uiso   1.00
C188   C     0.16009   0.97010   0.70851   0.00000  Uiso   1.00
C189   C     0.15072   0.06609   0.83552   0.00000  Uiso   1.00
C190   C     0.16504   0.86357   0.36610   0.00000  Uiso   1.00
C191   C     0.21112   0.85434   0.30068   0.00000  Uiso   1.00
C192   C     0.21107   0.89421   0.20362   0.00000  Uiso   1.00
C193   C     0.23118   0.94624   0.03840   0.00000  Uiso   1.00
C194   C     0.10206   0.78057   0.46760   0.00000  Uiso   1.00
C195   C     0.09519   0.70156   0.48749   0.00000  Uiso   1.00
C196   C     0.04212   0.67155   0.47587   0.00000  Uiso   1.00
C197   C     0.96445   0.59472   0.46824   0.00000  Uiso   1.00
C198   C     0.07441   0.91262   0.41943   0.00000  Uiso   1.00
C199   C     0.10148   0.93922   0.52386   0.00000  Uiso   1.00
C200   C     0.08537   0.00290   0.58512   0.00000  Uiso   1.00
C201   C     0.11545   0.01756   0.67802   0.00000  Uiso   1.00
C202   C     0.12048   0.91093   0.33566   0.00000  Uiso   1.00
C203   C     0.12036   0.95082   0.23867   0.00000  Uiso   1.00
C204   C     0.16643   0.94166   0.17312   0.00000  Uiso   1.00
C205   C     0.05750   0.82794   0.43716   0.00000  Uiso   1.00
C206   C     0.00443   0.79805   0.42549   0.00000  Uiso   1.00
C207   C     0.99748   0.71900   0.44537   0.00000  Uiso   1.00
H208   H     0.19115   0.78853   0.49917   0.00000  Uiso   1.00
H209   H     0.21063   0.86975   0.67066   0.00000  Uiso   1.00
H210   H     0.24560   0.81767   0.32425   0.00000  Uiso   1.00
H211   H     0.12969   0.66492   0.51105   0.00000  Uiso   1.00
H212   H     0.21259   0.98070   0.84733   0.00000  Uiso   1.00
H213   H     0.28632   0.87087   0.11691   0.00000  Uiso   1.00
H214   H     0.04190   0.54876   0.51080   0.00000  Uiso   1.00
H215   H     0.03972   0.94950   0.39573   0.00000  Uiso   1.00
H216   H     0.05089   0.03955   0.56154   0.00000  Uiso   1.00
H217   H     0.08586   0.98747   0.21514   0.00000  Uiso   1.00
H218   H     0.96995   0.83472   0.40193   0.00000  Uiso   1.00
H219   H     0.08294   0.11852   0.75877   0.00000  Uiso   1.00
H220   H     0.15667   0.00869   0.02834   0.00000  Uiso   1.00
H221   H     0.91225   0.68658   0.42224   0.00000  Uiso   1.00
O222   O     0.15786   0.10596   0.91398   0.00000  Uiso   1.00
O223   O     0.25459   0.96186   0.95568   0.00000  Uiso   1.00
O224   O     0.93391   0.53926   0.47246   0.00000  Uiso   1.00
N225   N     0.18054   0.00077   0.80374   0.00000  Uiso   1.00
N226   N     0.24947   0.89810   0.12085   0.00000  Uiso   1.00
N227   N     0.02096   0.59694   0.48908   0.00000  Uiso   1.00
N228   N     0.11077   0.07492   0.75609   0.00000  Uiso   1.00
N229   N     0.17971   0.97226   0.07320   0.00000  Uiso   1.00
N230   N     0.95120   0.67110   0.44142   0.00000  Uiso   1.00
C231   C     0.34355   0.17459   0.97548   0.00000  Uiso   1.00
C232   C     0.35396   0.10815   0.05431   0.00000  Uiso   1.00
C233   C     0.32386   0.09359   0.14713   0.00000  Uiso   1.00
C234   C     0.33991   0.02990   0.20851   0.00000  Uiso   1.00
C235   C     0.34928   0.93391   0.33552   0.00000  Uiso   1.00
C236   C     0.33496   0.13643   0.86610   0.00000  Uiso   1.00
C237   C     0.28888   0.14566   0.80068   0.00000  Uiso   1.00
C238   C     0.28893   0.10579   0.70362   0.00000  Uiso   1.00
C239   C     0.26882   0.05376   0.53840   0.00000  Uiso   1.00
C240   C     0.39794   0.21943   0.96760   0.00000  Uiso   1.00
C241   C     0.40481   0.29844   0.98749   0.00000  Uiso   1.00
C242   C     0.45788   0.32845   0.97587   0.00000  Uiso   1.00
C243   C     0.53555   0.40528   0.96824   0.00000  Uiso   1.00
C244   C     0.42559   0.08738   0.91943   0.00000  Uiso   1.00
C245   C     0.39852   0.06078   0.02386   0.00000  Uiso   1.00
C246   C     0.41463   0.99710   0.08512   0.00000  Uiso   1.00
C247   C     0.38455   0.98244   0.17802   0.00000  Uiso   1.00
C248   C     0.37952   0.08907   0.83566   0.00000  Uiso   1.00
C249   C     0.37964   0.04918   0.73867   0.00000  Uiso   1.00
C250   C     0.33357   0.05834   0.67312   0.00000  Uiso   1.00
C251   C     0.44250   0.17206   0.93716   0.00000  Uiso   1.00
C252   C     0.49557   0.20195   0.92549   0.00000  Uiso   1.00
C253   C     0.50252   0.28100   0.94537   0.00000  Uiso   1.00
H254   H     0.30885   0.21147   0.99917   0.00000  Uiso   1.00
H255   H     0.28937   0.13025   0.17066   0.00000  Uiso   1.00
H256   H     0.25440   0.18233   0.82425   0.00000  Uiso   1.00
H257   H     0.37031   0.33508   0.01105   0.00000  Uiso   1.00
H258   H     0.28741   0.01930   0.34733   0.00000  Uiso   1.00
H259   H     0.21368   0.12913   0.61691   0.00000  Uiso   1.00
H260   H     0.45810   0.45124   0.01080   0.00000  Uiso   1.00
H261   H     0.46028   0.05050   0.89573   0.00000  Uiso   1.00
H262   H     0.44911   0.96045   0.06154   0.00000  Uiso   1.00
H263   H     0.41414   0.01253   0.71514   0.00000  Uiso   1.00
H264   H     0.53005   0.16528   0.90193   0.00000  Uiso   1.00
H265   H     0.41706   0.88148   0.25877   0.00000  Uiso   1.00
H266   H     0.34333   0.99131   0.52834   0.00000  Uiso   1.00
H267   H     0.58775   0.31342   0.92224   0.00000  Uiso   1.00
O268   O     0.34214   0.89404   0.41398   0.00000  Uiso   1.00
O269   O     0.24541   0.03814   0.45568   0.00000  Uiso   1.00
O270   O     0.56609   0.46074   0.97246   0.00000  Uiso   1.00
N271   N     0.31946   0.99923   0.30374   0.00000  Uiso   1.00
N272   N     0.25053   0.10190   0.62085   0.00000  Uiso   1.00
N273   N     0.47904   0.40306   0.98908   0.00000  Uiso   1.00
N274   N     0.38923   0.92508   0.25609   0.00000  Uiso   1.00
N275   N     0.32029   0.02774   0.57320   0.00000  Uiso   1.00
N276   N     0.54880   0.32890   0.94142   0.00000  Uiso   1.00
C277   C     0.84355   0.32541   0.02452   0.00000  Uiso   1.00
C278   C     0.85396   0.39185   0.94569   0.00000  Uiso   1.00
C279   C     0.82386   0.40641   0.85287   0.00000  Uiso   1.00
C280   C     0.83991   0.47010   0.79149   0.00000  Uiso   1.00
C281   C     0.84928   0.56609   0.66448   0.00000  Uiso   1.00
C282   C     0.83496   0.36357   0.13390   0.00000  Uiso   1.00
C283   C     0.78888   0.35434   0.19932   0.00000  Uiso   1.00
C284   C     0.78893   0.39421   0.29638   0.00000  Uiso   1.00
C285   C     0.76882   0.44624   0.46160   0.00000  Uiso   1.00
C286   C     0.89794   0.28057   0.03240   0.00000  Uiso   1.00
C287   C     0.90481   0.20156   0.01251   0.00000  Uiso   1.00
C288   C     0.95788   0.17155   0.02413   0.00000  Uiso   1.00
C289   C     0.03555   0.09472   0.03176   0.00000  Uiso   1.00
C290   C     0.92559   0.41262   0.08057   0.00000  Uiso   1.00
C291   C     0.89852   0.43922   0.97614   0.00000  Uiso   1.00
C292   C     0.91463   0.50290   0.91488   0.00000  Uiso   1.00
C293   C     0.88455   0.51756   0.82198   0.00000  Uiso   1.00
C294   C     0.87952   0.41093   0.16434   0.00000  Uiso   1.00
C295   C     0.87964   0.45082   0.26133   0.00000  Uiso   1.00
C296   C     0.83357   0.44166   0.32688   0.00000  Uiso   1.00
C297   C     0.94250   0.32794   0.06284   0.00000  Uiso   1.00
C298   C     0.99557   0.29805   0.07451   0.00000  Uiso   1.00
C299   C     0.00252   0.21900   0.05463   0.00000  Uiso   1.00
H300   H     0.80885   0.28853   0.00083   0.00000  Uiso   1.00
H301   H     0.78937   0.36975   0.82934   0.00000  Uiso   1.00
H302   H     0.75440   0.31767   0.17575   0.00000  Uiso   1.00
H303   H     0.87031   0.16492   0.98895   0.00000  Uiso   1.00
H304   H     0.78741   0.48070   0.65267   0.00000  Uiso   1.00
H305   H     0.71368   0.37087   0.38309   0.00000  Uiso   1.00
H306   H     0.95810   0.04876   0.98920   0.00000  Uiso   1.00
H307   H     0.96028   0.44950   0.10427   0.00000  Uiso   1.00
H308   H     0.94911   0.53955   0.93846   0.00000  Uiso   1.00
H309   H     0.91414   0.48747   0.28486   0.00000  Uiso   1.00
H310   H     0.03005   0.33472   0.09807   0.00000  Uiso   1.00
H311   H     0.91706   0.61852   0.74123   0.00000  Uiso   1.00
H312   H     0.84333   0.50869   0.47166   0.00000  Uiso   1.00
H313   H     0.08775   0.18658   0.07776   0.00000  Uiso   1.00
O314   O     0.84214   0.60596   0.58602   0.00000  Uiso   1.00
O315   O     0.74541   0.46186   0.54432   0.00000  Uiso   1.00
O316   O     0.06609   0.03926   0.02754   0.00000  Uiso   1.00
N317   N     0.81946   0.50077   0.69626   0.00000  Uiso   1.00
N318   N     0.75053   0.39810   0.37915   0.00000  Uiso   1.00
N319   N     0.97904   0.09694   0.01092   0.00000  Uiso   1.00
N320   N     0.88923   0.57492   0.74391   0.00000  Uiso   1.00
N321   N     0.82029   0.47226   0.42680   0.00000  Uiso   1.00
N322   N     0.04880   0.17110   0.05858   0.00000  Uiso   1.00
C323   C     0.65645   0.67459   0.52452   0.00000  Uiso   1.00
C324   C     0.64604   0.60815   0.44569   0.00000  Uiso   1.00
C325   C     0.67614   0.59359   0.35287   0.00000  Uiso   1.00
C326   C     0.66009   0.52990   0.29149   0.00000  Uiso   1.00
C327   C     0.65072   0.43391   0.16448   0.00000  Uiso   1.00
C328   C     0.66504   0.63643   0.63390   0.00000  Uiso   1.00
C329   C     0.71112   0.64566   0.69932   0.00000  Uiso   1.00
C330   C     0.71107   0.60579   0.79638   0.00000  Uiso   1.00
C331   C     0.73118   0.55376   0.96160   0.00000  Uiso   1.00
C332   C     0.60206   0.71943   0.53240   0.00000  Uiso   1.00
C333   C     0.59519   0.79844   0.51251   0.00000  Uiso   1.00
C334   C     0.54212   0.82845   0.52413   0.00000  Uiso   1.00
C335   C     0.46445   0.90528   0.53176   0.00000  Uiso   1.00
C336   C     0.57441   0.58738   0.58057   0.00000  Uiso   1.00
C337   C     0.60148   0.56078   0.47614   0.00000  Uiso   1.00
C338   C     0.58537   0.49710   0.41488   0.00000  Uiso   1.00
C339   C     0.61545   0.48244   0.32198   0.00000  Uiso   1.00
C340   C     0.62048   0.58907   0.66434   0.00000  Uiso   1.00
C341   C     0.62036   0.54918   0.76133   0.00000  Uiso   1.00
C342   C     0.66643   0.55834   0.82688   0.00000  Uiso   1.00
C343   C     0.55750   0.67206   0.56284   0.00000  Uiso   1.00
C344   C     0.50443   0.70195   0.57451   0.00000  Uiso   1.00
C345   C     0.49748   0.78100   0.55463   0.00000  Uiso   1.00
H346   H     0.69115   0.71147   0.50083   0.00000  Uiso   1.00
H347   H     0.71063   0.63025   0.32934   0.00000  Uiso   1.00
H348   H     0.74560   0.68233   0.67575   0.00000  Uiso   1.00
H349   H     0.62969   0.83508   0.48895   0.00000  Uiso   1.00
H350   H     0.71259   0.51930   0.15267   0.00000  Uiso   1.00
H351   H     0.78632   0.62913   0.88309   0.00000  Uiso   1.00
H352   H     0.54190   0.95124   0.48920   0.00000  Uiso   1.00
H353   H     0.53972   0.55050   0.60427   0.00000  Uiso   1.00
H354   H     0.55089   0.46045   0.43846   0.00000  Uiso   1.00
H355   H     0.58586   0.51253   0.78486   0.00000  Uiso   1.00
H356   H     0.46995   0.66528   0.59807   0.00000  Uiso   1.00
H357   H     0.58294   0.38148   0.24123   0.00000  Uiso   1.00
H358   H     0.65667   0.49131   0.97166   0.00000  Uiso   1.00
H359   H     0.41225   0.81342   0.57776   0.00000  Uiso   1.00
O360   O     0.65786   0.39404   0.08602   0.00000  Uiso   1.00
O361   O     0.75459   0.53814   0.04432   0.00000  Uiso   1.00
O362   O     0.43391   0.96074   0.52754   0.00000  Uiso   1.00
N363   N     0.68054   0.49923   0.19626   0.00000  Uiso   1.00
N364   N     0.74947   0.60190   0.87915   0.00000  Uiso   1.00
N365   N     0.52096   0.90306   0.51092   0.00000  Uiso   1.00
N366   N     0.61077   0.42508   0.24391   0.00000  Uiso   1.00
N367   N     0.67971   0.52774   0.92680   0.00000  Uiso   1.00
N368   N     0.45120   0.82890   0.55858   0.00000  Uiso   1.00
