data_job_04950
_audit_creation_date              2018-12-19
_audit_creation_method            'Materials Studio'
_symmetry_space_group_name_H-M    'P1'
_symmetry_Int_Tables_number       1
_symmetry_cell_setting            triclinic
loop_
_symmetry_equiv_pos_as_xyz
  x,y,z
_cell_length_a                    20.2498
_cell_length_b                    12.3779
_cell_length_c                    21.3292
_cell_angle_alpha                 90.0000
_cell_angle_beta                  90.0000
_cell_angle_gamma                 90.0000
loop_
_atom_site_label
_atom_site_type_symbol
_atom_site_fract_x
_atom_site_fract_y
_atom_site_fract_z
_atom_site_U_iso_or_equiv
_atom_site_adp_type
_atom_site_occupancy
C1     C     0.57678   0.76100   0.58648   0.00000  Uiso   1.00
C2     C     0.60610   0.82873   0.63931   0.00000  Uiso   1.00
C3     C     0.65623   0.90440   0.63299   0.00000  Uiso   1.00
C4     C     0.67616   0.95789   0.68699   0.00000  Uiso   1.00
C5     C     0.72616   0.06628   0.76018   0.00000  Uiso   1.00
C6     C     0.58463   0.64347   0.60657   0.00000  Uiso   1.00
C7     C     0.61669   0.56338   0.57270   0.00000  Uiso   1.00
C8     C     0.61853   0.46091   0.59913   0.00000  Uiso   1.00
C9     C     0.63514   0.28166   0.62147   0.00000  Uiso   1.00
C10    C     0.50276   0.78369   0.58698   0.00000  Uiso   1.00
C11    C     0.46599   0.82147   0.53664   0.00000  Uiso   1.00
C12    C     0.39890   0.83704   0.54658   0.00000  Uiso   1.00
C13    C     0.28841   0.87551   0.53849   0.00000  Uiso   1.00
C14    C     0.52302   0.72144   0.69362   0.00000  Uiso   1.00
C15    C     0.57690   0.80724   0.69751   0.00000  Uiso   1.00
C16    C     0.59675   0.86063   0.75153   0.00000  Uiso   1.00
C17    C     0.64690   0.93637   0.74529   0.00000  Uiso   1.00
C18    C     0.55543   0.62198   0.66476   0.00000  Uiso   1.00
C19    C     0.55721   0.51961   0.69125   0.00000  Uiso   1.00
C20    C     0.58927   0.43938   0.65744   0.00000  Uiso   1.00
C21    C     0.47356   0.76221   0.64518   0.00000  Uiso   1.00
C22    C     0.40651   0.77771   0.65519   0.00000  Uiso   1.00
C23    C     0.36964   0.81551   0.60488   0.00000  Uiso   1.00
H24    H     0.59951   0.77773   0.54117   0.00000  Uiso   1.00
H25    H     0.67882   0.92100   0.58794   0.00000  Uiso   1.00
H26    H     0.63928   0.58003   0.52767   0.00000  Uiso   1.00
H27    H     0.48860   0.83809   0.49161   0.00000  Uiso   1.00
H28    H     0.75389   0.07034   0.66547   0.00000  Uiso   1.00
H29    H     0.67049   0.35137   0.53836   0.00000  Uiso   1.00
H30    H     0.35276   0.89555   0.46233   0.00000  Uiso   1.00
H31    H     0.50028   0.70471   0.73893   0.00000  Uiso   1.00
H32    H     0.57415   0.84398   0.79656   0.00000  Uiso   1.00
H33    H     0.53461   0.50301   0.73628   0.00000  Uiso   1.00
H34    H     0.38393   0.76107   0.70023   0.00000  Uiso   1.00
H35    H     0.66894   0.00783   0.83479   0.00000  Uiso   1.00
H36    H     0.58554   0.28885   0.70768   0.00000  Uiso   1.00
H37    H     0.26781   0.83303   0.63166   0.00000  Uiso   1.00
O38    O     0.76181   0.13199   0.78448   0.00000  Uiso   1.00
O39    O     0.65238   0.18873   0.61771   0.00000  Uiso   1.00
O40    O     0.23553   0.90268   0.51796   0.00000  Uiso   1.00
N41    N     0.72375   0.03653   0.69741   0.00000  Uiso   1.00
N42    N     0.64579   0.36434   0.57857   0.00000  Uiso   1.00
N43    N     0.34873   0.87307   0.50749   0.00000  Uiso   1.00
N44    N     0.67804   0.00289   0.78852   0.00000  Uiso   1.00
N45    N     0.60007   0.33070   0.66969   0.00000  Uiso   1.00
N46    N     0.30302   0.83943   0.59860   0.00000  Uiso   1.00
C47    C     0.92322   0.73900   0.58648   0.00000  Uiso   1.00
C48    C     0.89390   0.67127   0.63931   0.00000  Uiso   1.00
C49    C     0.84377   0.59560   0.63299   0.00000  Uiso   1.00
C50    C     0.82384   0.54211   0.68699   0.00000  Uiso   1.00
C51    C     0.77384   0.43372   0.76018   0.00000  Uiso   1.00
C52    C     0.91537   0.85653   0.60657   0.00000  Uiso   1.00
C53    C     0.88331   0.93662   0.57270   0.00000  Uiso   1.00
C54    C     0.88147   0.03909   0.59913   0.00000  Uiso   1.00
C55    C     0.86486   0.21834   0.62147   0.00000  Uiso   1.00
C56    C     0.99724   0.71631   0.58698   0.00000  Uiso   1.00
C57    C     0.03401   0.67853   0.53664   0.00000  Uiso   1.00
C58    C     0.10110   0.66296   0.54658   0.00000  Uiso   1.00
C59    C     0.21159   0.62449   0.53849   0.00000  Uiso   1.00
C60    C     0.97698   0.77856   0.69362   0.00000  Uiso   1.00
C61    C     0.92310   0.69276   0.69751   0.00000  Uiso   1.00
C62    C     0.90325   0.63937   0.75153   0.00000  Uiso   1.00
C63    C     0.85310   0.56363   0.74529   0.00000  Uiso   1.00
C64    C     0.94457   0.87802   0.66476   0.00000  Uiso   1.00
C65    C     0.94279   0.98039   0.69125   0.00000  Uiso   1.00
C66    C     0.91073   0.06062   0.65744   0.00000  Uiso   1.00
C67    C     0.02644   0.73779   0.64518   0.00000  Uiso   1.00
C68    C     0.09349   0.72229   0.65519   0.00000  Uiso   1.00
C69    C     0.13036   0.68449   0.60488   0.00000  Uiso   1.00
H70    H     0.90049   0.72227   0.54117   0.00000  Uiso   1.00
H71    H     0.82118   0.57900   0.58794   0.00000  Uiso   1.00
H72    H     0.86072   0.91997   0.52767   0.00000  Uiso   1.00
H73    H     0.01140   0.66191   0.49161   0.00000  Uiso   1.00
H74    H     0.74611   0.42966   0.66547   0.00000  Uiso   1.00
H75    H     0.82951   0.14863   0.53836   0.00000  Uiso   1.00
H76    H     0.14724   0.60445   0.46233   0.00000  Uiso   1.00
H77    H     0.99972   0.79529   0.73893   0.00000  Uiso   1.00
H78    H     0.92585   0.65602   0.79656   0.00000  Uiso   1.00
H79    H     0.96539   0.99699   0.73628   0.00000  Uiso   1.00
H80    H     0.11607   0.73893   0.70023   0.00000  Uiso   1.00
H81    H     0.83106   0.49217   0.83479   0.00000  Uiso   1.00
H82    H     0.91446   0.21115   0.70768   0.00000  Uiso   1.00
H83    H     0.23219   0.66697   0.63166   0.00000  Uiso   1.00
O84    O     0.73819   0.36801   0.78448   0.00000  Uiso   1.00
O85    O     0.84762   0.31127   0.61771   0.00000  Uiso   1.00
O86    O     0.26447   0.59732   0.51796   0.00000  Uiso   1.00
N87    N     0.77625   0.46347   0.69741   0.00000  Uiso   1.00
N88    N     0.85421   0.13566   0.57857   0.00000  Uiso   1.00
N89    N     0.15127   0.62693   0.50749   0.00000  Uiso   1.00
N90    N     0.82196   0.49711   0.78852   0.00000  Uiso   1.00
N91    N     0.89993   0.16930   0.66969   0.00000  Uiso   1.00
N92    N     0.19698   0.66057   0.59860   0.00000  Uiso   1.00
C93    C     0.42322   0.26100   0.91352   0.00000  Uiso   1.00
C94    C     0.39390   0.32873   0.86069   0.00000  Uiso   1.00
C95    C     0.34377   0.40440   0.86701   0.00000  Uiso   1.00
C96    C     0.32384   0.45789   0.81301   0.00000  Uiso   1.00
C97    C     0.27384   0.56628   0.73982   0.00000  Uiso   1.00
C98    C     0.41537   0.14347   0.89343   0.00000  Uiso   1.00
C99    C     0.38331   0.06338   0.92730   0.00000  Uiso   1.00
C100   C     0.38147   0.96091   0.90087   0.00000  Uiso   1.00
C101   C     0.36486   0.78166   0.87853   0.00000  Uiso   1.00
C102   C     0.49724   0.28369   0.91302   0.00000  Uiso   1.00
C103   C     0.53401   0.32147   0.96336   0.00000  Uiso   1.00
C104   C     0.60110   0.33704   0.95342   0.00000  Uiso   1.00
C105   C     0.71159   0.37551   0.96151   0.00000  Uiso   1.00
C106   C     0.47698   0.22144   0.80638   0.00000  Uiso   1.00
C107   C     0.42310   0.30724   0.80249   0.00000  Uiso   1.00
C108   C     0.40325   0.36063   0.74847   0.00000  Uiso   1.00
C109   C     0.35310   0.43637   0.75471   0.00000  Uiso   1.00
C110   C     0.44457   0.12198   0.83524   0.00000  Uiso   1.00
C111   C     0.44279   0.01961   0.80875   0.00000  Uiso   1.00
C112   C     0.41073   0.93938   0.84256   0.00000  Uiso   1.00
C113   C     0.52644   0.26221   0.85482   0.00000  Uiso   1.00
C114   C     0.59349   0.27771   0.84481   0.00000  Uiso   1.00
C115   C     0.63036   0.31551   0.89512   0.00000  Uiso   1.00
H116   H     0.40049   0.27773   0.95883   0.00000  Uiso   1.00
H117   H     0.32118   0.42100   0.91206   0.00000  Uiso   1.00
H118   H     0.36072   0.08003   0.97233   0.00000  Uiso   1.00
H119   H     0.51140   0.33809   0.00839   0.00000  Uiso   1.00
H120   H     0.24611   0.57034   0.83453   0.00000  Uiso   1.00
H121   H     0.32951   0.85137   0.96164   0.00000  Uiso   1.00
H122   H     0.64724   0.39555   0.03767   0.00000  Uiso   1.00
H123   H     0.49972   0.20471   0.76107   0.00000  Uiso   1.00
H124   H     0.42585   0.34398   0.70344   0.00000  Uiso   1.00
H125   H     0.46539   0.00301   0.76372   0.00000  Uiso   1.00
H126   H     0.61607   0.26107   0.79977   0.00000  Uiso   1.00
H127   H     0.33106   0.50783   0.66521   0.00000  Uiso   1.00
H128   H     0.41446   0.78885   0.79232   0.00000  Uiso   1.00
H129   H     0.73219   0.33303   0.86834   0.00000  Uiso   1.00
O130   O     0.23819   0.63199   0.71552   0.00000  Uiso   1.00
O131   O     0.34762   0.68873   0.88229   0.00000  Uiso   1.00
O132   O     0.76447   0.40268   0.98204   0.00000  Uiso   1.00
N133   N     0.27625   0.53653   0.80259   0.00000  Uiso   1.00
N134   N     0.35421   0.86434   0.92143   0.00000  Uiso   1.00
N135   N     0.65127   0.37307   0.99251   0.00000  Uiso   1.00
N136   N     0.32196   0.50289   0.71148   0.00000  Uiso   1.00
N137   N     0.39993   0.83070   0.83031   0.00000  Uiso   1.00
N138   N     0.69698   0.33943   0.90140   0.00000  Uiso   1.00
C139   C     0.07678   0.23900   0.91352   0.00000  Uiso   1.00
C140   C     0.10610   0.17127   0.86069   0.00000  Uiso   1.00
C141   C     0.15623   0.09560   0.86701   0.00000  Uiso   1.00
C142   C     0.17616   0.04211   0.81301   0.00000  Uiso   1.00
C143   C     0.22616   0.93372   0.73982   0.00000  Uiso   1.00
C144   C     0.08463   0.35653   0.89343   0.00000  Uiso   1.00
C145   C     0.11669   0.43662   0.92730   0.00000  Uiso   1.00
C146   C     0.11853   0.53909   0.90087   0.00000  Uiso   1.00
C147   C     0.13514   0.71834   0.87853   0.00000  Uiso   1.00
C148   C     0.00276   0.21631   0.91302   0.00000  Uiso   1.00
C149   C     0.96599   0.17853   0.96336   0.00000  Uiso   1.00
C150   C     0.89890   0.16296   0.95342   0.00000  Uiso   1.00
C151   C     0.78841   0.12449   0.96151   0.00000  Uiso   1.00
C152   C     0.02302   0.27856   0.80638   0.00000  Uiso   1.00
C153   C     0.07690   0.19276   0.80249   0.00000  Uiso   1.00
C154   C     0.09675   0.13937   0.74847   0.00000  Uiso   1.00
C155   C     0.14690   0.06363   0.75471   0.00000  Uiso   1.00
C156   C     0.05543   0.37802   0.83524   0.00000  Uiso   1.00
C157   C     0.05721   0.48039   0.80875   0.00000  Uiso   1.00
C158   C     0.08927   0.56062   0.84256   0.00000  Uiso   1.00
C159   C     0.97356   0.23779   0.85482   0.00000  Uiso   1.00
C160   C     0.90651   0.22229   0.84481   0.00000  Uiso   1.00
C161   C     0.86964   0.18449   0.89512   0.00000  Uiso   1.00
H162   H     0.09951   0.22227   0.95883   0.00000  Uiso   1.00
H163   H     0.17882   0.07900   0.91206   0.00000  Uiso   1.00
H164   H     0.13928   0.41997   0.97233   0.00000  Uiso   1.00
H165   H     0.98860   0.16191   0.00839   0.00000  Uiso   1.00
H166   H     0.25389   0.92966   0.83453   0.00000  Uiso   1.00
H167   H     0.17049   0.64863   0.96164   0.00000  Uiso   1.00
H168   H     0.85276   0.10445   0.03767   0.00000  Uiso   1.00
H169   H     0.00028   0.29529   0.76107   0.00000  Uiso   1.00
H170   H     0.07415   0.15602   0.70344   0.00000  Uiso   1.00
H171   H     0.03461   0.49699   0.76372   0.00000  Uiso   1.00
H172   H     0.88393   0.23893   0.79977   0.00000  Uiso   1.00
H173   H     0.16894   0.99217   0.66521   0.00000  Uiso   1.00
H174   H     0.08554   0.71115   0.79232   0.00000  Uiso   1.00
H175   H     0.76781   0.16697   0.86834   0.00000  Uiso   1.00
O176   O     0.26181   0.86801   0.71552   0.00000  Uiso   1.00
O177   O     0.15238   0.81127   0.88229   0.00000  Uiso   1.00
O178   O     0.73553   0.09732   0.98204   0.00000  Uiso   1.00
N179   N     0.22375   0.96347   0.80259   0.00000  Uiso   1.00
N180   N     0.14579   0.63566   0.92143   0.00000  Uiso   1.00
N181   N     0.84873   0.12693   0.99251   0.00000  Uiso   1.00
N182   N     0.17804   0.99711   0.71148   0.00000  Uiso   1.00
N183   N     0.10007   0.66930   0.83031   0.00000  Uiso   1.00
N184   N     0.80302   0.16057   0.90140   0.00000  Uiso   1.00
C185   C     0.42322   0.23900   0.41352   0.00000  Uiso   1.00
C186   C     0.39390   0.17127   0.36069   0.00000  Uiso   1.00
C187   C     0.34377   0.09560   0.36701   0.00000  Uiso   1.00
C188   C     0.32384   0.04211   0.31301   0.00000  Uiso   1.00
C189   C     0.27384   0.93372   0.23982   0.00000  Uiso   1.00
C190   C     0.41537   0.35653   0.39343   0.00000  Uiso   1.00
C191   C     0.38331   0.43662   0.42730   0.00000  Uiso   1.00
C192   C     0.38147   0.53909   0.40087   0.00000  Uiso   1.00
C193   C     0.36486   0.71834   0.37853   0.00000  Uiso   1.00
C194   C     0.49724   0.21631   0.41302   0.00000  Uiso   1.00
C195   C     0.53401   0.17853   0.46336   0.00000  Uiso   1.00
C196   C     0.60110   0.16296   0.45342   0.00000  Uiso   1.00
C197   C     0.71159   0.12449   0.46151   0.00000  Uiso   1.00
C198   C     0.47698   0.27856   0.30638   0.00000  Uiso   1.00
C199   C     0.42310   0.19276   0.30249   0.00000  Uiso   1.00
C200   C     0.40325   0.13937   0.24847   0.00000  Uiso   1.00
C201   C     0.35310   0.06363   0.25471   0.00000  Uiso   1.00
C202   C     0.44457   0.37802   0.33524   0.00000  Uiso   1.00
C203   C     0.44279   0.48039   0.30875   0.00000  Uiso   1.00
C204   C     0.41073   0.56062   0.34256   0.00000  Uiso   1.00
C205   C     0.52644   0.23779   0.35482   0.00000  Uiso   1.00
C206   C     0.59349   0.22229   0.34481   0.00000  Uiso   1.00
C207   C     0.63036   0.18449   0.39512   0.00000  Uiso   1.00
H208   H     0.40049   0.22227   0.45883   0.00000  Uiso   1.00
H209   H     0.32118   0.07900   0.41206   0.00000  Uiso   1.00
H210   H     0.36072   0.41997   0.47233   0.00000  Uiso   1.00
H211   H     0.51140   0.16191   0.50839   0.00000  Uiso   1.00
H212   H     0.24611   0.92966   0.33453   0.00000  Uiso   1.00
H213   H     0.32951   0.64863   0.46164   0.00000  Uiso   1.00
H214   H     0.64724   0.10445   0.53767   0.00000  Uiso   1.00
H215   H     0.49972   0.29529   0.26107   0.00000  Uiso   1.00
H216   H     0.42585   0.15602   0.20344   0.00000  Uiso   1.00
H217   H     0.46539   0.49699   0.26372   0.00000  Uiso   1.00
H218   H     0.61607   0.23893   0.29977   0.00000  Uiso   1.00
H219   H     0.33106   0.99217   0.16521   0.00000  Uiso   1.00
H220   H     0.41446   0.71115   0.29232   0.00000  Uiso   1.00
H221   H     0.73219   0.16697   0.36834   0.00000  Uiso   1.00
O222   O     0.23819   0.86801   0.21552   0.00000  Uiso   1.00
O223   O     0.34762   0.81127   0.38229   0.00000  Uiso   1.00
O224   O     0.76447   0.09732   0.48204   0.00000  Uiso   1.00
N225   N     0.27625   0.96347   0.30259   0.00000  Uiso   1.00
N226   N     0.35421   0.63566   0.42143   0.00000  Uiso   1.00
N227   N     0.65127   0.12693   0.49251   0.00000  Uiso   1.00
N228   N     0.32196   0.99711   0.21148   0.00000  Uiso   1.00
N229   N     0.39993   0.66930   0.33031   0.00000  Uiso   1.00
N230   N     0.69698   0.16057   0.40140   0.00000  Uiso   1.00
C231   C     0.07678   0.26100   0.41352   0.00000  Uiso   1.00
C232   C     0.10610   0.32873   0.36069   0.00000  Uiso   1.00
C233   C     0.15623   0.40440   0.36701   0.00000  Uiso   1.00
C234   C     0.17616   0.45789   0.31301   0.00000  Uiso   1.00
C235   C     0.22616   0.56628   0.23982   0.00000  Uiso   1.00
C236   C     0.08463   0.14347   0.39343   0.00000  Uiso   1.00
C237   C     0.11669   0.06338   0.42730   0.00000  Uiso   1.00
C238   C     0.11853   0.96091   0.40087   0.00000  Uiso   1.00
C239   C     0.13514   0.78166   0.37853   0.00000  Uiso   1.00
C240   C     0.00276   0.28369   0.41302   0.00000  Uiso   1.00
C241   C     0.96599   0.32147   0.46336   0.00000  Uiso   1.00
C242   C     0.89890   0.33704   0.45342   0.00000  Uiso   1.00
C243   C     0.78841   0.37551   0.46151   0.00000  Uiso   1.00
C244   C     0.02302   0.22144   0.30638   0.00000  Uiso   1.00
C245   C     0.07690   0.30724   0.30249   0.00000  Uiso   1.00
C246   C     0.09675   0.36063   0.24847   0.00000  Uiso   1.00
C247   C     0.14690   0.43637   0.25471   0.00000  Uiso   1.00
C248   C     0.05543   0.12198   0.33524   0.00000  Uiso   1.00
C249   C     0.05721   0.01961   0.30875   0.00000  Uiso   1.00
C250   C     0.08927   0.93938   0.34256   0.00000  Uiso   1.00
C251   C     0.97356   0.26221   0.35482   0.00000  Uiso   1.00
C252   C     0.90651   0.27771   0.34481   0.00000  Uiso   1.00
C253   C     0.86964   0.31551   0.39512   0.00000  Uiso   1.00
H254   H     0.09951   0.27773   0.45883   0.00000  Uiso   1.00
H255   H     0.17882   0.42100   0.41206   0.00000  Uiso   1.00
H256   H     0.13928   0.08003   0.47233   0.00000  Uiso   1.00
H257   H     0.98860   0.33809   0.50839   0.00000  Uiso   1.00
H258   H     0.25389   0.57034   0.33453   0.00000  Uiso   1.00
H259   H     0.17049   0.85137   0.46164   0.00000  Uiso   1.00
H260   H     0.85276   0.39555   0.53767   0.00000  Uiso   1.00
H261   H     0.00028   0.20471   0.26107   0.00000  Uiso   1.00
H262   H     0.07415   0.34398   0.20344   0.00000  Uiso   1.00
H263   H     0.03461   0.00301   0.26372   0.00000  Uiso   1.00
H264   H     0.88393   0.26107   0.29977   0.00000  Uiso   1.00
H265   H     0.16894   0.50783   0.16521   0.00000  Uiso   1.00
H266   H     0.08554   0.78885   0.29232   0.00000  Uiso   1.00
H267   H     0.76781   0.33303   0.36834   0.00000  Uiso   1.00
O268   O     0.26181   0.63199   0.21552   0.00000  Uiso   1.00
O269   O     0.15238   0.68873   0.38229   0.00000  Uiso   1.00
O270   O     0.73553   0.40268   0.48204   0.00000  Uiso   1.00
N271   N     0.22375   0.53653   0.30259   0.00000  Uiso   1.00
N272   N     0.14579   0.86434   0.42143   0.00000  Uiso   1.00
N273   N     0.84873   0.37307   0.49251   0.00000  Uiso   1.00
N274   N     0.17804   0.50289   0.21148   0.00000  Uiso   1.00
N275   N     0.10007   0.83070   0.33031   0.00000  Uiso   1.00
N276   N     0.80302   0.33943   0.40140   0.00000  Uiso   1.00
C277   C     0.57678   0.73900   0.08648   0.00000  Uiso   1.00
C278   C     0.60610   0.67127   0.13931   0.00000  Uiso   1.00
C279   C     0.65623   0.59560   0.13299   0.00000  Uiso   1.00
C280   C     0.67616   0.54211   0.18699   0.00000  Uiso   1.00
C281   C     0.72616   0.43372   0.26018   0.00000  Uiso   1.00
C282   C     0.58463   0.85653   0.10657   0.00000  Uiso   1.00
C283   C     0.61669   0.93662   0.07270   0.00000  Uiso   1.00
C284   C     0.61853   0.03909   0.09913   0.00000  Uiso   1.00
C285   C     0.63514   0.21834   0.12147   0.00000  Uiso   1.00
C286   C     0.50276   0.71631   0.08698   0.00000  Uiso   1.00
C287   C     0.46599   0.67853   0.03664   0.00000  Uiso   1.00
C288   C     0.39890   0.66296   0.04658   0.00000  Uiso   1.00
C289   C     0.28841   0.62449   0.03849   0.00000  Uiso   1.00
C290   C     0.52302   0.77856   0.19362   0.00000  Uiso   1.00
C291   C     0.57690   0.69276   0.19751   0.00000  Uiso   1.00
C292   C     0.59675   0.63937   0.25153   0.00000  Uiso   1.00
C293   C     0.64690   0.56363   0.24529   0.00000  Uiso   1.00
C294   C     0.55543   0.87802   0.16476   0.00000  Uiso   1.00
C295   C     0.55721   0.98039   0.19125   0.00000  Uiso   1.00
C296   C     0.58927   0.06062   0.15744   0.00000  Uiso   1.00
C297   C     0.47356   0.73779   0.14518   0.00000  Uiso   1.00
C298   C     0.40651   0.72229   0.15519   0.00000  Uiso   1.00
C299   C     0.36964   0.68449   0.10488   0.00000  Uiso   1.00
H300   H     0.59951   0.72227   0.04117   0.00000  Uiso   1.00
H301   H     0.67882   0.57900   0.08794   0.00000  Uiso   1.00
H302   H     0.63928   0.91997   0.02767   0.00000  Uiso   1.00
H303   H     0.48860   0.66191   0.99161   0.00000  Uiso   1.00
H304   H     0.75389   0.42966   0.16547   0.00000  Uiso   1.00
H305   H     0.67049   0.14863   0.03836   0.00000  Uiso   1.00
H306   H     0.35276   0.60445   0.96233   0.00000  Uiso   1.00
H307   H     0.50028   0.79529   0.23893   0.00000  Uiso   1.00
H308   H     0.57415   0.65602   0.29656   0.00000  Uiso   1.00
H309   H     0.53461   0.99699   0.23628   0.00000  Uiso   1.00
H310   H     0.38393   0.73893   0.20023   0.00000  Uiso   1.00
H311   H     0.66894   0.49217   0.33479   0.00000  Uiso   1.00
H312   H     0.58554   0.21115   0.20768   0.00000  Uiso   1.00
H313   H     0.26781   0.66697   0.13166   0.00000  Uiso   1.00
O314   O     0.76181   0.36801   0.28448   0.00000  Uiso   1.00
O315   O     0.65238   0.31127   0.11771   0.00000  Uiso   1.00
O316   O     0.23553   0.59732   0.01796   0.00000  Uiso   1.00
N317   N     0.72375   0.46347   0.19741   0.00000  Uiso   1.00
N318   N     0.64579   0.13566   0.07857   0.00000  Uiso   1.00
N319   N     0.34873   0.62693   0.00749   0.00000  Uiso   1.00
N320   N     0.67804   0.49711   0.28852   0.00000  Uiso   1.00
N321   N     0.60007   0.16930   0.16969   0.00000  Uiso   1.00
N322   N     0.30302   0.66057   0.09860   0.00000  Uiso   1.00
C323   C     0.92322   0.76100   0.08648   0.00000  Uiso   1.00
C324   C     0.89390   0.82873   0.13931   0.00000  Uiso   1.00
C325   C     0.84377   0.90440   0.13299   0.00000  Uiso   1.00
C326   C     0.82384   0.95789   0.18699   0.00000  Uiso   1.00
C327   C     0.77384   0.06628   0.26018   0.00000  Uiso   1.00
C328   C     0.91537   0.64347   0.10657   0.00000  Uiso   1.00
C329   C     0.88331   0.56338   0.07270   0.00000  Uiso   1.00
C330   C     0.88147   0.46091   0.09913   0.00000  Uiso   1.00
C331   C     0.86486   0.28166   0.12147   0.00000  Uiso   1.00
C332   C     0.99724   0.78369   0.08698   0.00000  Uiso   1.00
C333   C     0.03401   0.82147   0.03664   0.00000  Uiso   1.00
C334   C     0.10110   0.83704   0.04658   0.00000  Uiso   1.00
C335   C     0.21159   0.87551   0.03849   0.00000  Uiso   1.00
C336   C     0.97698   0.72144   0.19362   0.00000  Uiso   1.00
C337   C     0.92310   0.80724   0.19751   0.00000  Uiso   1.00
C338   C     0.90325   0.86063   0.25153   0.00000  Uiso   1.00
C339   C     0.85310   0.93637   0.24529   0.00000  Uiso   1.00
C340   C     0.94457   0.62198   0.16476   0.00000  Uiso   1.00
C341   C     0.94279   0.51961   0.19125   0.00000  Uiso   1.00
C342   C     0.91073   0.43938   0.15744   0.00000  Uiso   1.00
C343   C     0.02644   0.76221   0.14518   0.00000  Uiso   1.00
C344   C     0.09349   0.77771   0.15519   0.00000  Uiso   1.00
C345   C     0.13036   0.81551   0.10488   0.00000  Uiso   1.00
H346   H     0.90049   0.77773   0.04117   0.00000  Uiso   1.00
H347   H     0.82118   0.92100   0.08794   0.00000  Uiso   1.00
H348   H     0.86072   0.58003   0.02767   0.00000  Uiso   1.00
H349   H     0.01140   0.83809   0.99161   0.00000  Uiso   1.00
H350   H     0.74611   0.07034   0.16547   0.00000  Uiso   1.00
H351   H     0.82951   0.35137   0.03836   0.00000  Uiso   1.00
H352   H     0.14724   0.89555   0.96233   0.00000  Uiso   1.00
H353   H     0.99972   0.70471   0.23893   0.00000  Uiso   1.00
H354   H     0.92585   0.84398   0.29656   0.00000  Uiso   1.00
H355   H     0.96539   0.50301   0.23628   0.00000  Uiso   1.00
H356   H     0.11607   0.76107   0.20023   0.00000  Uiso   1.00
H357   H     0.83106   0.00783   0.33479   0.00000  Uiso   1.00
H358   H     0.91446   0.28885   0.20768   0.00000  Uiso   1.00
H359   H     0.23219   0.83303   0.13166   0.00000  Uiso   1.00
O360   O     0.73819   0.13199   0.28448   0.00000  Uiso   1.00
O361   O     0.84762   0.18873   0.11771   0.00000  Uiso   1.00
O362   O     0.26447   0.90268   0.01796   0.00000  Uiso   1.00
N363   N     0.77625   0.03653   0.19741   0.00000  Uiso   1.00
N364   N     0.85421   0.36434   0.07857   0.00000  Uiso   1.00
N365   N     0.15127   0.87307   0.00749   0.00000  Uiso   1.00
N366   N     0.82196   0.00289   0.28852   0.00000  Uiso   1.00
N367   N     0.89993   0.33070   0.16969   0.00000  Uiso   1.00
N368   N     0.19698   0.83943   0.09860   0.00000  Uiso   1.00
