data_job_03380
_audit_creation_date              2018-12-19
_audit_creation_method            'Materials Studio'
_symmetry_space_group_name_H-M    'P1'
_symmetry_Int_Tables_number       1
_symmetry_cell_setting            triclinic
loop_
_symmetry_equiv_pos_as_xyz
  x,y,z
_cell_length_a                    14.7466
_cell_length_b                    16.0905
_cell_length_c                    9.4452
_cell_angle_alpha                 90.0000
_cell_angle_beta                  79.5512
_cell_angle_gamma                 90.0000
loop_
_atom_site_label
_atom_site_type_symbol
_atom_site_fract_x
_atom_site_fract_y
_atom_site_fract_z
_atom_site_U_iso_or_equiv
_atom_site_adp_type
_atom_site_occupancy
C1     C     0.24227   0.31401   0.69542   0.00000  Uiso   1.00
C2     C     0.15779   0.32230   0.62423   0.00000  Uiso   1.00
C3     C     0.08980   0.26259   0.62507   0.00000  Uiso   1.00
C4     C     0.01813   0.28206   0.55374   0.00000  Uiso   1.00
C5     C     0.88751   0.28329   0.45373   0.00000  Uiso   1.00
C6     C     0.32565   0.32844   0.57657   0.00000  Uiso   1.00
C7     C     0.39879   0.27389   0.53736   0.00000  Uiso   1.00
C8     C     0.46843   0.29855   0.42591   0.00000  Uiso   1.00
C9     C     0.59845   0.30933   0.25198   0.00000  Uiso   1.00
C10    C     0.23899   0.38776   0.79761   0.00000  Uiso   1.00
C11    C     0.23929   0.38309   0.94424   0.00000  Uiso   1.00
C12    C     0.23598   0.45769   0.01889   0.00000  Uiso   1.00
C13    C     0.23145   0.56057   0.18816   0.00000  Uiso   1.00
C14    C     0.23589   0.45480   0.56725   0.00000  Uiso   1.00
C15    C     0.15433   0.39878   0.55461   0.00000  Uiso   1.00
C16    C     0.08274   0.41835   0.48326   0.00000  Uiso   1.00
C17    C     0.01465   0.35867   0.48400   0.00000  Uiso   1.00
C18    C     0.32219   0.40491   0.50695   0.00000  Uiso   1.00
C19    C     0.39174   0.42966   0.39555   0.00000  Uiso   1.00
C20    C     0.46496   0.37515   0.35617   0.00000  Uiso   1.00
C21    C     0.23552   0.46423   0.72799   0.00000  Uiso   1.00
C22    C     0.23223   0.53886   0.80243   0.00000  Uiso   1.00
C23    C     0.23251   0.53430   0.94915   0.00000  Uiso   1.00
H24    H     0.24497   0.25448   0.74962   0.00000  Uiso   1.00
H25    H     0.09251   0.20341   0.67895   0.00000  Uiso   1.00
H26    H     0.40146   0.21472   0.59126   0.00000  Uiso   1.00
H27    H     0.24197   0.32390   0.99808   0.00000  Uiso   1.00
H28    H     0.92197   0.18051   0.56986   0.00000  Uiso   1.00
H29    H     0.57342   0.20437   0.38499   0.00000  Uiso   1.00
H30    H     0.23712   0.43460   0.24285   0.00000  Uiso   1.00
H31    H     0.23319   0.51434   0.51304   0.00000  Uiso   1.00
H32    H     0.08008   0.47753   0.42940   0.00000  Uiso   1.00
H33    H     0.38903   0.48884   0.34170   0.00000  Uiso   1.00
H34    H     0.22954   0.59802   0.74852   0.00000  Uiso   1.00
H35    H     0.91188   0.40299   0.36730   0.00000  Uiso   1.00
H36    H     0.56334   0.42685   0.18244   0.00000  Uiso   1.00
H37    H     0.22703   0.65708   0.04029   0.00000  Uiso   1.00
O38    O     0.81643   0.26284   0.41778   0.00000  Uiso   1.00
O39    O     0.67112   0.29415   0.17527   0.00000  Uiso   1.00
O40    O     0.22989   0.59620   0.30075   0.00000  Uiso   1.00
N41    N     0.94060   0.23793   0.53369   0.00000  Uiso   1.00
N42    N     0.54966   0.26023   0.36084   0.00000  Uiso   1.00
N43    N     0.23527   0.47547   0.16285   0.00000  Uiso   1.00
N44    N     0.93517   0.35764   0.42470   0.00000  Uiso   1.00
N45    N     0.54423   0.37995   0.25184   0.00000  Uiso   1.00
N46    N     0.22984   0.59519   0.05386   0.00000  Uiso   1.00
C47    C     0.75773   0.81401   0.80458   0.00000  Uiso   1.00
C48    C     0.84221   0.82230   0.87577   0.00000  Uiso   1.00
C49    C     0.91020   0.76259   0.87493   0.00000  Uiso   1.00
C50    C     0.98187   0.78206   0.94626   0.00000  Uiso   1.00
C51    C     0.11249   0.78329   0.04627   0.00000  Uiso   1.00
C52    C     0.67435   0.82844   0.92343   0.00000  Uiso   1.00
C53    C     0.60121   0.77389   0.96264   0.00000  Uiso   1.00
C54    C     0.53157   0.79855   0.07409   0.00000  Uiso   1.00
C55    C     0.40155   0.80933   0.24802   0.00000  Uiso   1.00
C56    C     0.76101   0.88776   0.70239   0.00000  Uiso   1.00
C57    C     0.76071   0.88309   0.55576   0.00000  Uiso   1.00
C58    C     0.76402   0.95769   0.48111   0.00000  Uiso   1.00
C59    C     0.76855   0.06057   0.31184   0.00000  Uiso   1.00
C60    C     0.76411   0.95480   0.93275   0.00000  Uiso   1.00
C61    C     0.84567   0.89878   0.94539   0.00000  Uiso   1.00
C62    C     0.91726   0.91835   0.01674   0.00000  Uiso   1.00
C63    C     0.98535   0.85867   0.01600   0.00000  Uiso   1.00
C64    C     0.67781   0.90491   0.99305   0.00000  Uiso   1.00
C65    C     0.60826   0.92966   0.10445   0.00000  Uiso   1.00
C66    C     0.53504   0.87515   0.14383   0.00000  Uiso   1.00
C67    C     0.76448   0.96423   0.77201   0.00000  Uiso   1.00
C68    C     0.76777   0.03886   0.69757   0.00000  Uiso   1.00
C69    C     0.76749   0.03430   0.55085   0.00000  Uiso   1.00
H70    H     0.75503   0.75448   0.75038   0.00000  Uiso   1.00
H71    H     0.90749   0.70341   0.82105   0.00000  Uiso   1.00
H72    H     0.59854   0.71472   0.90874   0.00000  Uiso   1.00
H73    H     0.75803   0.82390   0.50192   0.00000  Uiso   1.00
H74    H     0.07803   0.68051   0.93014   0.00000  Uiso   1.00
H75    H     0.42658   0.70437   0.11501   0.00000  Uiso   1.00
H76    H     0.76288   0.93460   0.25715   0.00000  Uiso   1.00
H77    H     0.76681   0.01434   0.98696   0.00000  Uiso   1.00
H78    H     0.91992   0.97753   0.07060   0.00000  Uiso   1.00
H79    H     0.61097   0.98884   0.15830   0.00000  Uiso   1.00
H80    H     0.77046   0.09802   0.75148   0.00000  Uiso   1.00
H81    H     0.08812   0.90299   0.13270   0.00000  Uiso   1.00
H82    H     0.43666   0.92685   0.31756   0.00000  Uiso   1.00
H83    H     0.77297   0.15708   0.45971   0.00000  Uiso   1.00
O84    O     0.18357   0.76284   0.08222   0.00000  Uiso   1.00
O85    O     0.32888   0.79415   0.32473   0.00000  Uiso   1.00
O86    O     0.77011   0.09620   0.19925   0.00000  Uiso   1.00
N87    N     0.05940   0.73793   0.96631   0.00000  Uiso   1.00
N88    N     0.45034   0.76023   0.13916   0.00000  Uiso   1.00
N89    N     0.76473   0.97547   0.33715   0.00000  Uiso   1.00
N90    N     0.06483   0.85764   0.07530   0.00000  Uiso   1.00
N91    N     0.45577   0.87995   0.24816   0.00000  Uiso   1.00
N92    N     0.77016   0.09519   0.44614   0.00000  Uiso   1.00
C93    C     0.75773   0.68599   0.30458   0.00000  Uiso   1.00
C94    C     0.84221   0.67770   0.37577   0.00000  Uiso   1.00
C95    C     0.91020   0.73741   0.37493   0.00000  Uiso   1.00
C96    C     0.98187   0.71794   0.44626   0.00000  Uiso   1.00
C97    C     0.11249   0.71671   0.54627   0.00000  Uiso   1.00
C98    C     0.67435   0.67156   0.42343   0.00000  Uiso   1.00
C99    C     0.60121   0.72611   0.46264   0.00000  Uiso   1.00
C100   C     0.53157   0.70145   0.57409   0.00000  Uiso   1.00
C101   C     0.40155   0.69067   0.74802   0.00000  Uiso   1.00
C102   C     0.76101   0.61224   0.20239   0.00000  Uiso   1.00
C103   C     0.76071   0.61691   0.05576   0.00000  Uiso   1.00
C104   C     0.76402   0.54231   0.98111   0.00000  Uiso   1.00
C105   C     0.76855   0.43943   0.81184   0.00000  Uiso   1.00
C106   C     0.76411   0.54520   0.43275   0.00000  Uiso   1.00
C107   C     0.84567   0.60122   0.44539   0.00000  Uiso   1.00
C108   C     0.91726   0.58165   0.51674   0.00000  Uiso   1.00
C109   C     0.98535   0.64133   0.51600   0.00000  Uiso   1.00
C110   C     0.67781   0.59509   0.49305   0.00000  Uiso   1.00
C111   C     0.60826   0.57034   0.60445   0.00000  Uiso   1.00
C112   C     0.53504   0.62485   0.64383   0.00000  Uiso   1.00
C113   C     0.76448   0.53577   0.27201   0.00000  Uiso   1.00
C114   C     0.76777   0.46114   0.19757   0.00000  Uiso   1.00
C115   C     0.76749   0.46570   0.05085   0.00000  Uiso   1.00
H116   H     0.75503   0.74552   0.25038   0.00000  Uiso   1.00
H117   H     0.90749   0.79659   0.32105   0.00000  Uiso   1.00
H118   H     0.59854   0.78528   0.40874   0.00000  Uiso   1.00
H119   H     0.75803   0.67610   0.00192   0.00000  Uiso   1.00
H120   H     0.07803   0.81949   0.43014   0.00000  Uiso   1.00
H121   H     0.42658   0.79563   0.61501   0.00000  Uiso   1.00
H122   H     0.76288   0.56540   0.75715   0.00000  Uiso   1.00
H123   H     0.76681   0.48566   0.48696   0.00000  Uiso   1.00
H124   H     0.91992   0.52247   0.57060   0.00000  Uiso   1.00
H125   H     0.61097   0.51116   0.65830   0.00000  Uiso   1.00
H126   H     0.77046   0.40198   0.25148   0.00000  Uiso   1.00
H127   H     0.08812   0.59701   0.63270   0.00000  Uiso   1.00
H128   H     0.43666   0.57315   0.81756   0.00000  Uiso   1.00
H129   H     0.77297   0.34292   0.95971   0.00000  Uiso   1.00
O130   O     0.18357   0.73716   0.58222   0.00000  Uiso   1.00
O131   O     0.32888   0.70585   0.82473   0.00000  Uiso   1.00
O132   O     0.77011   0.40380   0.69925   0.00000  Uiso   1.00
N133   N     0.05940   0.76207   0.46631   0.00000  Uiso   1.00
N134   N     0.45034   0.73977   0.63916   0.00000  Uiso   1.00
N135   N     0.76473   0.52453   0.83715   0.00000  Uiso   1.00
N136   N     0.06483   0.64236   0.57530   0.00000  Uiso   1.00
N137   N     0.45577   0.62005   0.74816   0.00000  Uiso   1.00
N138   N     0.77016   0.40481   0.94614   0.00000  Uiso   1.00
C139   C     0.24227   0.18599   0.19542   0.00000  Uiso   1.00
C140   C     0.15779   0.17770   0.12423   0.00000  Uiso   1.00
C141   C     0.08980   0.23741   0.12507   0.00000  Uiso   1.00
C142   C     0.01813   0.21794   0.05374   0.00000  Uiso   1.00
C143   C     0.88751   0.21671   0.95373   0.00000  Uiso   1.00
C144   C     0.32565   0.17156   0.07657   0.00000  Uiso   1.00
C145   C     0.39879   0.22611   0.03736   0.00000  Uiso   1.00
C146   C     0.46843   0.20145   0.92591   0.00000  Uiso   1.00
C147   C     0.59845   0.19067   0.75198   0.00000  Uiso   1.00
C148   C     0.23899   0.11224   0.29761   0.00000  Uiso   1.00
C149   C     0.23929   0.11691   0.44424   0.00000  Uiso   1.00
C150   C     0.23598   0.04231   0.51889   0.00000  Uiso   1.00
C151   C     0.23145   0.93943   0.68816   0.00000  Uiso   1.00
C152   C     0.23589   0.04520   0.06725   0.00000  Uiso   1.00
C153   C     0.15433   0.10122   0.05461   0.00000  Uiso   1.00
C154   C     0.08274   0.08165   0.98326   0.00000  Uiso   1.00
C155   C     0.01465   0.14133   0.98400   0.00000  Uiso   1.00
C156   C     0.32219   0.09509   0.00695   0.00000  Uiso   1.00
C157   C     0.39174   0.07034   0.89555   0.00000  Uiso   1.00
C158   C     0.46496   0.12485   0.85617   0.00000  Uiso   1.00
C159   C     0.23552   0.03577   0.22799   0.00000  Uiso   1.00
C160   C     0.23223   0.96114   0.30243   0.00000  Uiso   1.00
C161   C     0.23251   0.96570   0.44915   0.00000  Uiso   1.00
H162   H     0.24497   0.24552   0.24962   0.00000  Uiso   1.00
H163   H     0.09251   0.29659   0.17895   0.00000  Uiso   1.00
H164   H     0.40146   0.28528   0.09126   0.00000  Uiso   1.00
H165   H     0.24197   0.17610   0.49808   0.00000  Uiso   1.00
H166   H     0.92197   0.31949   0.06986   0.00000  Uiso   1.00
H167   H     0.57342   0.29563   0.88499   0.00000  Uiso   1.00
H168   H     0.23712   0.06540   0.74285   0.00000  Uiso   1.00
H169   H     0.23319   0.98566   0.01304   0.00000  Uiso   1.00
H170   H     0.08008   0.02247   0.92940   0.00000  Uiso   1.00
H171   H     0.38903   0.01116   0.84170   0.00000  Uiso   1.00
H172   H     0.22954   0.90198   0.24852   0.00000  Uiso   1.00
H173   H     0.91188   0.09701   0.86730   0.00000  Uiso   1.00
H174   H     0.56334   0.07315   0.68244   0.00000  Uiso   1.00
H175   H     0.22703   0.84292   0.54029   0.00000  Uiso   1.00
O176   O     0.81643   0.23716   0.91778   0.00000  Uiso   1.00
O177   O     0.67112   0.20585   0.67527   0.00000  Uiso   1.00
O178   O     0.22989   0.90380   0.80075   0.00000  Uiso   1.00
N179   N     0.94060   0.26207   0.03369   0.00000  Uiso   1.00
N180   N     0.54966   0.23977   0.86084   0.00000  Uiso   1.00
N181   N     0.23527   0.02453   0.66285   0.00000  Uiso   1.00
N182   N     0.93517   0.14236   0.92470   0.00000  Uiso   1.00
N183   N     0.54423   0.12005   0.75184   0.00000  Uiso   1.00
N184   N     0.22984   0.90481   0.55386   0.00000  Uiso   1.00
