data_job_02799
_audit_creation_date              2018-12-19
_audit_creation_method            'Materials Studio'
_symmetry_space_group_name_H-M    'P1'
_symmetry_Int_Tables_number       1
_symmetry_cell_setting            triclinic
loop_
_symmetry_equiv_pos_as_xyz
  x,y,z
_cell_length_a                    29.3347
_cell_length_b                    29.3347
_cell_length_c                    16.3025
_cell_angle_alpha                 90.0000
_cell_angle_beta                  90.0000
_cell_angle_gamma                 120.0000
loop_
_atom_site_label
_atom_site_type_symbol
_atom_site_fract_x
_atom_site_fract_y
_atom_site_fract_z
_atom_site_U_iso_or_equiv
_atom_site_adp_type
_atom_site_occupancy
C1     C     0.66116   0.12617   0.63536   0.00000  Uiso   1.00
C2     C     0.71534   0.16672   0.60321   0.00000  Uiso   1.00
C3     C     0.74194   0.22004   0.62169   0.00000  Uiso   1.00
C4     C     0.79111   0.25058   0.58608   0.00000  Uiso   1.00
C5     C     0.87193   0.31691   0.54407   0.00000  Uiso   1.00
C6     C     0.62728   0.10033   0.55982   0.00000  Uiso   1.00
C7     C     0.57984   0.09783   0.54182   0.00000  Uiso   1.00
C8     C     0.55487   0.07247   0.46969   0.00000  Uiso   1.00
C9     C     0.49896   0.03569   0.36034   0.00000  Uiso   1.00
C10    C     0.66827   0.08364   0.67719   0.00000  Uiso   1.00
C11    C     0.65527   0.06709   0.75787   0.00000  Uiso   1.00
C12    C     0.66480   0.02767   0.78455   0.00000  Uiso   1.00
C13    C     0.67252   0.96497   0.85743   0.00000  Uiso   1.00
C14    C     0.70117   0.08558   0.53926   0.00000  Uiso   1.00
C15    C     0.73707   0.14467   0.55101   0.00000  Uiso   1.00
C16    C     0.78621   0.17513   0.51537   0.00000  Uiso   1.00
C17    C     0.81288   0.22849   0.53379   0.00000  Uiso   1.00
C18    C     0.64901   0.07828   0.50762   0.00000  Uiso   1.00
C19    C     0.62411   0.05292   0.43550   0.00000  Uiso   1.00
C20    C     0.57665   0.05038   0.41740   0.00000  Uiso   1.00
C21    C     0.69000   0.06159   0.62499   0.00000  Uiso   1.00
C22    C     0.69955   0.02218   0.65155   0.00000  Uiso   1.00
C23    C     0.68658   0.00558   0.73226   0.00000  Uiso   1.00
H24    H     0.64423   0.14333   0.67599   0.00000  Uiso   1.00
H25    H     0.72511   0.23709   0.66208   0.00000  Uiso   1.00
H26    H     0.56303   0.11489   0.58223   0.00000  Uiso   1.00
H27    H     0.63846   0.08416   0.79825   0.00000  Uiso   1.00
H28    H     0.82435   0.33132   0.62362   0.00000  Uiso   1.00
H29    H     0.48259   0.07364   0.45526   0.00000  Uiso   1.00
H30    H     0.64163   0.00883   0.91077   0.00000  Uiso   1.00
H31    H     0.71809   0.06841   0.49862   0.00000  Uiso   1.00
H32    H     0.80302   0.15806   0.47498   0.00000  Uiso   1.00
H33    H     0.64094   0.03586   0.39513   0.00000  Uiso   1.00
H34    H     0.71637   0.00513   0.61114   0.00000  Uiso   1.00
H35    H     0.88758   0.26718   0.47175   0.00000  Uiso   1.00
H36    H     0.54582   0.00949   0.30340   0.00000  Uiso   1.00
H37    H     0.70487   0.94469   0.75890   0.00000  Uiso   1.00
O38    O     0.91049   0.35958   0.53531   0.00000  Uiso   1.00
O39    O     0.46211   0.02150   0.31445   0.00000  Uiso   1.00
O40    O     0.67078   0.93648   0.91206   0.00000  Uiso   1.00
N41    N     0.82758   0.30392   0.59113   0.00000  Uiso   1.00
N42    N     0.50806   0.06301   0.43372   0.00000  Uiso   1.00
N43    N     0.65674   0.00241   0.85958   0.00000  Uiso   1.00
N44    N     0.86161   0.26941   0.50942   0.00000  Uiso   1.00
N45    N     0.54208   0.02849   0.35201   0.00000  Uiso   1.00
N46    N     0.69077   0.96790   0.77786   0.00000  Uiso   1.00
C47    C     0.87383   0.53499   0.63536   0.00000  Uiso   1.00
C48    C     0.83328   0.54862   0.60321   0.00000  Uiso   1.00
C49    C     0.77996   0.52190   0.62169   0.00000  Uiso   1.00
C50    C     0.74942   0.54053   0.58608   0.00000  Uiso   1.00
C51    C     0.68309   0.55502   0.54407   0.00000  Uiso   1.00
C52    C     0.89967   0.52695   0.55982   0.00000  Uiso   1.00
C53    C     0.90217   0.48201   0.54182   0.00000  Uiso   1.00
C54    C     0.92753   0.48240   0.46969   0.00000  Uiso   1.00
C55    C     0.96431   0.46327   0.36034   0.00000  Uiso   1.00
C56    C     0.91636   0.58463   0.67719   0.00000  Uiso   1.00
C57    C     0.93291   0.58819   0.75787   0.00000  Uiso   1.00
C58    C     0.97233   0.63714   0.78455   0.00000  Uiso   1.00
C59    C     0.03503   0.70755   0.85743   0.00000  Uiso   1.00
C60    C     0.91442   0.61560   0.53926   0.00000  Uiso   1.00
C61    C     0.85533   0.59240   0.55101   0.00000  Uiso   1.00
C62    C     0.82487   0.61108   0.51537   0.00000  Uiso   1.00
C63    C     0.77151   0.58439   0.53379   0.00000  Uiso   1.00
C64    C     0.92172   0.57073   0.50762   0.00000  Uiso   1.00
C65    C     0.94708   0.57119   0.43550   0.00000  Uiso   1.00
C66    C     0.94962   0.52626   0.41740   0.00000  Uiso   1.00
C67    C     0.93841   0.62841   0.62499   0.00000  Uiso   1.00
C68    C     0.97782   0.67737   0.65155   0.00000  Uiso   1.00
C69    C     0.99442   0.68100   0.73226   0.00000  Uiso   1.00
H70    H     0.85667   0.50091   0.67599   0.00000  Uiso   1.00
H71    H     0.76291   0.48802   0.66208   0.00000  Uiso   1.00
H72    H     0.88511   0.44814   0.58223   0.00000  Uiso   1.00
H73    H     0.91584   0.55430   0.79825   0.00000  Uiso   1.00
H74    H     0.66868   0.49302   0.62362   0.00000  Uiso   1.00
H75    H     0.92636   0.40895   0.45526   0.00000  Uiso   1.00
H76    H     0.99117   0.63280   0.91077   0.00000  Uiso   1.00
H77    H     0.93159   0.64968   0.49862   0.00000  Uiso   1.00
H78    H     0.84194   0.64496   0.47498   0.00000  Uiso   1.00
H79    H     0.96414   0.60508   0.39513   0.00000  Uiso   1.00
H80    H     0.99487   0.71124   0.61114   0.00000  Uiso   1.00
H81    H     0.73282   0.62040   0.47175   0.00000  Uiso   1.00
H82    H     0.99051   0.53633   0.30340   0.00000  Uiso   1.00
H83    H     0.05531   0.76018   0.75890   0.00000  Uiso   1.00
O84    O     0.64042   0.55091   0.53531   0.00000  Uiso   1.00
O85    O     0.97850   0.44061   0.31445   0.00000  Uiso   1.00
O86    O     0.06352   0.73430   0.91206   0.00000  Uiso   1.00
N87    N     0.69608   0.52366   0.59113   0.00000  Uiso   1.00
N88    N     0.93699   0.44505   0.43372   0.00000  Uiso   1.00
N89    N     0.99759   0.65433   0.85958   0.00000  Uiso   1.00
N90    N     0.73059   0.59220   0.50942   0.00000  Uiso   1.00
N91    N     0.97151   0.51359   0.35201   0.00000  Uiso   1.00
N92    N     0.03210   0.72287   0.77786   0.00000  Uiso   1.00
C93    C     0.46501   0.33884   0.63536   0.00000  Uiso   1.00
C94    C     0.45138   0.28466   0.60321   0.00000  Uiso   1.00
C95    C     0.47810   0.25806   0.62169   0.00000  Uiso   1.00
C96    C     0.45947   0.20889   0.58608   0.00000  Uiso   1.00
C97    C     0.44498   0.12807   0.54407   0.00000  Uiso   1.00
C98    C     0.47305   0.37272   0.55982   0.00000  Uiso   1.00
C99    C     0.51799   0.42016   0.54182   0.00000  Uiso   1.00
C100   C     0.51760   0.44513   0.46969   0.00000  Uiso   1.00
C101   C     0.53673   0.50104   0.36034   0.00000  Uiso   1.00
C102   C     0.41537   0.33173   0.67719   0.00000  Uiso   1.00
C103   C     0.41181   0.34473   0.75787   0.00000  Uiso   1.00
C104   C     0.36286   0.33520   0.78455   0.00000  Uiso   1.00
C105   C     0.29245   0.32748   0.85743   0.00000  Uiso   1.00
C106   C     0.38440   0.29883   0.53926   0.00000  Uiso   1.00
C107   C     0.40760   0.26293   0.55101   0.00000  Uiso   1.00
C108   C     0.38892   0.21379   0.51537   0.00000  Uiso   1.00
C109   C     0.41561   0.18712   0.53379   0.00000  Uiso   1.00
C110   C     0.42927   0.35099   0.50762   0.00000  Uiso   1.00
C111   C     0.42881   0.37589   0.43550   0.00000  Uiso   1.00
C112   C     0.47374   0.42335   0.41740   0.00000  Uiso   1.00
C113   C     0.37159   0.31000   0.62499   0.00000  Uiso   1.00
C114   C     0.32263   0.30045   0.65155   0.00000  Uiso   1.00
C115   C     0.31900   0.31342   0.73226   0.00000  Uiso   1.00
H116   H     0.49909   0.35577   0.67599   0.00000  Uiso   1.00
H117   H     0.51198   0.27489   0.66208   0.00000  Uiso   1.00
H118   H     0.55186   0.43697   0.58223   0.00000  Uiso   1.00
H119   H     0.44570   0.36154   0.79825   0.00000  Uiso   1.00
H120   H     0.50698   0.17565   0.62362   0.00000  Uiso   1.00
H121   H     0.59105   0.51741   0.45526   0.00000  Uiso   1.00
H122   H     0.36720   0.35837   0.91077   0.00000  Uiso   1.00
H123   H     0.35032   0.28191   0.49862   0.00000  Uiso   1.00
H124   H     0.35504   0.19698   0.47498   0.00000  Uiso   1.00
H125   H     0.39492   0.35906   0.39513   0.00000  Uiso   1.00
H126   H     0.28876   0.28363   0.61114   0.00000  Uiso   1.00
H127   H     0.37960   0.11242   0.47175   0.00000  Uiso   1.00
H128   H     0.46367   0.45418   0.30340   0.00000  Uiso   1.00
H129   H     0.23982   0.29513   0.75890   0.00000  Uiso   1.00
O130   O     0.44909   0.08951   0.53531   0.00000  Uiso   1.00
O131   O     0.55939   0.53789   0.31445   0.00000  Uiso   1.00
O132   O     0.26570   0.32922   0.91206   0.00000  Uiso   1.00
N133   N     0.47634   0.17242   0.59113   0.00000  Uiso   1.00
N134   N     0.55495   0.49194   0.43372   0.00000  Uiso   1.00
N135   N     0.34567   0.34326   0.85958   0.00000  Uiso   1.00
N136   N     0.40780   0.13839   0.50942   0.00000  Uiso   1.00
N137   N     0.48641   0.45792   0.35201   0.00000  Uiso   1.00
N138   N     0.27713   0.30923   0.77786   0.00000  Uiso   1.00
C139   C     0.33884   0.87383   0.13536   0.00000  Uiso   1.00
C140   C     0.28466   0.83328   0.10321   0.00000  Uiso   1.00
C141   C     0.25806   0.77996   0.12169   0.00000  Uiso   1.00
C142   C     0.20889   0.74942   0.08608   0.00000  Uiso   1.00
C143   C     0.12807   0.68309   0.04407   0.00000  Uiso   1.00
C144   C     0.37272   0.89967   0.05982   0.00000  Uiso   1.00
C145   C     0.42016   0.90217   0.04182   0.00000  Uiso   1.00
C146   C     0.44513   0.92753   0.96969   0.00000  Uiso   1.00
C147   C     0.50104   0.96431   0.86034   0.00000  Uiso   1.00
C148   C     0.33173   0.91636   0.17719   0.00000  Uiso   1.00
C149   C     0.34473   0.93291   0.25787   0.00000  Uiso   1.00
C150   C     0.33520   0.97233   0.28455   0.00000  Uiso   1.00
C151   C     0.32748   0.03503   0.35743   0.00000  Uiso   1.00
C152   C     0.29883   0.91442   0.03926   0.00000  Uiso   1.00
C153   C     0.26293   0.85533   0.05101   0.00000  Uiso   1.00
C154   C     0.21379   0.82487   0.01537   0.00000  Uiso   1.00
C155   C     0.18712   0.77151   0.03379   0.00000  Uiso   1.00
C156   C     0.35099   0.92172   0.00762   0.00000  Uiso   1.00
C157   C     0.37589   0.94708   0.93550   0.00000  Uiso   1.00
C158   C     0.42335   0.94962   0.91740   0.00000  Uiso   1.00
C159   C     0.31000   0.93841   0.12499   0.00000  Uiso   1.00
C160   C     0.30045   0.97782   0.15155   0.00000  Uiso   1.00
C161   C     0.31342   0.99442   0.23226   0.00000  Uiso   1.00
H162   H     0.35577   0.85667   0.17599   0.00000  Uiso   1.00
H163   H     0.27489   0.76291   0.16208   0.00000  Uiso   1.00
H164   H     0.43697   0.88511   0.08223   0.00000  Uiso   1.00
H165   H     0.36154   0.91584   0.29825   0.00000  Uiso   1.00
H166   H     0.17565   0.66868   0.12362   0.00000  Uiso   1.00
H167   H     0.51741   0.92636   0.95526   0.00000  Uiso   1.00
H168   H     0.35837   0.99117   0.41077   0.00000  Uiso   1.00
H169   H     0.28191   0.93159   0.99862   0.00000  Uiso   1.00
H170   H     0.19698   0.84194   0.97498   0.00000  Uiso   1.00
H171   H     0.35906   0.96414   0.89513   0.00000  Uiso   1.00
H172   H     0.28363   0.99487   0.11114   0.00000  Uiso   1.00
H173   H     0.11242   0.73282   0.97175   0.00000  Uiso   1.00
H174   H     0.45418   0.99051   0.80340   0.00000  Uiso   1.00
H175   H     0.29513   0.05531   0.25890   0.00000  Uiso   1.00
O176   O     0.08951   0.64042   0.03531   0.00000  Uiso   1.00
O177   O     0.53789   0.97850   0.81445   0.00000  Uiso   1.00
O178   O     0.32922   0.06352   0.41206   0.00000  Uiso   1.00
N179   N     0.17242   0.69608   0.09113   0.00000  Uiso   1.00
N180   N     0.49194   0.93699   0.93372   0.00000  Uiso   1.00
N181   N     0.34326   0.99759   0.35958   0.00000  Uiso   1.00
N182   N     0.13839   0.73059   0.00942   0.00000  Uiso   1.00
N183   N     0.45792   0.97151   0.85201   0.00000  Uiso   1.00
N184   N     0.30923   0.03210   0.27786   0.00000  Uiso   1.00
C185   C     0.12617   0.46501   0.13536   0.00000  Uiso   1.00
C186   C     0.16672   0.45138   0.10321   0.00000  Uiso   1.00
C187   C     0.22004   0.47810   0.12169   0.00000  Uiso   1.00
C188   C     0.25058   0.45947   0.08608   0.00000  Uiso   1.00
C189   C     0.31691   0.44498   0.04407   0.00000  Uiso   1.00
C190   C     0.10033   0.47305   0.05982   0.00000  Uiso   1.00
C191   C     0.09783   0.51799   0.04182   0.00000  Uiso   1.00
C192   C     0.07247   0.51760   0.96969   0.00000  Uiso   1.00
C193   C     0.03569   0.53673   0.86034   0.00000  Uiso   1.00
C194   C     0.08364   0.41537   0.17719   0.00000  Uiso   1.00
C195   C     0.06709   0.41181   0.25787   0.00000  Uiso   1.00
C196   C     0.02767   0.36286   0.28455   0.00000  Uiso   1.00
C197   C     0.96497   0.29245   0.35743   0.00000  Uiso   1.00
C198   C     0.08558   0.38440   0.03926   0.00000  Uiso   1.00
C199   C     0.14467   0.40760   0.05101   0.00000  Uiso   1.00
C200   C     0.17513   0.38892   0.01537   0.00000  Uiso   1.00
C201   C     0.22849   0.41561   0.03379   0.00000  Uiso   1.00
C202   C     0.07828   0.42927   0.00762   0.00000  Uiso   1.00
C203   C     0.05292   0.42881   0.93550   0.00000  Uiso   1.00
C204   C     0.05038   0.47374   0.91740   0.00000  Uiso   1.00
C205   C     0.06159   0.37159   0.12499   0.00000  Uiso   1.00
C206   C     0.02218   0.32263   0.15155   0.00000  Uiso   1.00
C207   C     0.00558   0.31900   0.23226   0.00000  Uiso   1.00
H208   H     0.14333   0.49909   0.17599   0.00000  Uiso   1.00
H209   H     0.23709   0.51198   0.16208   0.00000  Uiso   1.00
H210   H     0.11489   0.55186   0.08223   0.00000  Uiso   1.00
H211   H     0.08416   0.44570   0.29825   0.00000  Uiso   1.00
H212   H     0.33132   0.50698   0.12362   0.00000  Uiso   1.00
H213   H     0.07364   0.59105   0.95526   0.00000  Uiso   1.00
H214   H     0.00883   0.36720   0.41077   0.00000  Uiso   1.00
H215   H     0.06841   0.35032   0.99862   0.00000  Uiso   1.00
H216   H     0.15806   0.35504   0.97498   0.00000  Uiso   1.00
H217   H     0.03586   0.39492   0.89513   0.00000  Uiso   1.00
H218   H     0.00513   0.28876   0.11114   0.00000  Uiso   1.00
H219   H     0.26718   0.37960   0.97175   0.00000  Uiso   1.00
H220   H     0.00949   0.46367   0.80340   0.00000  Uiso   1.00
H221   H     0.94469   0.23982   0.25890   0.00000  Uiso   1.00
O222   O     0.35958   0.44909   0.03531   0.00000  Uiso   1.00
O223   O     0.02150   0.55939   0.81445   0.00000  Uiso   1.00
O224   O     0.93648   0.26570   0.41206   0.00000  Uiso   1.00
N225   N     0.30392   0.47634   0.09113   0.00000  Uiso   1.00
N226   N     0.06301   0.55495   0.93372   0.00000  Uiso   1.00
N227   N     0.00241   0.34567   0.35958   0.00000  Uiso   1.00
N228   N     0.26941   0.40780   0.00942   0.00000  Uiso   1.00
N229   N     0.02849   0.48641   0.85201   0.00000  Uiso   1.00
N230   N     0.96790   0.27713   0.27786   0.00000  Uiso   1.00
C231   C     0.53499   0.66116   0.13536   0.00000  Uiso   1.00
C232   C     0.54862   0.71534   0.10321   0.00000  Uiso   1.00
C233   C     0.52190   0.74194   0.12169   0.00000  Uiso   1.00
C234   C     0.54053   0.79111   0.08608   0.00000  Uiso   1.00
C235   C     0.55502   0.87193   0.04407   0.00000  Uiso   1.00
C236   C     0.52695   0.62728   0.05982   0.00000  Uiso   1.00
C237   C     0.48201   0.57984   0.04182   0.00000  Uiso   1.00
C238   C     0.48240   0.55487   0.96969   0.00000  Uiso   1.00
C239   C     0.46327   0.49896   0.86034   0.00000  Uiso   1.00
C240   C     0.58463   0.66827   0.17719   0.00000  Uiso   1.00
C241   C     0.58819   0.65527   0.25787   0.00000  Uiso   1.00
C242   C     0.63714   0.66480   0.28455   0.00000  Uiso   1.00
C243   C     0.70755   0.67252   0.35743   0.00000  Uiso   1.00
C244   C     0.61560   0.70117   0.03926   0.00000  Uiso   1.00
C245   C     0.59240   0.73707   0.05101   0.00000  Uiso   1.00
C246   C     0.61108   0.78621   0.01537   0.00000  Uiso   1.00
C247   C     0.58439   0.81288   0.03379   0.00000  Uiso   1.00
C248   C     0.57073   0.64901   0.00762   0.00000  Uiso   1.00
C249   C     0.57119   0.62411   0.93550   0.00000  Uiso   1.00
C250   C     0.52626   0.57665   0.91740   0.00000  Uiso   1.00
C251   C     0.62841   0.69000   0.12499   0.00000  Uiso   1.00
C252   C     0.67737   0.69955   0.15155   0.00000  Uiso   1.00
C253   C     0.68100   0.68658   0.23226   0.00000  Uiso   1.00
H254   H     0.50091   0.64423   0.17599   0.00000  Uiso   1.00
H255   H     0.48802   0.72511   0.16208   0.00000  Uiso   1.00
H256   H     0.44814   0.56303   0.08223   0.00000  Uiso   1.00
H257   H     0.55430   0.63846   0.29825   0.00000  Uiso   1.00
H258   H     0.49302   0.82435   0.12362   0.00000  Uiso   1.00
H259   H     0.40895   0.48259   0.95526   0.00000  Uiso   1.00
H260   H     0.63280   0.64163   0.41077   0.00000  Uiso   1.00
H261   H     0.64968   0.71809   0.99862   0.00000  Uiso   1.00
H262   H     0.64496   0.80302   0.97498   0.00000  Uiso   1.00
H263   H     0.60508   0.64094   0.89513   0.00000  Uiso   1.00
H264   H     0.71124   0.71637   0.11114   0.00000  Uiso   1.00
H265   H     0.62040   0.88758   0.97175   0.00000  Uiso   1.00
H266   H     0.53633   0.54582   0.80340   0.00000  Uiso   1.00
H267   H     0.76018   0.70487   0.25890   0.00000  Uiso   1.00
O268   O     0.55091   0.91049   0.03531   0.00000  Uiso   1.00
O269   O     0.44061   0.46211   0.81445   0.00000  Uiso   1.00
O270   O     0.73430   0.67078   0.41206   0.00000  Uiso   1.00
N271   N     0.52366   0.82758   0.09113   0.00000  Uiso   1.00
N272   N     0.44505   0.50806   0.93372   0.00000  Uiso   1.00
N273   N     0.65433   0.65674   0.35958   0.00000  Uiso   1.00
N274   N     0.59220   0.86161   0.00942   0.00000  Uiso   1.00
N275   N     0.51359   0.54208   0.85201   0.00000  Uiso   1.00
N276   N     0.72287   0.69077   0.27786   0.00000  Uiso   1.00
C277   C     0.12617   0.66116   0.36464   0.00000  Uiso   1.00
C278   C     0.16672   0.71534   0.39679   0.00000  Uiso   1.00
C279   C     0.22004   0.74194   0.37831   0.00000  Uiso   1.00
C280   C     0.25058   0.79111   0.41392   0.00000  Uiso   1.00
C281   C     0.31691   0.87193   0.45593   0.00000  Uiso   1.00
C282   C     0.10033   0.62728   0.44018   0.00000  Uiso   1.00
C283   C     0.09783   0.57984   0.45818   0.00000  Uiso   1.00
C284   C     0.07247   0.55487   0.53031   0.00000  Uiso   1.00
C285   C     0.03569   0.49896   0.63966   0.00000  Uiso   1.00
C286   C     0.08364   0.66827   0.32281   0.00000  Uiso   1.00
C287   C     0.06709   0.65527   0.24213   0.00000  Uiso   1.00
C288   C     0.02767   0.66480   0.21545   0.00000  Uiso   1.00
C289   C     0.96497   0.67252   0.14257   0.00000  Uiso   1.00
C290   C     0.08558   0.70117   0.46074   0.00000  Uiso   1.00
C291   C     0.14467   0.73707   0.44899   0.00000  Uiso   1.00
C292   C     0.17513   0.78621   0.48463   0.00000  Uiso   1.00
C293   C     0.22849   0.81288   0.46621   0.00000  Uiso   1.00
C294   C     0.07828   0.64901   0.49238   0.00000  Uiso   1.00
C295   C     0.05292   0.62411   0.56450   0.00000  Uiso   1.00
C296   C     0.05038   0.57665   0.58260   0.00000  Uiso   1.00
C297   C     0.06159   0.69000   0.37501   0.00000  Uiso   1.00
C298   C     0.02218   0.69955   0.34845   0.00000  Uiso   1.00
C299   C     0.00558   0.68658   0.26774   0.00000  Uiso   1.00
H300   H     0.14333   0.64423   0.32401   0.00000  Uiso   1.00
H301   H     0.23709   0.72511   0.33792   0.00000  Uiso   1.00
H302   H     0.11489   0.56303   0.41777   0.00000  Uiso   1.00
H303   H     0.08416   0.63846   0.20175   0.00000  Uiso   1.00
H304   H     0.33132   0.82435   0.37638   0.00000  Uiso   1.00
H305   H     0.07364   0.48259   0.54474   0.00000  Uiso   1.00
H306   H     0.00883   0.64163   0.08923   0.00000  Uiso   1.00
H307   H     0.06841   0.71809   0.50138   0.00000  Uiso   1.00
H308   H     0.15806   0.80302   0.52502   0.00000  Uiso   1.00
H309   H     0.03586   0.64094   0.60487   0.00000  Uiso   1.00
H310   H     0.00513   0.71637   0.38886   0.00000  Uiso   1.00
H311   H     0.26718   0.88758   0.52825   0.00000  Uiso   1.00
H312   H     0.00949   0.54582   0.69660   0.00000  Uiso   1.00
H313   H     0.94469   0.70487   0.24110   0.00000  Uiso   1.00
O314   O     0.35958   0.91049   0.46469   0.00000  Uiso   1.00
O315   O     0.02150   0.46211   0.68555   0.00000  Uiso   1.00
O316   O     0.93648   0.67078   0.08794   0.00000  Uiso   1.00
N317   N     0.30392   0.82758   0.40887   0.00000  Uiso   1.00
N318   N     0.06301   0.50806   0.56628   0.00000  Uiso   1.00
N319   N     0.00241   0.65674   0.14042   0.00000  Uiso   1.00
N320   N     0.26941   0.86161   0.49058   0.00000  Uiso   1.00
N321   N     0.02849   0.54208   0.64799   0.00000  Uiso   1.00
N322   N     0.96790   0.69077   0.22214   0.00000  Uiso   1.00
C323   C     0.53499   0.87383   0.36464   0.00000  Uiso   1.00
C324   C     0.54862   0.83328   0.39679   0.00000  Uiso   1.00
C325   C     0.52190   0.77996   0.37831   0.00000  Uiso   1.00
C326   C     0.54053   0.74942   0.41392   0.00000  Uiso   1.00
C327   C     0.55502   0.68309   0.45593   0.00000  Uiso   1.00
C328   C     0.52695   0.89967   0.44018   0.00000  Uiso   1.00
C329   C     0.48201   0.90217   0.45818   0.00000  Uiso   1.00
C330   C     0.48240   0.92753   0.53031   0.00000  Uiso   1.00
C331   C     0.46327   0.96431   0.63966   0.00000  Uiso   1.00
C332   C     0.58463   0.91636   0.32281   0.00000  Uiso   1.00
C333   C     0.58819   0.93291   0.24213   0.00000  Uiso   1.00
C334   C     0.63714   0.97233   0.21545   0.00000  Uiso   1.00
C335   C     0.70755   0.03503   0.14257   0.00000  Uiso   1.00
C336   C     0.61560   0.91442   0.46074   0.00000  Uiso   1.00
C337   C     0.59240   0.85533   0.44899   0.00000  Uiso   1.00
C338   C     0.61108   0.82487   0.48463   0.00000  Uiso   1.00
C339   C     0.58439   0.77151   0.46621   0.00000  Uiso   1.00
C340   C     0.57073   0.92172   0.49238   0.00000  Uiso   1.00
C341   C     0.57119   0.94708   0.56450   0.00000  Uiso   1.00
C342   C     0.52626   0.94962   0.58260   0.00000  Uiso   1.00
C343   C     0.62841   0.93841   0.37501   0.00000  Uiso   1.00
C344   C     0.67737   0.97782   0.34845   0.00000  Uiso   1.00
C345   C     0.68100   0.99442   0.26774   0.00000  Uiso   1.00
H346   H     0.50091   0.85667   0.32401   0.00000  Uiso   1.00
H347   H     0.48802   0.76291   0.33792   0.00000  Uiso   1.00
H348   H     0.44814   0.88511   0.41777   0.00000  Uiso   1.00
H349   H     0.55430   0.91584   0.20175   0.00000  Uiso   1.00
H350   H     0.49302   0.66868   0.37638   0.00000  Uiso   1.00
H351   H     0.40895   0.92636   0.54474   0.00000  Uiso   1.00
H352   H     0.63280   0.99117   0.08923   0.00000  Uiso   1.00
H353   H     0.64968   0.93159   0.50138   0.00000  Uiso   1.00
H354   H     0.64496   0.84194   0.52502   0.00000  Uiso   1.00
H355   H     0.60508   0.96414   0.60487   0.00000  Uiso   1.00
H356   H     0.71124   0.99487   0.38886   0.00000  Uiso   1.00
H357   H     0.62040   0.73282   0.52825   0.00000  Uiso   1.00
H358   H     0.53633   0.99051   0.69660   0.00000  Uiso   1.00
H359   H     0.76018   0.05531   0.24110   0.00000  Uiso   1.00
O360   O     0.55091   0.64042   0.46469   0.00000  Uiso   1.00
O361   O     0.44061   0.97850   0.68555   0.00000  Uiso   1.00
O362   O     0.73430   0.06352   0.08794   0.00000  Uiso   1.00
N363   N     0.52366   0.69608   0.40887   0.00000  Uiso   1.00
N364   N     0.44505   0.93699   0.56628   0.00000  Uiso   1.00
N365   N     0.65433   0.99759   0.14042   0.00000  Uiso   1.00
N366   N     0.59220   0.73059   0.49058   0.00000  Uiso   1.00
N367   N     0.51359   0.97151   0.64799   0.00000  Uiso   1.00
N368   N     0.72287   0.03210   0.22214   0.00000  Uiso   1.00
C369   C     0.33884   0.46501   0.36464   0.00000  Uiso   1.00
C370   C     0.28466   0.45138   0.39679   0.00000  Uiso   1.00
C371   C     0.25806   0.47810   0.37831   0.00000  Uiso   1.00
C372   C     0.20889   0.45947   0.41392   0.00000  Uiso   1.00
C373   C     0.12807   0.44498   0.45593   0.00000  Uiso   1.00
C374   C     0.37272   0.47305   0.44018   0.00000  Uiso   1.00
C375   C     0.42016   0.51799   0.45818   0.00000  Uiso   1.00
C376   C     0.44513   0.51760   0.53031   0.00000  Uiso   1.00
C377   C     0.50104   0.53673   0.63966   0.00000  Uiso   1.00
C378   C     0.33173   0.41537   0.32281   0.00000  Uiso   1.00
C379   C     0.34473   0.41181   0.24213   0.00000  Uiso   1.00
C380   C     0.33520   0.36286   0.21545   0.00000  Uiso   1.00
C381   C     0.32748   0.29245   0.14257   0.00000  Uiso   1.00
C382   C     0.29883   0.38440   0.46074   0.00000  Uiso   1.00
C383   C     0.26293   0.40760   0.44899   0.00000  Uiso   1.00
C384   C     0.21379   0.38892   0.48463   0.00000  Uiso   1.00
C385   C     0.18712   0.41561   0.46621   0.00000  Uiso   1.00
C386   C     0.35099   0.42927   0.49238   0.00000  Uiso   1.00
C387   C     0.37589   0.42881   0.56450   0.00000  Uiso   1.00
C388   C     0.42335   0.47374   0.58260   0.00000  Uiso   1.00
C389   C     0.31000   0.37159   0.37501   0.00000  Uiso   1.00
C390   C     0.30045   0.32263   0.34845   0.00000  Uiso   1.00
C391   C     0.31342   0.31900   0.26774   0.00000  Uiso   1.00
H392   H     0.35577   0.49909   0.32401   0.00000  Uiso   1.00
H393   H     0.27489   0.51198   0.33792   0.00000  Uiso   1.00
H394   H     0.43697   0.55186   0.41777   0.00000  Uiso   1.00
H395   H     0.36154   0.44570   0.20175   0.00000  Uiso   1.00
H396   H     0.17565   0.50698   0.37638   0.00000  Uiso   1.00
H397   H     0.51741   0.59105   0.54474   0.00000  Uiso   1.00
H398   H     0.35837   0.36720   0.08923   0.00000  Uiso   1.00
H399   H     0.28191   0.35032   0.50138   0.00000  Uiso   1.00
H400   H     0.19698   0.35504   0.52502   0.00000  Uiso   1.00
H401   H     0.35906   0.39492   0.60487   0.00000  Uiso   1.00
H402   H     0.28363   0.28876   0.38886   0.00000  Uiso   1.00
H403   H     0.11242   0.37960   0.52825   0.00000  Uiso   1.00
H404   H     0.45418   0.46367   0.69660   0.00000  Uiso   1.00
H405   H     0.29513   0.23982   0.24110   0.00000  Uiso   1.00
O406   O     0.08951   0.44909   0.46469   0.00000  Uiso   1.00
O407   O     0.53789   0.55939   0.68555   0.00000  Uiso   1.00
O408   O     0.32922   0.26570   0.08794   0.00000  Uiso   1.00
N409   N     0.17242   0.47634   0.40887   0.00000  Uiso   1.00
N410   N     0.49194   0.55495   0.56628   0.00000  Uiso   1.00
N411   N     0.34326   0.34567   0.14042   0.00000  Uiso   1.00
N412   N     0.13839   0.40780   0.49058   0.00000  Uiso   1.00
N413   N     0.45792   0.48641   0.64799   0.00000  Uiso   1.00
N414   N     0.30923   0.27713   0.22214   0.00000  Uiso   1.00
C415   C     0.87383   0.33884   0.86464   0.00000  Uiso   1.00
C416   C     0.83328   0.28466   0.89679   0.00000  Uiso   1.00
C417   C     0.77996   0.25806   0.87831   0.00000  Uiso   1.00
C418   C     0.74942   0.20889   0.91392   0.00000  Uiso   1.00
C419   C     0.68309   0.12807   0.95593   0.00000  Uiso   1.00
C420   C     0.89967   0.37272   0.94018   0.00000  Uiso   1.00
C421   C     0.90217   0.42016   0.95818   0.00000  Uiso   1.00
C422   C     0.92753   0.44513   0.03031   0.00000  Uiso   1.00
C423   C     0.96431   0.50104   0.13966   0.00000  Uiso   1.00
C424   C     0.91636   0.33173   0.82281   0.00000  Uiso   1.00
C425   C     0.93291   0.34473   0.74213   0.00000  Uiso   1.00
C426   C     0.97233   0.33520   0.71545   0.00000  Uiso   1.00
C427   C     0.03503   0.32748   0.64257   0.00000  Uiso   1.00
C428   C     0.91442   0.29883   0.96074   0.00000  Uiso   1.00
C429   C     0.85533   0.26293   0.94899   0.00000  Uiso   1.00
C430   C     0.82487   0.21379   0.98463   0.00000  Uiso   1.00
C431   C     0.77151   0.18712   0.96621   0.00000  Uiso   1.00
C432   C     0.92172   0.35099   0.99238   0.00000  Uiso   1.00
C433   C     0.94708   0.37589   0.06450   0.00000  Uiso   1.00
C434   C     0.94962   0.42335   0.08260   0.00000  Uiso   1.00
C435   C     0.93841   0.31000   0.87501   0.00000  Uiso   1.00
C436   C     0.97782   0.30045   0.84845   0.00000  Uiso   1.00
C437   C     0.99442   0.31342   0.76774   0.00000  Uiso   1.00
H438   H     0.85667   0.35577   0.82401   0.00000  Uiso   1.00
H439   H     0.76291   0.27489   0.83792   0.00000  Uiso   1.00
H440   H     0.88511   0.43697   0.91777   0.00000  Uiso   1.00
H441   H     0.91584   0.36154   0.70175   0.00000  Uiso   1.00
H442   H     0.66868   0.17565   0.87638   0.00000  Uiso   1.00
H443   H     0.92636   0.51741   0.04474   0.00000  Uiso   1.00
H444   H     0.99117   0.35837   0.58923   0.00000  Uiso   1.00
H445   H     0.93159   0.28191   0.00138   0.00000  Uiso   1.00
H446   H     0.84194   0.19698   0.02502   0.00000  Uiso   1.00
H447   H     0.96414   0.35906   0.10487   0.00000  Uiso   1.00
H448   H     0.99487   0.28363   0.88886   0.00000  Uiso   1.00
H449   H     0.73282   0.11242   0.02825   0.00000  Uiso   1.00
H450   H     0.99051   0.45418   0.19660   0.00000  Uiso   1.00
H451   H     0.05531   0.29513   0.74110   0.00000  Uiso   1.00
O452   O     0.64042   0.08951   0.96469   0.00000  Uiso   1.00
O453   O     0.97850   0.53789   0.18555   0.00000  Uiso   1.00
O454   O     0.06352   0.32922   0.58794   0.00000  Uiso   1.00
N455   N     0.69608   0.17242   0.90887   0.00000  Uiso   1.00
N456   N     0.93699   0.49194   0.06628   0.00000  Uiso   1.00
N457   N     0.99759   0.34326   0.64042   0.00000  Uiso   1.00
N458   N     0.73059   0.13839   0.99058   0.00000  Uiso   1.00
N459   N     0.97151   0.45792   0.14799   0.00000  Uiso   1.00
N460   N     0.03210   0.30923   0.72214   0.00000  Uiso   1.00
C461   C     0.46501   0.12617   0.86464   0.00000  Uiso   1.00
C462   C     0.45138   0.16672   0.89679   0.00000  Uiso   1.00
C463   C     0.47810   0.22004   0.87831   0.00000  Uiso   1.00
C464   C     0.45947   0.25058   0.91392   0.00000  Uiso   1.00
C465   C     0.44498   0.31691   0.95593   0.00000  Uiso   1.00
C466   C     0.47305   0.10033   0.94018   0.00000  Uiso   1.00
C467   C     0.51799   0.09783   0.95818   0.00000  Uiso   1.00
C468   C     0.51760   0.07247   0.03031   0.00000  Uiso   1.00
C469   C     0.53673   0.03569   0.13966   0.00000  Uiso   1.00
C470   C     0.41537   0.08364   0.82281   0.00000  Uiso   1.00
C471   C     0.41181   0.06709   0.74213   0.00000  Uiso   1.00
C472   C     0.36286   0.02767   0.71545   0.00000  Uiso   1.00
C473   C     0.29245   0.96497   0.64257   0.00000  Uiso   1.00
C474   C     0.38440   0.08558   0.96074   0.00000  Uiso   1.00
C475   C     0.40760   0.14467   0.94899   0.00000  Uiso   1.00
C476   C     0.38892   0.17513   0.98463   0.00000  Uiso   1.00
C477   C     0.41561   0.22849   0.96621   0.00000  Uiso   1.00
C478   C     0.42927   0.07828   0.99238   0.00000  Uiso   1.00
C479   C     0.42881   0.05292   0.06450   0.00000  Uiso   1.00
C480   C     0.47374   0.05038   0.08260   0.00000  Uiso   1.00
C481   C     0.37159   0.06159   0.87501   0.00000  Uiso   1.00
C482   C     0.32263   0.02218   0.84845   0.00000  Uiso   1.00
C483   C     0.31900   0.00558   0.76774   0.00000  Uiso   1.00
H484   H     0.49909   0.14333   0.82401   0.00000  Uiso   1.00
H485   H     0.51198   0.23709   0.83792   0.00000  Uiso   1.00
H486   H     0.55186   0.11489   0.91777   0.00000  Uiso   1.00
H487   H     0.44570   0.08416   0.70175   0.00000  Uiso   1.00
H488   H     0.50698   0.33132   0.87638   0.00000  Uiso   1.00
H489   H     0.59105   0.07364   0.04474   0.00000  Uiso   1.00
H490   H     0.36720   0.00883   0.58923   0.00000  Uiso   1.00
H491   H     0.35032   0.06841   0.00138   0.00000  Uiso   1.00
H492   H     0.35504   0.15806   0.02502   0.00000  Uiso   1.00
H493   H     0.39492   0.03586   0.10487   0.00000  Uiso   1.00
H494   H     0.28876   0.00513   0.88886   0.00000  Uiso   1.00
H495   H     0.37960   0.26718   0.02825   0.00000  Uiso   1.00
H496   H     0.46367   0.00949   0.19660   0.00000  Uiso   1.00
H497   H     0.23982   0.94469   0.74110   0.00000  Uiso   1.00
O498   O     0.44909   0.35958   0.96469   0.00000  Uiso   1.00
O499   O     0.55939   0.02150   0.18555   0.00000  Uiso   1.00
O500   O     0.26570   0.93648   0.58794   0.00000  Uiso   1.00
N501   N     0.47634   0.30392   0.90887   0.00000  Uiso   1.00
N502   N     0.55495   0.06301   0.06628   0.00000  Uiso   1.00
N503   N     0.34567   0.00241   0.64042   0.00000  Uiso   1.00
N504   N     0.40780   0.26941   0.99058   0.00000  Uiso   1.00
N505   N     0.48641   0.02849   0.14799   0.00000  Uiso   1.00
N506   N     0.27713   0.96790   0.72214   0.00000  Uiso   1.00
C507   C     0.66116   0.53499   0.86464   0.00000  Uiso   1.00
C508   C     0.71534   0.54862   0.89679   0.00000  Uiso   1.00
C509   C     0.74194   0.52190   0.87831   0.00000  Uiso   1.00
C510   C     0.79111   0.54053   0.91392   0.00000  Uiso   1.00
C511   C     0.87193   0.55502   0.95593   0.00000  Uiso   1.00
C512   C     0.62728   0.52695   0.94018   0.00000  Uiso   1.00
C513   C     0.57984   0.48201   0.95818   0.00000  Uiso   1.00
C514   C     0.55487   0.48240   0.03031   0.00000  Uiso   1.00
C515   C     0.49896   0.46327   0.13966   0.00000  Uiso   1.00
C516   C     0.66827   0.58463   0.82281   0.00000  Uiso   1.00
C517   C     0.65527   0.58819   0.74213   0.00000  Uiso   1.00
C518   C     0.66480   0.63714   0.71545   0.00000  Uiso   1.00
C519   C     0.67252   0.70755   0.64257   0.00000  Uiso   1.00
C520   C     0.70117   0.61560   0.96074   0.00000  Uiso   1.00
C521   C     0.73707   0.59240   0.94899   0.00000  Uiso   1.00
C522   C     0.78621   0.61108   0.98463   0.00000  Uiso   1.00
C523   C     0.81288   0.58439   0.96621   0.00000  Uiso   1.00
C524   C     0.64901   0.57073   0.99238   0.00000  Uiso   1.00
C525   C     0.62411   0.57119   0.06450   0.00000  Uiso   1.00
C526   C     0.57665   0.52626   0.08260   0.00000  Uiso   1.00
C527   C     0.69000   0.62841   0.87501   0.00000  Uiso   1.00
C528   C     0.69955   0.67737   0.84845   0.00000  Uiso   1.00
C529   C     0.68658   0.68100   0.76774   0.00000  Uiso   1.00
H530   H     0.64423   0.50091   0.82401   0.00000  Uiso   1.00
H531   H     0.72511   0.48802   0.83792   0.00000  Uiso   1.00
H532   H     0.56303   0.44814   0.91777   0.00000  Uiso   1.00
H533   H     0.63846   0.55430   0.70175   0.00000  Uiso   1.00
H534   H     0.82435   0.49302   0.87638   0.00000  Uiso   1.00
H535   H     0.48259   0.40895   0.04474   0.00000  Uiso   1.00
H536   H     0.64163   0.63280   0.58923   0.00000  Uiso   1.00
H537   H     0.71809   0.64968   0.00138   0.00000  Uiso   1.00
H538   H     0.80302   0.64496   0.02502   0.00000  Uiso   1.00
H539   H     0.64094   0.60508   0.10487   0.00000  Uiso   1.00
H540   H     0.71637   0.71124   0.88886   0.00000  Uiso   1.00
H541   H     0.88758   0.62040   0.02825   0.00000  Uiso   1.00
H542   H     0.54582   0.53633   0.19660   0.00000  Uiso   1.00
H543   H     0.70487   0.76018   0.74110   0.00000  Uiso   1.00
O544   O     0.91049   0.55091   0.96469   0.00000  Uiso   1.00
O545   O     0.46211   0.44061   0.18555   0.00000  Uiso   1.00
O546   O     0.67078   0.73430   0.58794   0.00000  Uiso   1.00
N547   N     0.82758   0.52366   0.90887   0.00000  Uiso   1.00
N548   N     0.50806   0.44505   0.06628   0.00000  Uiso   1.00
N549   N     0.65674   0.65433   0.64042   0.00000  Uiso   1.00
N550   N     0.86161   0.59220   0.99058   0.00000  Uiso   1.00
N551   N     0.54208   0.51359   0.14799   0.00000  Uiso   1.00
N552   N     0.69077   0.72287   0.72214   0.00000  Uiso   1.00
