data_job_00558
_audit_creation_date              2018-12-19
_audit_creation_method            'Materials Studio'
_symmetry_space_group_name_H-M    'P1'
_symmetry_Int_Tables_number       1
_symmetry_cell_setting            triclinic
loop_
_symmetry_equiv_pos_as_xyz
  x,y,z
_cell_length_a                    15.0129
_cell_length_b                    17.9943
_cell_length_c                    21.2934
_cell_angle_alpha                 90.0000
_cell_angle_beta                  115.5755
_cell_angle_gamma                 90.0000
loop_
_atom_site_label
_atom_site_type_symbol
_atom_site_fract_x
_atom_site_fract_y
_atom_site_fract_z
_atom_site_U_iso_or_equiv
_atom_site_adp_type
_atom_site_occupancy
C1     C     0.73571   0.21661   0.22589   0.00000  Uiso   1.00
C2     C     0.80534   0.19822   0.19300   0.00000  Uiso   1.00
C3     C     0.83976   0.12790   0.18807   0.00000  Uiso   1.00
C4     C     0.90292   0.12270   0.15613   0.00000  Uiso   1.00
C5     C     0.00687   0.08458   0.10904   0.00000  Uiso   1.00
C6     C     0.78900   0.27444   0.28201   0.00000  Uiso   1.00
C7     C     0.80967   0.26821   0.35191   0.00000  Uiso   1.00
C8     C     0.85906   0.32719   0.39489   0.00000  Uiso   1.00
C9     C     0.93758   0.40744   0.48598   0.00000  Uiso   1.00
C10    C     0.64772   0.25653   0.16981   0.00000  Uiso   1.00
C11    C     0.54959   0.23526   0.14539   0.00000  Uiso   1.00
C12    C     0.48003   0.27917   0.09392   0.00000  Uiso   1.00
C13    C     0.33919   0.33160   0.01081   0.00000  Uiso   1.00
C14    C     0.78668   0.33243   0.17792   0.00000  Uiso   1.00
C15    C     0.83303   0.26113   0.16694   0.00000  Uiso   1.00
C16    C     0.89615   0.25604   0.13499   0.00000  Uiso   1.00
C17    C     0.93065   0.18572   0.13002   0.00000  Uiso   1.00
C18    C     0.81669   0.33735   0.25595   0.00000  Uiso   1.00
C19    C     0.86606   0.39635   0.29883   0.00000  Uiso   1.00
C20    C     0.88680   0.39022   0.36879   0.00000  Uiso   1.00
C21    C     0.67540   0.31944   0.14375   0.00000  Uiso   1.00
C22    C     0.60598   0.36340   0.09231   0.00000  Uiso   1.00
C23    C     0.50776   0.34219   0.06782   0.00000  Uiso   1.00
H24    H     0.71416   0.16763   0.24619   0.00000  Uiso   1.00
H25    H     0.81833   0.07923   0.20825   0.00000  Uiso   1.00
H26    H     0.78823   0.21953   0.37206   0.00000  Uiso   1.00
H27    H     0.52820   0.18657   0.16557   0.00000  Uiso   1.00
H28    H     0.94605   0.00896   0.15472   0.00000  Uiso   1.00
H29    H     0.88256   0.30480   0.50013   0.00000  Uiso   1.00
H30    H     0.33422   0.23531   0.06470   0.00000  Uiso   1.00
H31    H     0.80823   0.38141   0.15763   0.00000  Uiso   1.00
H32    H     0.91756   0.30473   0.11483   0.00000  Uiso   1.00
H33    H     0.88746   0.44503   0.27865   0.00000  Uiso   1.00
H34    H     0.62743   0.41207   0.07215   0.00000  Uiso   1.00
H35    H     0.02659   0.19198   0.07890   0.00000  Uiso   1.00
H36    H     0.96310   0.48783   0.42431   0.00000  Uiso   1.00
H37    H     0.41477   0.41834   0.98888   0.00000  Uiso   1.00
O38    O     0.05657   0.04618   0.09028   0.00000  Uiso   1.00
O39    O     0.97325   0.43432   0.54343   0.00000  Uiso   1.00
O40    O     0.25385   0.34314   0.97216   0.00000  Uiso   1.00
N41    N     0.94998   0.06255   0.14274   0.00000  Uiso   1.00
N42    N     0.89064   0.33915   0.46568   0.00000  Uiso   1.00
N43    N     0.37799   0.27419   0.05860   0.00000  Uiso   1.00
N44    N     0.99332   0.16104   0.10194   0.00000  Uiso   1.00
N45    N     0.93398   0.43763   0.42488   0.00000  Uiso   1.00
N46    N     0.42133   0.37267   0.01780   0.00000  Uiso   1.00
C47    C     0.23571   0.71661   0.22589   0.00000  Uiso   1.00
C48    C     0.30534   0.69822   0.19300   0.00000  Uiso   1.00
C49    C     0.33976   0.62790   0.18807   0.00000  Uiso   1.00
C50    C     0.40292   0.62270   0.15613   0.00000  Uiso   1.00
C51    C     0.50687   0.58458   0.10904   0.00000  Uiso   1.00
C52    C     0.28900   0.77444   0.28201   0.00000  Uiso   1.00
C53    C     0.30967   0.76821   0.35191   0.00000  Uiso   1.00
C54    C     0.35906   0.82719   0.39489   0.00000  Uiso   1.00
C55    C     0.43758   0.90744   0.48598   0.00000  Uiso   1.00
C56    C     0.14772   0.75653   0.16981   0.00000  Uiso   1.00
C57    C     0.04959   0.73526   0.14539   0.00000  Uiso   1.00
C58    C     0.98003   0.77917   0.09392   0.00000  Uiso   1.00
C59    C     0.83919   0.83160   0.01081   0.00000  Uiso   1.00
C60    C     0.28668   0.83243   0.17792   0.00000  Uiso   1.00
C61    C     0.33303   0.76113   0.16694   0.00000  Uiso   1.00
C62    C     0.39615   0.75604   0.13499   0.00000  Uiso   1.00
C63    C     0.43065   0.68572   0.13002   0.00000  Uiso   1.00
C64    C     0.31669   0.83735   0.25595   0.00000  Uiso   1.00
C65    C     0.36606   0.89635   0.29883   0.00000  Uiso   1.00
C66    C     0.38680   0.89022   0.36879   0.00000  Uiso   1.00
C67    C     0.17540   0.81944   0.14375   0.00000  Uiso   1.00
C68    C     0.10598   0.86340   0.09231   0.00000  Uiso   1.00
C69    C     0.00776   0.84219   0.06782   0.00000  Uiso   1.00
H70    H     0.21416   0.66763   0.24619   0.00000  Uiso   1.00
H71    H     0.31833   0.57923   0.20825   0.00000  Uiso   1.00
H72    H     0.28823   0.71953   0.37206   0.00000  Uiso   1.00
H73    H     0.02820   0.68657   0.16557   0.00000  Uiso   1.00
H74    H     0.44605   0.50896   0.15472   0.00000  Uiso   1.00
H75    H     0.38256   0.80480   0.50013   0.00000  Uiso   1.00
H76    H     0.83422   0.73531   0.06470   0.00000  Uiso   1.00
H77    H     0.30823   0.88141   0.15763   0.00000  Uiso   1.00
H78    H     0.41756   0.80473   0.11483   0.00000  Uiso   1.00
H79    H     0.38746   0.94503   0.27865   0.00000  Uiso   1.00
H80    H     0.12743   0.91207   0.07215   0.00000  Uiso   1.00
H81    H     0.52659   0.69198   0.07890   0.00000  Uiso   1.00
H82    H     0.46310   0.98783   0.42431   0.00000  Uiso   1.00
H83    H     0.91477   0.91834   0.98888   0.00000  Uiso   1.00
O84    O     0.55657   0.54618   0.09028   0.00000  Uiso   1.00
O85    O     0.47325   0.93432   0.54343   0.00000  Uiso   1.00
O86    O     0.75385   0.84314   0.97216   0.00000  Uiso   1.00
N87    N     0.44998   0.56255   0.14274   0.00000  Uiso   1.00
N88    N     0.39064   0.83915   0.46568   0.00000  Uiso   1.00
N89    N     0.87799   0.77419   0.05860   0.00000  Uiso   1.00
N90    N     0.49332   0.66104   0.10194   0.00000  Uiso   1.00
N91    N     0.43398   0.93763   0.42488   0.00000  Uiso   1.00
N92    N     0.92133   0.87267   0.01780   0.00000  Uiso   1.00
C93    C     0.26429   0.21661   0.27411   0.00000  Uiso   1.00
C94    C     0.19466   0.19822   0.30700   0.00000  Uiso   1.00
C95    C     0.16024   0.12790   0.31193   0.00000  Uiso   1.00
C96    C     0.09708   0.12270   0.34387   0.00000  Uiso   1.00
C97    C     0.99313   0.08458   0.39096   0.00000  Uiso   1.00
C98    C     0.21100   0.27444   0.21799   0.00000  Uiso   1.00
C99    C     0.19033   0.26821   0.14809   0.00000  Uiso   1.00
C100   C     0.14094   0.32719   0.10511   0.00000  Uiso   1.00
C101   C     0.06242   0.40744   0.01402   0.00000  Uiso   1.00
C102   C     0.35228   0.25653   0.33019   0.00000  Uiso   1.00
C103   C     0.45041   0.23526   0.35461   0.00000  Uiso   1.00
C104   C     0.51997   0.27917   0.40608   0.00000  Uiso   1.00
C105   C     0.66081   0.33160   0.48919   0.00000  Uiso   1.00
C106   C     0.21332   0.33243   0.32208   0.00000  Uiso   1.00
C107   C     0.16697   0.26113   0.33306   0.00000  Uiso   1.00
C108   C     0.10385   0.25604   0.36501   0.00000  Uiso   1.00
C109   C     0.06935   0.18572   0.36998   0.00000  Uiso   1.00
C110   C     0.18331   0.33735   0.24405   0.00000  Uiso   1.00
C111   C     0.13394   0.39635   0.20117   0.00000  Uiso   1.00
C112   C     0.11320   0.39022   0.13121   0.00000  Uiso   1.00
C113   C     0.32460   0.31944   0.35625   0.00000  Uiso   1.00
C114   C     0.39402   0.36340   0.40769   0.00000  Uiso   1.00
C115   C     0.49224   0.34219   0.43218   0.00000  Uiso   1.00
H116   H     0.28584   0.16763   0.25381   0.00000  Uiso   1.00
H117   H     0.18167   0.07923   0.29175   0.00000  Uiso   1.00
H118   H     0.21177   0.21953   0.12794   0.00000  Uiso   1.00
H119   H     0.47180   0.18657   0.33443   0.00000  Uiso   1.00
H120   H     0.05395   0.00896   0.34528   0.00000  Uiso   1.00
H121   H     0.11744   0.30480   0.99987   0.00000  Uiso   1.00
H122   H     0.66578   0.23531   0.43530   0.00000  Uiso   1.00
H123   H     0.19177   0.38141   0.34237   0.00000  Uiso   1.00
H124   H     0.08244   0.30473   0.38517   0.00000  Uiso   1.00
H125   H     0.11254   0.44503   0.22135   0.00000  Uiso   1.00
H126   H     0.37257   0.41207   0.42785   0.00000  Uiso   1.00
H127   H     0.97341   0.19198   0.42110   0.00000  Uiso   1.00
H128   H     0.03690   0.48783   0.07569   0.00000  Uiso   1.00
H129   H     0.58523   0.41834   0.51112   0.00000  Uiso   1.00
O130   O     0.94343   0.04618   0.40972   0.00000  Uiso   1.00
O131   O     0.02675   0.43432   0.95657   0.00000  Uiso   1.00
O132   O     0.74615   0.34314   0.52784   0.00000  Uiso   1.00
N133   N     0.05002   0.06255   0.35726   0.00000  Uiso   1.00
N134   N     0.10936   0.33915   0.03432   0.00000  Uiso   1.00
N135   N     0.62201   0.27419   0.44140   0.00000  Uiso   1.00
N136   N     0.00668   0.16104   0.39806   0.00000  Uiso   1.00
N137   N     0.06602   0.43763   0.07512   0.00000  Uiso   1.00
N138   N     0.57867   0.37267   0.48220   0.00000  Uiso   1.00
C139   C     0.76429   0.71661   0.27411   0.00000  Uiso   1.00
C140   C     0.69466   0.69822   0.30700   0.00000  Uiso   1.00
C141   C     0.66024   0.62790   0.31193   0.00000  Uiso   1.00
C142   C     0.59708   0.62270   0.34387   0.00000  Uiso   1.00
C143   C     0.49313   0.58458   0.39096   0.00000  Uiso   1.00
C144   C     0.71100   0.77444   0.21799   0.00000  Uiso   1.00
C145   C     0.69033   0.76821   0.14809   0.00000  Uiso   1.00
C146   C     0.64094   0.82719   0.10511   0.00000  Uiso   1.00
C147   C     0.56242   0.90744   0.01402   0.00000  Uiso   1.00
C148   C     0.85228   0.75653   0.33019   0.00000  Uiso   1.00
C149   C     0.95041   0.73526   0.35461   0.00000  Uiso   1.00
C150   C     0.01997   0.77917   0.40608   0.00000  Uiso   1.00
C151   C     0.16081   0.83160   0.48919   0.00000  Uiso   1.00
C152   C     0.71332   0.83243   0.32208   0.00000  Uiso   1.00
C153   C     0.66697   0.76113   0.33306   0.00000  Uiso   1.00
C154   C     0.60385   0.75604   0.36501   0.00000  Uiso   1.00
C155   C     0.56935   0.68572   0.36998   0.00000  Uiso   1.00
C156   C     0.68331   0.83735   0.24405   0.00000  Uiso   1.00
C157   C     0.63394   0.89635   0.20117   0.00000  Uiso   1.00
C158   C     0.61320   0.89022   0.13121   0.00000  Uiso   1.00
C159   C     0.82460   0.81944   0.35625   0.00000  Uiso   1.00
C160   C     0.89402   0.86340   0.40769   0.00000  Uiso   1.00
C161   C     0.99224   0.84219   0.43218   0.00000  Uiso   1.00
H162   H     0.78584   0.66763   0.25381   0.00000  Uiso   1.00
H163   H     0.68167   0.57923   0.29175   0.00000  Uiso   1.00
H164   H     0.71177   0.71953   0.12794   0.00000  Uiso   1.00
H165   H     0.97180   0.68657   0.33443   0.00000  Uiso   1.00
H166   H     0.55395   0.50896   0.34528   0.00000  Uiso   1.00
H167   H     0.61744   0.80480   0.99987   0.00000  Uiso   1.00
H168   H     0.16578   0.73531   0.43530   0.00000  Uiso   1.00
H169   H     0.69177   0.88141   0.34237   0.00000  Uiso   1.00
H170   H     0.58244   0.80473   0.38517   0.00000  Uiso   1.00
H171   H     0.61254   0.94503   0.22135   0.00000  Uiso   1.00
H172   H     0.87257   0.91207   0.42785   0.00000  Uiso   1.00
H173   H     0.47341   0.69198   0.42110   0.00000  Uiso   1.00
H174   H     0.53690   0.98783   0.07569   0.00000  Uiso   1.00
H175   H     0.08523   0.91834   0.51112   0.00000  Uiso   1.00
O176   O     0.44343   0.54618   0.40972   0.00000  Uiso   1.00
O177   O     0.52675   0.93432   0.95657   0.00000  Uiso   1.00
O178   O     0.24615   0.84314   0.52784   0.00000  Uiso   1.00
N179   N     0.55002   0.56255   0.35726   0.00000  Uiso   1.00
N180   N     0.60936   0.83915   0.03432   0.00000  Uiso   1.00
N181   N     0.12201   0.77419   0.44140   0.00000  Uiso   1.00
N182   N     0.50668   0.66104   0.39806   0.00000  Uiso   1.00
N183   N     0.56602   0.93763   0.07512   0.00000  Uiso   1.00
N184   N     0.07867   0.87267   0.48220   0.00000  Uiso   1.00
C185   C     0.26429   0.78339   0.77411   0.00000  Uiso   1.00
C186   C     0.19466   0.80178   0.80700   0.00000  Uiso   1.00
C187   C     0.16024   0.87210   0.81193   0.00000  Uiso   1.00
C188   C     0.09708   0.87730   0.84387   0.00000  Uiso   1.00
C189   C     0.99313   0.91542   0.89096   0.00000  Uiso   1.00
C190   C     0.21100   0.72556   0.71799   0.00000  Uiso   1.00
C191   C     0.19033   0.73179   0.64809   0.00000  Uiso   1.00
C192   C     0.14094   0.67281   0.60511   0.00000  Uiso   1.00
C193   C     0.06242   0.59256   0.51402   0.00000  Uiso   1.00
C194   C     0.35228   0.74347   0.83019   0.00000  Uiso   1.00
C195   C     0.45041   0.76474   0.85461   0.00000  Uiso   1.00
C196   C     0.51997   0.72083   0.90608   0.00000  Uiso   1.00
C197   C     0.66081   0.66840   0.98919   0.00000  Uiso   1.00
C198   C     0.21332   0.66757   0.82208   0.00000  Uiso   1.00
C199   C     0.16697   0.73887   0.83306   0.00000  Uiso   1.00
C200   C     0.10385   0.74396   0.86501   0.00000  Uiso   1.00
C201   C     0.06935   0.81428   0.86998   0.00000  Uiso   1.00
C202   C     0.18331   0.66265   0.74405   0.00000  Uiso   1.00
C203   C     0.13394   0.60365   0.70117   0.00000  Uiso   1.00
C204   C     0.11320   0.60978   0.63121   0.00000  Uiso   1.00
C205   C     0.32460   0.68056   0.85625   0.00000  Uiso   1.00
C206   C     0.39402   0.63660   0.90769   0.00000  Uiso   1.00
C207   C     0.49224   0.65781   0.93218   0.00000  Uiso   1.00
H208   H     0.28584   0.83237   0.75381   0.00000  Uiso   1.00
H209   H     0.18167   0.92077   0.79175   0.00000  Uiso   1.00
H210   H     0.21177   0.78047   0.62794   0.00000  Uiso   1.00
H211   H     0.47180   0.81343   0.83443   0.00000  Uiso   1.00
H212   H     0.05395   0.99104   0.84528   0.00000  Uiso   1.00
H213   H     0.11744   0.69520   0.49987   0.00000  Uiso   1.00
H214   H     0.66578   0.76469   0.93530   0.00000  Uiso   1.00
H215   H     0.19177   0.61859   0.84237   0.00000  Uiso   1.00
H216   H     0.08244   0.69527   0.88517   0.00000  Uiso   1.00
H217   H     0.11254   0.55497   0.72135   0.00000  Uiso   1.00
H218   H     0.37257   0.58793   0.92785   0.00000  Uiso   1.00
H219   H     0.97341   0.80802   0.92110   0.00000  Uiso   1.00
H220   H     0.03690   0.51217   0.57569   0.00000  Uiso   1.00
H221   H     0.58523   0.58166   0.01112   0.00000  Uiso   1.00
O222   O     0.94343   0.95382   0.90972   0.00000  Uiso   1.00
O223   O     0.02675   0.56568   0.45657   0.00000  Uiso   1.00
O224   O     0.74615   0.65686   0.02784   0.00000  Uiso   1.00
N225   N     0.05002   0.93745   0.85726   0.00000  Uiso   1.00
N226   N     0.10936   0.66085   0.53432   0.00000  Uiso   1.00
N227   N     0.62201   0.72581   0.94140   0.00000  Uiso   1.00
N228   N     0.00668   0.83896   0.89806   0.00000  Uiso   1.00
N229   N     0.06602   0.56237   0.57512   0.00000  Uiso   1.00
N230   N     0.57867   0.62733   0.98220   0.00000  Uiso   1.00
C231   C     0.76429   0.28339   0.77411   0.00000  Uiso   1.00
C232   C     0.69466   0.30178   0.80700   0.00000  Uiso   1.00
C233   C     0.66024   0.37210   0.81193   0.00000  Uiso   1.00
C234   C     0.59708   0.37730   0.84387   0.00000  Uiso   1.00
C235   C     0.49313   0.41542   0.89096   0.00000  Uiso   1.00
C236   C     0.71100   0.22556   0.71799   0.00000  Uiso   1.00
C237   C     0.69033   0.23179   0.64809   0.00000  Uiso   1.00
C238   C     0.64094   0.17281   0.60511   0.00000  Uiso   1.00
C239   C     0.56242   0.09256   0.51402   0.00000  Uiso   1.00
C240   C     0.85228   0.24347   0.83019   0.00000  Uiso   1.00
C241   C     0.95041   0.26474   0.85461   0.00000  Uiso   1.00
C242   C     0.01997   0.22083   0.90608   0.00000  Uiso   1.00
C243   C     0.16081   0.16840   0.98919   0.00000  Uiso   1.00
C244   C     0.71332   0.16757   0.82208   0.00000  Uiso   1.00
C245   C     0.66697   0.23887   0.83306   0.00000  Uiso   1.00
C246   C     0.60385   0.24396   0.86501   0.00000  Uiso   1.00
C247   C     0.56935   0.31428   0.86998   0.00000  Uiso   1.00
C248   C     0.68331   0.16265   0.74405   0.00000  Uiso   1.00
C249   C     0.63394   0.10365   0.70117   0.00000  Uiso   1.00
C250   C     0.61320   0.10978   0.63121   0.00000  Uiso   1.00
C251   C     0.82460   0.18056   0.85625   0.00000  Uiso   1.00
C252   C     0.89402   0.13660   0.90769   0.00000  Uiso   1.00
C253   C     0.99224   0.15781   0.93218   0.00000  Uiso   1.00
H254   H     0.78584   0.33237   0.75381   0.00000  Uiso   1.00
H255   H     0.68167   0.42077   0.79175   0.00000  Uiso   1.00
H256   H     0.71177   0.28047   0.62794   0.00000  Uiso   1.00
H257   H     0.97180   0.31343   0.83443   0.00000  Uiso   1.00
H258   H     0.55395   0.49104   0.84528   0.00000  Uiso   1.00
H259   H     0.61744   0.19520   0.49987   0.00000  Uiso   1.00
H260   H     0.16578   0.26469   0.93530   0.00000  Uiso   1.00
H261   H     0.69177   0.11859   0.84237   0.00000  Uiso   1.00
H262   H     0.58244   0.19527   0.88517   0.00000  Uiso   1.00
H263   H     0.61254   0.05497   0.72135   0.00000  Uiso   1.00
H264   H     0.87257   0.08793   0.92785   0.00000  Uiso   1.00
H265   H     0.47341   0.30802   0.92110   0.00000  Uiso   1.00
H266   H     0.53690   0.01217   0.57569   0.00000  Uiso   1.00
H267   H     0.08523   0.08166   0.01112   0.00000  Uiso   1.00
O268   O     0.44343   0.45382   0.90972   0.00000  Uiso   1.00
O269   O     0.52675   0.06568   0.45657   0.00000  Uiso   1.00
O270   O     0.24615   0.15686   0.02784   0.00000  Uiso   1.00
N271   N     0.55002   0.43745   0.85726   0.00000  Uiso   1.00
N272   N     0.60936   0.16085   0.53432   0.00000  Uiso   1.00
N273   N     0.12201   0.22581   0.94140   0.00000  Uiso   1.00
N274   N     0.50668   0.33896   0.89806   0.00000  Uiso   1.00
N275   N     0.56602   0.06237   0.57512   0.00000  Uiso   1.00
N276   N     0.07867   0.12733   0.98220   0.00000  Uiso   1.00
C277   C     0.73571   0.78339   0.72589   0.00000  Uiso   1.00
C278   C     0.80534   0.80178   0.69300   0.00000  Uiso   1.00
C279   C     0.83976   0.87210   0.68807   0.00000  Uiso   1.00
C280   C     0.90292   0.87730   0.65613   0.00000  Uiso   1.00
C281   C     0.00687   0.91542   0.60904   0.00000  Uiso   1.00
C282   C     0.78900   0.72556   0.78201   0.00000  Uiso   1.00
C283   C     0.80967   0.73179   0.85191   0.00000  Uiso   1.00
C284   C     0.85906   0.67281   0.89489   0.00000  Uiso   1.00
C285   C     0.93758   0.59256   0.98598   0.00000  Uiso   1.00
C286   C     0.64772   0.74347   0.66981   0.00000  Uiso   1.00
C287   C     0.54959   0.76474   0.64539   0.00000  Uiso   1.00
C288   C     0.48003   0.72083   0.59392   0.00000  Uiso   1.00
C289   C     0.33919   0.66840   0.51081   0.00000  Uiso   1.00
C290   C     0.78668   0.66757   0.67792   0.00000  Uiso   1.00
C291   C     0.83303   0.73887   0.66694   0.00000  Uiso   1.00
C292   C     0.89615   0.74396   0.63499   0.00000  Uiso   1.00
C293   C     0.93065   0.81428   0.63002   0.00000  Uiso   1.00
C294   C     0.81669   0.66265   0.75595   0.00000  Uiso   1.00
C295   C     0.86606   0.60365   0.79883   0.00000  Uiso   1.00
C296   C     0.88680   0.60978   0.86879   0.00000  Uiso   1.00
C297   C     0.67540   0.68056   0.64375   0.00000  Uiso   1.00
C298   C     0.60598   0.63660   0.59231   0.00000  Uiso   1.00
C299   C     0.50776   0.65781   0.56782   0.00000  Uiso   1.00
H300   H     0.71416   0.83237   0.74619   0.00000  Uiso   1.00
H301   H     0.81833   0.92077   0.70825   0.00000  Uiso   1.00
H302   H     0.78823   0.78047   0.87206   0.00000  Uiso   1.00
H303   H     0.52820   0.81343   0.66557   0.00000  Uiso   1.00
H304   H     0.94605   0.99104   0.65472   0.00000  Uiso   1.00
H305   H     0.88256   0.69520   0.00013   0.00000  Uiso   1.00
H306   H     0.33422   0.76469   0.56470   0.00000  Uiso   1.00
H307   H     0.80823   0.61859   0.65763   0.00000  Uiso   1.00
H308   H     0.91756   0.69527   0.61483   0.00000  Uiso   1.00
H309   H     0.88746   0.55497   0.77865   0.00000  Uiso   1.00
H310   H     0.62743   0.58793   0.57215   0.00000  Uiso   1.00
H311   H     0.02659   0.80802   0.57890   0.00000  Uiso   1.00
H312   H     0.96310   0.51217   0.92431   0.00000  Uiso   1.00
H313   H     0.41477   0.58166   0.48888   0.00000  Uiso   1.00
O314   O     0.05657   0.95382   0.59028   0.00000  Uiso   1.00
O315   O     0.97325   0.56568   0.04343   0.00000  Uiso   1.00
O316   O     0.25385   0.65686   0.47216   0.00000  Uiso   1.00
N317   N     0.94998   0.93745   0.64274   0.00000  Uiso   1.00
N318   N     0.89064   0.66085   0.96568   0.00000  Uiso   1.00
N319   N     0.37799   0.72581   0.55860   0.00000  Uiso   1.00
N320   N     0.99332   0.83896   0.60194   0.00000  Uiso   1.00
N321   N     0.93398   0.56237   0.92488   0.00000  Uiso   1.00
N322   N     0.42133   0.62733   0.51780   0.00000  Uiso   1.00
C323   C     0.23571   0.28339   0.72589   0.00000  Uiso   1.00
C324   C     0.30534   0.30178   0.69300   0.00000  Uiso   1.00
C325   C     0.33976   0.37210   0.68807   0.00000  Uiso   1.00
C326   C     0.40292   0.37730   0.65613   0.00000  Uiso   1.00
C327   C     0.50687   0.41542   0.60904   0.00000  Uiso   1.00
C328   C     0.28900   0.22556   0.78201   0.00000  Uiso   1.00
C329   C     0.30967   0.23179   0.85191   0.00000  Uiso   1.00
C330   C     0.35906   0.17281   0.89489   0.00000  Uiso   1.00
C331   C     0.43758   0.09256   0.98598   0.00000  Uiso   1.00
C332   C     0.14772   0.24347   0.66981   0.00000  Uiso   1.00
C333   C     0.04959   0.26474   0.64539   0.00000  Uiso   1.00
C334   C     0.98003   0.22083   0.59392   0.00000  Uiso   1.00
C335   C     0.83919   0.16840   0.51081   0.00000  Uiso   1.00
C336   C     0.28668   0.16757   0.67792   0.00000  Uiso   1.00
C337   C     0.33303   0.23887   0.66694   0.00000  Uiso   1.00
C338   C     0.39615   0.24396   0.63499   0.00000  Uiso   1.00
C339   C     0.43065   0.31428   0.63002   0.00000  Uiso   1.00
C340   C     0.31669   0.16265   0.75595   0.00000  Uiso   1.00
C341   C     0.36606   0.10365   0.79883   0.00000  Uiso   1.00
C342   C     0.38680   0.10978   0.86879   0.00000  Uiso   1.00
C343   C     0.17540   0.18056   0.64375   0.00000  Uiso   1.00
C344   C     0.10598   0.13660   0.59231   0.00000  Uiso   1.00
C345   C     0.00776   0.15781   0.56782   0.00000  Uiso   1.00
H346   H     0.21416   0.33237   0.74619   0.00000  Uiso   1.00
H347   H     0.31833   0.42077   0.70825   0.00000  Uiso   1.00
H348   H     0.28823   0.28047   0.87206   0.00000  Uiso   1.00
H349   H     0.02820   0.31343   0.66557   0.00000  Uiso   1.00
H350   H     0.44605   0.49104   0.65472   0.00000  Uiso   1.00
H351   H     0.38256   0.19520   0.00013   0.00000  Uiso   1.00
H352   H     0.83422   0.26469   0.56470   0.00000  Uiso   1.00
H353   H     0.30823   0.11859   0.65763   0.00000  Uiso   1.00
H354   H     0.41756   0.19527   0.61483   0.00000  Uiso   1.00
H355   H     0.38746   0.05497   0.77865   0.00000  Uiso   1.00
H356   H     0.12743   0.08793   0.57215   0.00000  Uiso   1.00
H357   H     0.52659   0.30802   0.57890   0.00000  Uiso   1.00
H358   H     0.46310   0.01217   0.92431   0.00000  Uiso   1.00
H359   H     0.91477   0.08166   0.48888   0.00000  Uiso   1.00
O360   O     0.55657   0.45382   0.59028   0.00000  Uiso   1.00
O361   O     0.47325   0.06568   0.04343   0.00000  Uiso   1.00
O362   O     0.75385   0.15686   0.47216   0.00000  Uiso   1.00
N363   N     0.44998   0.43745   0.64274   0.00000  Uiso   1.00
N364   N     0.39064   0.16085   0.96568   0.00000  Uiso   1.00
N365   N     0.87799   0.22581   0.55860   0.00000  Uiso   1.00
N366   N     0.49332   0.33896   0.60194   0.00000  Uiso   1.00
N367   N     0.43398   0.06237   0.92488   0.00000  Uiso   1.00
N368   N     0.92133   0.12733   0.51780   0.00000  Uiso   1.00
