data_job_06143
_audit_creation_date              2018-12-19
_audit_creation_method            'Materials Studio'
_symmetry_space_group_name_H-M    'P1'
_symmetry_Int_Tables_number       1
_symmetry_cell_setting            triclinic
loop_
_symmetry_equiv_pos_as_xyz
  x,y,z
_cell_length_a                    9.7194
_cell_length_b                    20.4476
_cell_length_c                    21.2801
_cell_angle_alpha                 117.3140
_cell_angle_beta                  78.6682
_cell_angle_gamma                 87.0344
loop_
_atom_site_label
_atom_site_type_symbol
_atom_site_fract_x
_atom_site_fract_y
_atom_site_fract_z
_atom_site_U_iso_or_equiv
_atom_site_adp_type
_atom_site_occupancy
C1     C     0.83356   0.31947   0.37078   0.00000  Uiso   1.00
C2     C     0.90714   0.23930   0.31888   0.00000  Uiso   1.00
C3     C     0.02370   0.21688   0.25997   0.00000  Uiso   1.00
C4     C     0.07538   0.14095   0.21913   0.00000  Uiso   1.00
C5     C     0.19914   0.02430   0.13586   0.00000  Uiso   1.00
C6     C     0.67773   0.32070   0.36831   0.00000  Uiso   1.00
C7     C     0.60141   0.36672   0.35097   0.00000  Uiso   1.00
C8     C     0.45997   0.35932   0.35175   0.00000  Uiso   1.00
C9     C     0.22754   0.36908   0.34526   0.00000  Uiso   1.00
C10    C     0.83663   0.33334   0.44724   0.00000  Uiso   1.00
C11    C     0.89388   0.39000   0.49627   0.00000  Uiso   1.00
C12    C     0.88619   0.39325   0.56351   0.00000  Uiso   1.00
C13    C     0.90048   0.42264   0.67958   0.00000  Uiso   1.00
C14    C     0.71806   0.22450   0.40302   0.00000  Uiso   1.00
C15    C     0.84440   0.18771   0.33639   0.00000  Uiso   1.00
C16    C     0.89592   0.11180   0.29564   0.00000  Uiso   1.00
C17    C     0.01254   0.08926   0.23667   0.00000  Uiso   1.00
C18    C     0.61500   0.26911   0.38582   0.00000  Uiso   1.00
C19    C     0.47363   0.26164   0.38663   0.00000  Uiso   1.00
C20    C     0.39712   0.30764   0.36929   0.00000  Uiso   1.00
C21    C     0.77390   0.28175   0.46475   0.00000  Uiso   1.00
C22    C     0.76611   0.28492   0.53193   0.00000  Uiso   1.00
C23    C     0.82334   0.34157   0.58105   0.00000  Uiso   1.00
H24    H     0.88239   0.35964   0.35715   0.00000  Uiso   1.00
H25    H     0.07221   0.25681   0.24643   0.00000  Uiso   1.00
H26    H     0.64999   0.40664   0.33742   0.00000  Uiso   1.00
H27    H     0.94242   0.42991   0.48270   0.00000  Uiso   1.00
H28    H     0.25498   0.12006   0.13139   0.00000  Uiso   1.00
H29    H     0.36467   0.43600   0.32327   0.00000  Uiso   1.00
H30    H     0.98132   0.48507   0.62962   0.00000  Uiso   1.00
H31    H     0.66921   0.18434   0.41665   0.00000  Uiso   1.00
H32    H     0.84735   0.07189   0.30920   0.00000  Uiso   1.00
H33    H     0.42512   0.22172   0.40019   0.00000  Uiso   1.00
H34    H     0.71755   0.24499   0.54547   0.00000  Uiso   1.00
H35    H     0.07246   0.96997   0.18233   0.00000  Uiso   1.00
H36    H     0.18215   0.28591   0.37422   0.00000  Uiso   1.00
H37    H     0.79881   0.33498   0.68056   0.00000  Uiso   1.00
O38    O     0.28472   0.97421   0.08508   0.00000  Uiso   1.00
O39    O     0.11667   0.38872   0.33684   0.00000  Uiso   1.00
O40    O     0.92571   0.45309   0.73876   0.00000  Uiso   1.00
N41    N     0.18759   0.10017   0.15813   0.00000  Uiso   1.00
N42    N     0.35522   0.39555   0.33752   0.00000  Uiso   1.00
N43    N     0.93170   0.44143   0.62394   0.00000  Uiso   1.00
N44    N     0.08938   0.01941   0.18554   0.00000  Uiso   1.00
N45    N     0.25701   0.31479   0.36493   0.00000  Uiso   1.00
N46    N     0.83349   0.36067   0.65135   0.00000  Uiso   1.00
C47    C     0.20131   0.62748   0.94772   0.00000  Uiso   1.00
C48    C     0.23217   0.68310   0.91972   0.00000  Uiso   1.00
C49    C     0.29331   0.74622   0.95295   0.00000  Uiso   1.00
C50    C     0.31268   0.78999   0.91874   0.00000  Uiso   1.00
C51    C     0.36668   0.87923   0.88519   0.00000  Uiso   1.00
C52    C     0.04278   0.62427   0.95555   0.00000  Uiso   1.00
C53    C     0.94468   0.63793   0.01890   0.00000  Uiso   1.00
C54    C     0.80461   0.63217   0.01485   0.00000  Uiso   1.00
C55    C     0.56460   0.63003   0.03691   0.00000  Uiso   1.00
C56    C     0.27802   0.55140   0.88577   0.00000  Uiso   1.00
C57    C     0.37769   0.50378   0.89045   0.00000  Uiso   1.00
C58    C     0.43566   0.43665   0.82765   0.00000  Uiso   1.00
C59    C     0.56089   0.32137   0.74137   0.00000  Uiso   1.00
C60    C     0.12698   0.59295   0.82788   0.00000  Uiso   1.00
C61    C     0.19180   0.66435   0.85463   0.00000  Uiso   1.00
C62    C     0.21108   0.70803   0.82036   0.00000  Uiso   1.00
C63    C     0.27224   0.77120   0.85353   0.00000  Uiso   1.00
C64    C     0.00240   0.60552   0.89046   0.00000  Uiso   1.00
C65    C     0.86245   0.59974   0.88632   0.00000  Uiso   1.00
C66    C     0.76417   0.61338   0.94964   0.00000  Uiso   1.00
C67    C     0.23765   0.53265   0.82068   0.00000  Uiso   1.00
C68    C     0.29547   0.46559   0.75787   0.00000  Uiso   1.00
C69    C     0.39521   0.41787   0.76245   0.00000  Uiso   1.00
H70    H     0.23273   0.64207   0.99839   0.00000  Uiso   1.00
H71    H     0.32453   0.76072   0.00332   0.00000  Uiso   1.00
H72    H     0.97596   0.65243   0.06926   0.00000  Uiso   1.00
H73    H     0.40891   0.51831   0.94083   0.00000  Uiso   1.00
H74    H     0.40845   0.88400   0.98010   0.00000  Uiso   1.00
H75    H     0.67348   0.65565   0.11912   0.00000  Uiso   1.00
H76    H     0.58644   0.37282   0.84830   0.00000  Uiso   1.00
H77    H     0.09555   0.57835   0.77721   0.00000  Uiso   1.00
H78    H     0.17983   0.69350   0.77000   0.00000  Uiso   1.00
H79    H     0.83125   0.58522   0.83594   0.00000  Uiso   1.00
H80    H     0.26420   0.45109   0.70751   0.00000  Uiso   1.00
H81    H     0.29100   0.82945   0.79072   0.00000  Uiso   1.00
H82    H     0.55603   0.60110   0.92975   0.00000  Uiso   1.00
H83    H     0.46899   0.31826   0.65893   0.00000  Uiso   1.00
O84    O     0.40760   0.93364   0.88467   0.00000  Uiso   1.00
O85    O     0.44336   0.63404   0.06706   0.00000  Uiso   1.00
O86    O     0.64114   0.26297   0.71175   0.00000  Uiso   1.00
N87    N     0.36927   0.85535   0.93651   0.00000  Uiso   1.00
N88    N     0.68211   0.64187   0.06649   0.00000  Uiso   1.00
N89    N     0.53562   0.37743   0.81330   0.00000  Uiso   1.00
N90    N     0.30607   0.82600   0.83461   0.00000  Uiso   1.00
N91    N     0.61892   0.61252   0.96459   0.00000  Uiso   1.00
N92    N     0.47243   0.34808   0.71140   0.00000  Uiso   1.00
C93    C     0.14616   0.05082   0.68133   0.00000  Uiso   1.00
C94    C     0.14393   0.07877   0.76147   0.00000  Uiso   1.00
C95    C     0.23132   0.04686   0.78780   0.00000  Uiso   1.00
C96    C     0.21269   0.08077   0.86297   0.00000  Uiso   1.00
C97    C     0.22475   0.11447   0.98025   0.00000  Uiso   1.00
C98    C     0.99548   0.03737   0.67485   0.00000  Uiso   1.00
C99    C     0.95808   0.97066   0.62833   0.00000  Uiso   1.00
C100   C     0.81448   0.96972   0.63058   0.00000  Uiso   1.00
C101   C     0.59609   0.93917   0.61333   0.00000  Uiso   1.00
C102   C     0.16988   0.11647   0.66707   0.00000  Uiso   1.00
C103   C     0.27908   0.11626   0.61400   0.00000  Uiso   1.00
C104   C     0.28230   0.18191   0.60969   0.00000  Uiso   1.00
C105   C     0.33468   0.27418   0.58037   0.00000  Uiso   1.00
C106   C     0.95765   0.16777   0.76801   0.00000  Uiso   1.00
C107   C     0.04153   0.14228   0.80856   0.00000  Uiso   1.00
C108   C     0.02277   0.17625   0.88371   0.00000  Uiso   1.00
C109   C     0.11012   0.14440   0.91014   0.00000  Uiso   1.00
C110   C     0.89309   0.10088   0.72193   0.00000  Uiso   1.00
C111   C     0.74952   0.10004   0.72424   0.00000  Uiso   1.00
C112   C     0.71190   0.03335   0.67774   0.00000  Uiso   1.00
C113   C     0.06749   0.17999   0.71416   0.00000  Uiso   1.00
C114   C     0.07053   0.24565   0.70991   0.00000  Uiso   1.00
C115   C     0.17972   0.24554   0.65685   0.00000  Uiso   1.00
H116   H     0.22586   0.00137   0.64467   0.00000  Uiso   1.00
H117   H     0.31054   0.99770   0.75134   0.00000  Uiso   1.00
H118   H     0.03734   0.92152   0.59190   0.00000  Uiso   1.00
H119   H     0.35830   0.06710   0.57758   0.00000  Uiso   1.00
H120   H     0.35923   0.02163   0.89038   0.00000  Uiso   1.00
H121   H     0.78317   0.86100   0.55416   0.00000  Uiso   1.00
H122   H     0.45998   0.16798   0.52395   0.00000  Uiso   1.00
H123   H     0.87793   0.21722   0.80467   0.00000  Uiso   1.00
H124   H     0.94352   0.22540   0.92013   0.00000  Uiso   1.00
H125   H     0.67032   0.14921   0.76068   0.00000  Uiso   1.00
H126   H     0.99128   0.29479   0.74636   0.00000  Uiso   1.00
H127   H     0.06134   0.20644   0.02737   0.00000  Uiso   1.00
H128   H     0.48528   0.04580   0.69114   0.00000  Uiso   1.00
H129   H     0.16209   0.35279   0.66094   0.00000  Uiso   1.00
O130   O     0.25967   0.11551   0.03194   0.00000  Uiso   1.00
O131   O     0.50392   0.90476   0.59082   0.00000  Uiso   1.00
O132   O     0.39187   0.30752   0.55119   0.00000  Uiso   1.00
N133   N     0.28014   0.06401   0.90677   0.00000  Uiso   1.00
N134   N     0.74156   0.91382   0.59244   0.00000  Uiso   1.00
N135   N     0.37429   0.20082   0.56418   0.00000  Uiso   1.00
N136   N     0.11985   0.16346   0.98048   0.00000  Uiso   1.00
N137   N     0.58127   0.01327   0.66615   0.00000  Uiso   1.00
N138   N     0.21400   0.30027   0.63790   0.00000  Uiso   1.00
C139   C     0.16644   0.68053   0.62922   0.00000  Uiso   1.00
C140   C     0.09286   0.76070   0.68112   0.00000  Uiso   1.00
C141   C     0.97630   0.78312   0.74003   0.00000  Uiso   1.00
C142   C     0.92462   0.85905   0.78087   0.00000  Uiso   1.00
C143   C     0.80086   0.97570   0.86414   0.00000  Uiso   1.00
C144   C     0.32227   0.67930   0.63169   0.00000  Uiso   1.00
C145   C     0.39859   0.63328   0.64903   0.00000  Uiso   1.00
C146   C     0.54003   0.64068   0.64825   0.00000  Uiso   1.00
C147   C     0.77246   0.63092   0.65473   0.00000  Uiso   1.00
C148   C     0.16337   0.66666   0.55276   0.00000  Uiso   1.00
C149   C     0.10612   0.61000   0.50373   0.00000  Uiso   1.00
C150   C     0.11381   0.60675   0.43649   0.00000  Uiso   1.00
C151   C     0.09952   0.57736   0.32042   0.00000  Uiso   1.00
C152   C     0.28194   0.77550   0.59698   0.00000  Uiso   1.00
C153   C     0.15560   0.81229   0.66361   0.00000  Uiso   1.00
C154   C     0.10408   0.88820   0.70436   0.00000  Uiso   1.00
C155   C     0.98746   0.91073   0.76333   0.00000  Uiso   1.00
C156   C     0.38500   0.73089   0.61418   0.00000  Uiso   1.00
C157   C     0.52637   0.73836   0.61337   0.00000  Uiso   1.00
C158   C     0.60288   0.69236   0.63071   0.00000  Uiso   1.00
C159   C     0.22610   0.71825   0.53525   0.00000  Uiso   1.00
C160   C     0.23389   0.71508   0.46807   0.00000  Uiso   1.00
C161   C     0.17666   0.65843   0.41895   0.00000  Uiso   1.00
H162   H     0.11761   0.64036   0.64285   0.00000  Uiso   1.00
H163   H     0.92779   0.74318   0.75357   0.00000  Uiso   1.00
H164   H     0.35001   0.59336   0.66258   0.00000  Uiso   1.00
H165   H     0.05758   0.57009   0.51730   0.00000  Uiso   1.00
H166   H     0.74503   0.87993   0.86861   0.00000  Uiso   1.00
H167   H     0.63533   0.56400   0.67673   0.00000  Uiso   1.00
H168   H     0.01868   0.51493   0.37038   0.00000  Uiso   1.00
H169   H     0.33079   0.81566   0.58335   0.00000  Uiso   1.00
H170   H     0.15265   0.92811   0.69080   0.00000  Uiso   1.00
H171   H     0.57488   0.77828   0.59981   0.00000  Uiso   1.00
H172   H     0.28245   0.75501   0.45453   0.00000  Uiso   1.00
H173   H     0.92754   0.03003   0.81767   0.00000  Uiso   1.00
H174   H     0.81785   0.71409   0.62578   0.00000  Uiso   1.00
H175   H     0.20119   0.66502   0.31944   0.00000  Uiso   1.00
O176   O     0.71528   0.02579   0.91491   0.00000  Uiso   1.00
O177   O     0.88333   0.61128   0.66316   0.00000  Uiso   1.00
O178   O     0.07429   0.54691   0.26124   0.00000  Uiso   1.00
N179   N     0.81241   0.89983   0.84187   0.00000  Uiso   1.00
N180   N     0.64478   0.60445   0.66248   0.00000  Uiso   1.00
N181   N     0.06830   0.55856   0.37606   0.00000  Uiso   1.00
N182   N     0.91062   0.98059   0.81446   0.00000  Uiso   1.00
N183   N     0.74299   0.68521   0.63507   0.00000  Uiso   1.00
N184   N     0.16651   0.63933   0.34865   0.00000  Uiso   1.00
C185   C     0.79869   0.37252   0.05228   0.00000  Uiso   1.00
C186   C     0.76783   0.31690   0.08028   0.00000  Uiso   1.00
C187   C     0.70669   0.25378   0.04705   0.00000  Uiso   1.00
C188   C     0.68732   0.21001   0.08126   0.00000  Uiso   1.00
C189   C     0.63332   0.12077   0.11481   0.00000  Uiso   1.00
C190   C     0.95722   0.37572   0.04445   0.00000  Uiso   1.00
C191   C     0.05532   0.36207   0.98110   0.00000  Uiso   1.00
C192   C     0.19539   0.36783   0.98515   0.00000  Uiso   1.00
C193   C     0.43540   0.36997   0.96309   0.00000  Uiso   1.00
C194   C     0.72198   0.44860   0.11423   0.00000  Uiso   1.00
C195   C     0.62231   0.49622   0.10955   0.00000  Uiso   1.00
C196   C     0.56434   0.56335   0.17235   0.00000  Uiso   1.00
C197   C     0.43911   0.67863   0.25863   0.00000  Uiso   1.00
C198   C     0.87302   0.40705   0.17211   0.00000  Uiso   1.00
C199   C     0.80820   0.33565   0.14537   0.00000  Uiso   1.00
C200   C     0.78892   0.29197   0.17964   0.00000  Uiso   1.00
C201   C     0.72776   0.22880   0.14647   0.00000  Uiso   1.00
C202   C     0.99760   0.39448   0.10954   0.00000  Uiso   1.00
C203   C     0.13755   0.40026   0.11368   0.00000  Uiso   1.00
C204   C     0.23583   0.38662   0.05036   0.00000  Uiso   1.00
C205   C     0.76235   0.46735   0.17932   0.00000  Uiso   1.00
C206   C     0.70453   0.53441   0.24213   0.00000  Uiso   1.00
C207   C     0.60479   0.58213   0.23755   0.00000  Uiso   1.00
H208   H     0.76727   0.35793   0.00161   0.00000  Uiso   1.00
H209   H     0.67548   0.23928   0.99668   0.00000  Uiso   1.00
H210   H     0.02404   0.34757   0.93074   0.00000  Uiso   1.00
H211   H     0.59109   0.48169   0.05917   0.00000  Uiso   1.00
H212   H     0.59155   0.11600   0.01990   0.00000  Uiso   1.00
H213   H     0.32652   0.34435   0.88088   0.00000  Uiso   1.00
H214   H     0.41356   0.62718   0.15170   0.00000  Uiso   1.00
H215   H     0.90445   0.42165   0.22279   0.00000  Uiso   1.00
H216   H     0.82017   0.30650   0.23000   0.00000  Uiso   1.00
H217   H     0.16875   0.41478   0.16406   0.00000  Uiso   1.00
H218   H     0.73580   0.54891   0.29249   0.00000  Uiso   1.00
H219   H     0.70900   0.17055   0.20928   0.00000  Uiso   1.00
H220   H     0.44397   0.39890   0.07025   0.00000  Uiso   1.00
H221   H     0.53101   0.68174   0.34107   0.00000  Uiso   1.00
O222   O     0.59240   0.06636   0.11533   0.00000  Uiso   1.00
O223   O     0.55664   0.36596   0.93294   0.00000  Uiso   1.00
O224   O     0.35887   0.73703   0.28825   0.00000  Uiso   1.00
N225   N     0.63073   0.14465   0.06349   0.00000  Uiso   1.00
N226   N     0.31789   0.35813   0.93351   0.00000  Uiso   1.00
N227   N     0.46438   0.62257   0.18670   0.00000  Uiso   1.00
N228   N     0.69393   0.17400   0.16539   0.00000  Uiso   1.00
N229   N     0.38108   0.38748   0.03541   0.00000  Uiso   1.00
N230   N     0.52757   0.65192   0.28860   0.00000  Uiso   1.00
C231   C     0.85384   0.94918   0.31867   0.00000  Uiso   1.00
C232   C     0.85607   0.92123   0.23852   0.00000  Uiso   1.00
C233   C     0.76868   0.95314   0.21220   0.00000  Uiso   1.00
C234   C     0.78731   0.91923   0.13703   0.00000  Uiso   1.00
C235   C     0.77525   0.88553   0.01975   0.00000  Uiso   1.00
C236   C     0.00452   0.96263   0.32515   0.00000  Uiso   1.00
C237   C     0.04192   0.02934   0.37167   0.00000  Uiso   1.00
C238   C     0.18552   0.03028   0.36942   0.00000  Uiso   1.00
C239   C     0.40391   0.06083   0.38666   0.00000  Uiso   1.00
C240   C     0.83012   0.88353   0.33293   0.00000  Uiso   1.00
C241   C     0.72092   0.88374   0.38600   0.00000  Uiso   1.00
C242   C     0.71770   0.81809   0.39031   0.00000  Uiso   1.00
C243   C     0.66532   0.72582   0.41963   0.00000  Uiso   1.00
C244   C     0.04235   0.83223   0.23199   0.00000  Uiso   1.00
C245   C     0.95847   0.85772   0.19144   0.00000  Uiso   1.00
C246   C     0.97723   0.82375   0.11629   0.00000  Uiso   1.00
C247   C     0.88988   0.85560   0.08986   0.00000  Uiso   1.00
C248   C     0.10691   0.89912   0.27807   0.00000  Uiso   1.00
C249   C     0.25048   0.89996   0.27576   0.00000  Uiso   1.00
C250   C     0.28810   0.96665   0.32226   0.00000  Uiso   1.00
C251   C     0.93251   0.82001   0.28584   0.00000  Uiso   1.00
C252   C     0.92947   0.75435   0.29009   0.00000  Uiso   1.00
C253   C     0.82028   0.75445   0.34315   0.00000  Uiso   1.00
H254   H     0.77414   0.99863   0.35533   0.00000  Uiso   1.00
H255   H     0.68946   0.00230   0.24866   0.00000  Uiso   1.00
H256   H     0.96266   0.07848   0.40810   0.00000  Uiso   1.00
H257   H     0.64170   0.93290   0.42242   0.00000  Uiso   1.00
H258   H     0.64077   0.97836   0.10962   0.00000  Uiso   1.00
H259   H     0.21683   0.13900   0.44584   0.00000  Uiso   1.00
H260   H     0.54002   0.83202   0.47605   0.00000  Uiso   1.00
H261   H     0.12207   0.78278   0.19533   0.00000  Uiso   1.00
H262   H     0.05648   0.77460   0.07987   0.00000  Uiso   1.00
H263   H     0.32968   0.85079   0.23932   0.00000  Uiso   1.00
H264   H     0.00872   0.70521   0.25364   0.00000  Uiso   1.00
H265   H     0.93866   0.79356   0.97263   0.00000  Uiso   1.00
H266   H     0.51472   0.95420   0.30886   0.00000  Uiso   1.00
H267   H     0.83791   0.64721   0.33906   0.00000  Uiso   1.00
O268   O     0.74033   0.88449   0.96806   0.00000  Uiso   1.00
O269   O     0.49608   0.09524   0.40918   0.00000  Uiso   1.00
O270   O     0.60813   0.69248   0.44881   0.00000  Uiso   1.00
N271   N     0.71986   0.93598   0.09323   0.00000  Uiso   1.00
N272   N     0.25844   0.08618   0.40756   0.00000  Uiso   1.00
N273   N     0.62571   0.79917   0.43582   0.00000  Uiso   1.00
N274   N     0.88015   0.83654   0.01951   0.00000  Uiso   1.00
N275   N     0.41873   0.98673   0.33385   0.00000  Uiso   1.00
N276   N     0.78600   0.69973   0.36210   0.00000  Uiso   1.00
