data_job_00579
_audit_creation_date              2018-12-19
_audit_creation_method            'Materials Studio'
_symmetry_space_group_name_H-M    'P1'
_symmetry_Int_Tables_number       1
_symmetry_cell_setting            triclinic
loop_
_symmetry_equiv_pos_as_xyz
  x,y,z
_cell_length_a                    10.9937
_cell_length_b                    12.4372
_cell_length_c                    22.4203
_cell_angle_alpha                 90.0000
_cell_angle_beta                  127.1300
_cell_angle_gamma                 90.0000
loop_
_atom_site_label
_atom_site_type_symbol
_atom_site_fract_x
_atom_site_fract_y
_atom_site_fract_z
_atom_site_U_iso_or_equiv
_atom_site_adp_type
_atom_site_occupancy
C1     C     0.90484   0.73357   0.03562   0.00000  Uiso   1.00
C2     C     0.93067   0.83930   0.07620   0.00000  Uiso   1.00
C3     C     0.06156   0.90187   0.11210   0.00000  Uiso   1.00
C4     C     0.06285   0.99580   0.14594   0.00000  Uiso   1.00
C5     C     0.12202   0.15534   0.20930   0.00000  Uiso   1.00
C6     C     0.86626   0.65063   0.07197   0.00000  Uiso   1.00
C7     C     0.94299   0.55456   0.10429   0.00000  Uiso   1.00
C8     C     0.89003   0.48966   0.13456   0.00000  Uiso   1.00
C9     C     0.84914   0.35626   0.19128   0.00000  Uiso   1.00
C10    C     0.75966   0.74885   0.95615   0.00000  Uiso   1.00
C11    C     0.74675   0.73535   0.89108   0.00000  Uiso   1.00
C12    C     0.60404   0.75313   0.82383   0.00000  Uiso   1.00
C13    C     0.39764   0.77224   0.70073   0.00000  Uiso   1.00
C14    C     0.67437   0.78911   0.03189   0.00000  Uiso   1.00
C15    C     0.80548   0.86946   0.07417   0.00000  Uiso   1.00
C16    C     0.80657   0.96332   0.10797   0.00000  Uiso   1.00
C17    C     0.93744   0.02602   0.14391   0.00000  Uiso   1.00
C18    C     0.74108   0.68079   0.06994   0.00000  Uiso   1.00
C19    C     0.68800   0.61601   0.10016   0.00000  Uiso   1.00
C20    C     0.76463   0.51988   0.13253   0.00000  Uiso   1.00
C21    C     0.63448   0.77902   0.95411   0.00000  Uiso   1.00
C22    C     0.49176   0.79681   0.88695   0.00000  Uiso   1.00
C23    C     0.47863   0.78335   0.82180   0.00000  Uiso   1.00
H24    H     0.00230   0.71008   0.03721   0.00000  Uiso   1.00
H25    H     0.15842   0.87849   0.11367   0.00000  Uiso   1.00
H26    H     0.03985   0.53124   0.10585   0.00000  Uiso   1.00
H27    H     0.84364   0.71201   0.89268   0.00000  Uiso   1.00
H28    H     0.27632   0.07849   0.19757   0.00000  Uiso   1.00
H29    H     0.02628   0.34627   0.18106   0.00000  Uiso   1.00
H30    H     0.61254   0.72745   0.73154   0.00000  Uiso   1.00
H31    H     0.57691   0.81260   0.03031   0.00000  Uiso   1.00
H32    H     0.70968   0.98664   0.10639   0.00000  Uiso   1.00
H33    H     0.59111   0.63938   0.09857   0.00000  Uiso   1.00
H34    H     0.39491   0.82015   0.88540   0.00000  Uiso   1.00
H35    H     0.91211   0.16626   0.19166   0.00000  Uiso   1.00
H36    H     0.66206   0.43403   0.17516   0.00000  Uiso   1.00
H37    H     0.24833   0.81523   0.72564   0.00000  Uiso   1.00
O38    O     0.18925   0.23500   0.24481   0.00000  Uiso   1.00
O39    O     0.86119   0.27434   0.22314   0.00000  Uiso   1.00
O40    O     0.31838   0.77446   0.63339   0.00000  Uiso   1.00
N41    N     0.17237   0.07527   0.18572   0.00000  Uiso   1.00
N42    N     0.93861   0.39069   0.17030   0.00000  Uiso   1.00
N43    N     0.55179   0.74705   0.75004   0.00000  Uiso   1.00
N44    N     0.97639   0.12251   0.18254   0.00000  Uiso   1.00
N45    N     0.74263   0.43793   0.16713   0.00000  Uiso   1.00
N46    N     0.35581   0.79428   0.74686   0.00000  Uiso   1.00
C47    C     0.09516   0.23357   0.46438   0.00000  Uiso   1.00
C48    C     0.06933   0.33930   0.42380   0.00000  Uiso   1.00
C49    C     0.93844   0.40187   0.38790   0.00000  Uiso   1.00
C50    C     0.93715   0.49580   0.35406   0.00000  Uiso   1.00
C51    C     0.87798   0.65534   0.29070   0.00000  Uiso   1.00
C52    C     0.13374   0.15063   0.42803   0.00000  Uiso   1.00
C53    C     0.05701   0.05456   0.39571   0.00000  Uiso   1.00
C54    C     0.10997   0.98966   0.36544   0.00000  Uiso   1.00
C55    C     0.15086   0.85626   0.30872   0.00000  Uiso   1.00
C56    C     0.24034   0.24885   0.54385   0.00000  Uiso   1.00
C57    C     0.25325   0.23535   0.60892   0.00000  Uiso   1.00
C58    C     0.39596   0.25313   0.67617   0.00000  Uiso   1.00
C59    C     0.60236   0.27224   0.79927   0.00000  Uiso   1.00
C60    C     0.32563   0.28911   0.46811   0.00000  Uiso   1.00
C61    C     0.19452   0.36946   0.42583   0.00000  Uiso   1.00
C62    C     0.19343   0.46332   0.39203   0.00000  Uiso   1.00
C63    C     0.06256   0.52602   0.35609   0.00000  Uiso   1.00
C64    C     0.25892   0.18079   0.43006   0.00000  Uiso   1.00
C65    C     0.31200   0.11601   0.39984   0.00000  Uiso   1.00
C66    C     0.23537   0.01988   0.36747   0.00000  Uiso   1.00
C67    C     0.36552   0.27902   0.54589   0.00000  Uiso   1.00
C68    C     0.50824   0.29681   0.61305   0.00000  Uiso   1.00
C69    C     0.52137   0.28335   0.67820   0.00000  Uiso   1.00
H70    H     0.99770   0.21008   0.46279   0.00000  Uiso   1.00
H71    H     0.84158   0.37849   0.38633   0.00000  Uiso   1.00
H72    H     0.96015   0.03124   0.39415   0.00000  Uiso   1.00
H73    H     0.15636   0.21201   0.60732   0.00000  Uiso   1.00
H74    H     0.72368   0.57849   0.30243   0.00000  Uiso   1.00
H75    H     0.97372   0.84627   0.31894   0.00000  Uiso   1.00
H76    H     0.38746   0.22745   0.76846   0.00000  Uiso   1.00
H77    H     0.42309   0.31260   0.46969   0.00000  Uiso   1.00
H78    H     0.29032   0.48664   0.39361   0.00000  Uiso   1.00
H79    H     0.40889   0.13938   0.40143   0.00000  Uiso   1.00
H80    H     0.60509   0.32015   0.61460   0.00000  Uiso   1.00
H81    H     0.08789   0.66626   0.30834   0.00000  Uiso   1.00
H82    H     0.33794   0.93403   0.32484   0.00000  Uiso   1.00
H83    H     0.75167   0.31523   0.77436   0.00000  Uiso   1.00
O84    O     0.81075   0.73500   0.25519   0.00000  Uiso   1.00
O85    O     0.13881   0.77434   0.27686   0.00000  Uiso   1.00
O86    O     0.68162   0.27446   0.86661   0.00000  Uiso   1.00
N87    N     0.82763   0.57527   0.31428   0.00000  Uiso   1.00
N88    N     0.06139   0.89069   0.32970   0.00000  Uiso   1.00
N89    N     0.44821   0.24705   0.74996   0.00000  Uiso   1.00
N90    N     0.02361   0.62251   0.31746   0.00000  Uiso   1.00
N91    N     0.25737   0.93793   0.33287   0.00000  Uiso   1.00
N92    N     0.64419   0.29428   0.75314   0.00000  Uiso   1.00
C93    C     0.09516   0.26643   0.96438   0.00000  Uiso   1.00
C94    C     0.06933   0.16070   0.92380   0.00000  Uiso   1.00
C95    C     0.93844   0.09813   0.88790   0.00000  Uiso   1.00
C96    C     0.93715   0.00420   0.85406   0.00000  Uiso   1.00
C97    C     0.87798   0.84466   0.79070   0.00000  Uiso   1.00
C98    C     0.13374   0.34937   0.92803   0.00000  Uiso   1.00
C99    C     0.05701   0.44544   0.89571   0.00000  Uiso   1.00
C100   C     0.10997   0.51034   0.86544   0.00000  Uiso   1.00
C101   C     0.15086   0.64374   0.80872   0.00000  Uiso   1.00
C102   C     0.24034   0.25115   0.04385   0.00000  Uiso   1.00
C103   C     0.25325   0.26465   0.10892   0.00000  Uiso   1.00
C104   C     0.39596   0.24687   0.17617   0.00000  Uiso   1.00
C105   C     0.60236   0.22776   0.29927   0.00000  Uiso   1.00
C106   C     0.32563   0.21089   0.96811   0.00000  Uiso   1.00
C107   C     0.19452   0.13054   0.92583   0.00000  Uiso   1.00
C108   C     0.19343   0.03668   0.89203   0.00000  Uiso   1.00
C109   C     0.06256   0.97398   0.85609   0.00000  Uiso   1.00
C110   C     0.25892   0.31921   0.93006   0.00000  Uiso   1.00
C111   C     0.31200   0.38399   0.89984   0.00000  Uiso   1.00
C112   C     0.23537   0.48012   0.86747   0.00000  Uiso   1.00
C113   C     0.36552   0.22098   0.04589   0.00000  Uiso   1.00
C114   C     0.50824   0.20319   0.11305   0.00000  Uiso   1.00
C115   C     0.52137   0.21665   0.17820   0.00000  Uiso   1.00
H116   H     0.99770   0.28992   0.96279   0.00000  Uiso   1.00
H117   H     0.84158   0.12151   0.88633   0.00000  Uiso   1.00
H118   H     0.96015   0.46876   0.89415   0.00000  Uiso   1.00
H119   H     0.15636   0.28799   0.10732   0.00000  Uiso   1.00
H120   H     0.72368   0.92151   0.80243   0.00000  Uiso   1.00
H121   H     0.97372   0.65373   0.81894   0.00000  Uiso   1.00
H122   H     0.38746   0.27255   0.26846   0.00000  Uiso   1.00
H123   H     0.42309   0.18740   0.96969   0.00000  Uiso   1.00
H124   H     0.29032   0.01336   0.89361   0.00000  Uiso   1.00
H125   H     0.40889   0.36062   0.90143   0.00000  Uiso   1.00
H126   H     0.60509   0.17985   0.11460   0.00000  Uiso   1.00
H127   H     0.08789   0.83374   0.80834   0.00000  Uiso   1.00
H128   H     0.33794   0.56597   0.82484   0.00000  Uiso   1.00
H129   H     0.75167   0.18477   0.27436   0.00000  Uiso   1.00
O130   O     0.81075   0.76500   0.75519   0.00000  Uiso   1.00
O131   O     0.13881   0.72566   0.77686   0.00000  Uiso   1.00
O132   O     0.68162   0.22554   0.36661   0.00000  Uiso   1.00
N133   N     0.82763   0.92473   0.81428   0.00000  Uiso   1.00
N134   N     0.06139   0.60931   0.82970   0.00000  Uiso   1.00
N135   N     0.44821   0.25295   0.24996   0.00000  Uiso   1.00
N136   N     0.02361   0.87749   0.81746   0.00000  Uiso   1.00
N137   N     0.25737   0.56207   0.83287   0.00000  Uiso   1.00
N138   N     0.64419   0.20572   0.25314   0.00000  Uiso   1.00
C139   C     0.90484   0.76643   0.53562   0.00000  Uiso   1.00
C140   C     0.93067   0.66070   0.57620   0.00000  Uiso   1.00
C141   C     0.06156   0.59813   0.61210   0.00000  Uiso   1.00
C142   C     0.06285   0.50420   0.64594   0.00000  Uiso   1.00
C143   C     0.12202   0.34466   0.70930   0.00000  Uiso   1.00
C144   C     0.86626   0.84937   0.57197   0.00000  Uiso   1.00
C145   C     0.94299   0.94544   0.60429   0.00000  Uiso   1.00
C146   C     0.89003   0.01034   0.63456   0.00000  Uiso   1.00
C147   C     0.84914   0.14374   0.69128   0.00000  Uiso   1.00
C148   C     0.75966   0.75115   0.45615   0.00000  Uiso   1.00
C149   C     0.74675   0.76465   0.39108   0.00000  Uiso   1.00
C150   C     0.60404   0.74687   0.32383   0.00000  Uiso   1.00
C151   C     0.39764   0.72776   0.20073   0.00000  Uiso   1.00
C152   C     0.67437   0.71089   0.53189   0.00000  Uiso   1.00
C153   C     0.80548   0.63054   0.57417   0.00000  Uiso   1.00
C154   C     0.80657   0.53668   0.60797   0.00000  Uiso   1.00
C155   C     0.93744   0.47398   0.64391   0.00000  Uiso   1.00
C156   C     0.74108   0.81921   0.56994   0.00000  Uiso   1.00
C157   C     0.68800   0.88399   0.60016   0.00000  Uiso   1.00
C158   C     0.76463   0.98012   0.63253   0.00000  Uiso   1.00
C159   C     0.63448   0.72098   0.45411   0.00000  Uiso   1.00
C160   C     0.49176   0.70319   0.38695   0.00000  Uiso   1.00
C161   C     0.47863   0.71665   0.32180   0.00000  Uiso   1.00
H162   H     0.00230   0.78992   0.53721   0.00000  Uiso   1.00
H163   H     0.15842   0.62151   0.61367   0.00000  Uiso   1.00
H164   H     0.03985   0.96876   0.60585   0.00000  Uiso   1.00
H165   H     0.84364   0.78799   0.39268   0.00000  Uiso   1.00
H166   H     0.27632   0.42151   0.69757   0.00000  Uiso   1.00
H167   H     0.02628   0.15373   0.68106   0.00000  Uiso   1.00
H168   H     0.61254   0.77255   0.23154   0.00000  Uiso   1.00
H169   H     0.57691   0.68740   0.53031   0.00000  Uiso   1.00
H170   H     0.70968   0.51336   0.60639   0.00000  Uiso   1.00
H171   H     0.59111   0.86062   0.59857   0.00000  Uiso   1.00
H172   H     0.39491   0.67985   0.38540   0.00000  Uiso   1.00
H173   H     0.91211   0.33374   0.69166   0.00000  Uiso   1.00
H174   H     0.66206   0.06597   0.67516   0.00000  Uiso   1.00
H175   H     0.24833   0.68477   0.22564   0.00000  Uiso   1.00
O176   O     0.18925   0.26500   0.74481   0.00000  Uiso   1.00
O177   O     0.86119   0.22566   0.72314   0.00000  Uiso   1.00
O178   O     0.31838   0.72554   0.13339   0.00000  Uiso   1.00
N179   N     0.17237   0.42473   0.68572   0.00000  Uiso   1.00
N180   N     0.93861   0.10931   0.67030   0.00000  Uiso   1.00
N181   N     0.55179   0.75295   0.25004   0.00000  Uiso   1.00
N182   N     0.97639   0.37749   0.68254   0.00000  Uiso   1.00
N183   N     0.74263   0.06207   0.66713   0.00000  Uiso   1.00
N184   N     0.35581   0.70572   0.24686   0.00000  Uiso   1.00
