data_job_03175
_audit_creation_date              2018-12-19
_audit_creation_method            'Materials Studio'
_symmetry_space_group_name_H-M    'P1'
_symmetry_Int_Tables_number       1
_symmetry_cell_setting            triclinic
loop_
_symmetry_equiv_pos_as_xyz
  x,y,z
_cell_length_a                    12.4266
_cell_length_b                    12.4266
_cell_length_c                    88.0249
_cell_angle_alpha                 90.0000
_cell_angle_beta                  90.0000
_cell_angle_gamma                 120.0000
loop_
_atom_site_label
_atom_site_type_symbol
_atom_site_fract_x
_atom_site_fract_y
_atom_site_fract_z
_atom_site_U_iso_or_equiv
_atom_site_adp_type
_atom_site_occupancy
C1     C     0.84067   0.23751   0.18354   0.00000  Uiso   1.00
C2     C     0.74646   0.10676   0.18883   0.00000  Uiso   1.00
C3     C     0.72174   0.99703   0.18172   0.00000  Uiso   1.00
C4     C     0.63220   0.88692   0.18834   0.00000  Uiso   1.00
C5     C     0.49539   0.68393   0.19454   0.00000  Uiso   1.00
C6     C     0.76835   0.30599   0.18160   0.00000  Uiso   1.00
C7     C     0.76206   0.36379   0.16841   0.00000  Uiso   1.00
C8     C     0.69096   0.42139   0.16894   0.00000  Uiso   1.00
C9     C     0.58820   0.52779   0.16391   0.00000  Uiso   1.00
C10    C     0.92833   0.29948   0.19690   0.00000  Uiso   1.00
C11    C     0.05655   0.35185   0.19659   0.00000  Uiso   1.00
C12    C     0.12014   0.40401   0.21001   0.00000  Uiso   1.00
C13    C     0.26577   0.50030   0.22875   0.00000  Uiso   1.00
C14    C     0.72561   0.23706   0.20793   0.00000  Uiso   1.00
C15    C     0.68397   0.10652   0.20208   0.00000  Uiso   1.00
C16    C     0.59445   0.99653   0.20871   0.00000  Uiso   1.00
C17    C     0.56960   0.88667   0.20162   0.00000  Uiso   1.00
C18    C     0.70586   0.30574   0.19485   0.00000  Uiso   1.00
C19    C     0.63476   0.36329   0.19540   0.00000  Uiso   1.00
C20    C     0.62835   0.42115   0.18221   0.00000  Uiso   1.00
C21    C     0.86584   0.29923   0.21016   0.00000  Uiso   1.00
C22    C     0.92925   0.35134   0.22358   0.00000  Uiso   1.00
C23    C     0.05753   0.40376   0.22328   0.00000  Uiso   1.00
H24    H     0.88932   0.23771   0.17322   0.00000  Uiso   1.00
H25    H     0.77012   0.99726   0.17147   0.00000  Uiso   1.00
H26    H     0.81044   0.36397   0.15815   0.00000  Uiso   1.00
H27    H     0.10487   0.35202   0.18633   0.00000  Uiso   1.00
H28    H     0.61037   0.73058   0.17537   0.00000  Uiso   1.00
H29    H     0.69542   0.50384   0.14729   0.00000  Uiso   1.00
H30    H     0.31630   0.47865   0.20671   0.00000  Uiso   1.00
H31    H     0.67696   0.23687   0.21825   0.00000  Uiso   1.00
H32    H     0.54610   0.99637   0.21897   0.00000  Uiso   1.00
H33    H     0.58642   0.36308   0.20565   0.00000  Uiso   1.00
H34    H     0.88086   0.35113   0.23383   0.00000  Uiso   1.00
H35    H     0.42855   0.72986   0.21392   0.00000  Uiso   1.00
H36    H     0.51360   0.50312   0.18585   0.00000  Uiso   1.00
H37    H     0.13448   0.47792   0.24526   0.00000  Uiso   1.00
O38    O     0.43718   0.57203   0.19430   0.00000  Uiso   1.00
O39    O     0.54878   0.58653   0.15747   0.00000  Uiso   1.00
O40    O     0.36336   0.55347   0.23542   0.00000  Uiso   1.00
N41    N     0.58555   0.76341   0.18434   0.00000  Uiso   1.00
N42    N     0.66505   0.48635   0.15809   0.00000  Uiso   1.00
N43    N     0.24553   0.46282   0.21364   0.00000  Uiso   1.00
N44    N     0.48772   0.76303   0.20509   0.00000  Uiso   1.00
N45    N     0.56722   0.48596   0.17884   0.00000  Uiso   1.00
N46    N     0.14769   0.46243   0.23439   0.00000  Uiso   1.00
C47    C     0.76249   0.60316   0.85020   0.00000  Uiso   1.00
C48    C     0.89324   0.63971   0.85550   0.00000  Uiso   1.00
C49    C     0.00297   0.72471   0.84839   0.00000  Uiso   1.00
C50    C     0.11308   0.74529   0.85501   0.00000  Uiso   1.00
C51    C     0.31607   0.81146   0.86121   0.00000  Uiso   1.00
C52    C     0.69401   0.46237   0.84826   0.00000  Uiso   1.00
C53    C     0.63621   0.39827   0.83507   0.00000  Uiso   1.00
C54    C     0.57861   0.26956   0.83560   0.00000  Uiso   1.00
C55    C     0.47221   0.06041   0.83057   0.00000  Uiso   1.00
C56    C     0.70052   0.62885   0.86357   0.00000  Uiso   1.00
C57    C     0.64815   0.70470   0.86325   0.00000  Uiso   1.00
C58    C     0.59599   0.71613   0.87667   0.00000  Uiso   1.00
C59    C     0.49970   0.76547   0.89541   0.00000  Uiso   1.00
C60    C     0.76294   0.48855   0.87460   0.00000  Uiso   1.00
C61    C     0.89348   0.57745   0.86875   0.00000  Uiso   1.00
C62    C     0.00347   0.59792   0.87538   0.00000  Uiso   1.00
C63    C     0.11333   0.68293   0.86829   0.00000  Uiso   1.00
C64    C     0.69426   0.40012   0.86151   0.00000  Uiso   1.00
C65    C     0.63671   0.27148   0.86206   0.00000  Uiso   1.00
C66    C     0.57885   0.20720   0.84888   0.00000  Uiso   1.00
C67    C     0.70077   0.56660   0.87682   0.00000  Uiso   1.00
C68    C     0.64866   0.57791   0.89024   0.00000  Uiso   1.00
C69    C     0.59624   0.65377   0.88995   0.00000  Uiso   1.00
H70    H     0.76229   0.65161   0.83989   0.00000  Uiso   1.00
H71    H     0.00274   0.77285   0.83813   0.00000  Uiso   1.00
H72    H     0.63603   0.44647   0.82482   0.00000  Uiso   1.00
H73    H     0.64798   0.75285   0.85300   0.00000  Uiso   1.00
H74    H     0.26942   0.87979   0.84203   0.00000  Uiso   1.00
H75    H     0.49616   0.19158   0.81396   0.00000  Uiso   1.00
H76    H     0.52135   0.83766   0.87338   0.00000  Uiso   1.00
H77    H     0.76313   0.44009   0.88492   0.00000  Uiso   1.00
H78    H     0.00363   0.54973   0.88564   0.00000  Uiso   1.00
H79    H     0.63692   0.22334   0.87232   0.00000  Uiso   1.00
H80    H     0.64887   0.52973   0.90050   0.00000  Uiso   1.00
H81    H     0.27014   0.69869   0.88058   0.00000  Uiso   1.00
H82    H     0.49688   0.01048   0.85251   0.00000  Uiso   1.00
H83    H     0.52208   0.65656   0.91193   0.00000  Uiso   1.00
O84    O     0.42797   0.86515   0.86097   0.00000  Uiso   1.00
O85    O     0.41347   0.96225   0.82414   0.00000  Uiso   1.00
O86    O     0.44653   0.80989   0.90209   0.00000  Uiso   1.00
N87    N     0.23659   0.82214   0.85101   0.00000  Uiso   1.00
N88    N     0.51365   0.17870   0.82476   0.00000  Uiso   1.00
N89    N     0.53718   0.78271   0.88031   0.00000  Uiso   1.00
N90    N     0.23697   0.72469   0.87175   0.00000  Uiso   1.00
N91    N     0.51404   0.08126   0.84551   0.00000  Uiso   1.00
N92    N     0.53757   0.68526   0.90105   0.00000  Uiso   1.00
C93    C     0.39684   0.15933   0.51687   0.00000  Uiso   1.00
C94    C     0.36029   0.25354   0.52216   0.00000  Uiso   1.00
C95    C     0.27529   0.27826   0.51506   0.00000  Uiso   1.00
C96    C     0.25471   0.36780   0.52168   0.00000  Uiso   1.00
C97    C     0.18854   0.50461   0.52788   0.00000  Uiso   1.00
C98    C     0.53763   0.23165   0.51493   0.00000  Uiso   1.00
C99    C     0.60173   0.23794   0.50174   0.00000  Uiso   1.00
C100   C     0.73044   0.30904   0.50227   0.00000  Uiso   1.00
C101   C     0.93959   0.41180   0.49724   0.00000  Uiso   1.00
C102   C     0.37115   0.07167   0.53024   0.00000  Uiso   1.00
C103   C     0.29530   0.94345   0.52992   0.00000  Uiso   1.00
C104   C     0.28387   0.87986   0.54334   0.00000  Uiso   1.00
C105   C     0.23453   0.73423   0.56208   0.00000  Uiso   1.00
C106   C     0.51145   0.27439   0.54127   0.00000  Uiso   1.00
C107   C     0.42255   0.31603   0.53541   0.00000  Uiso   1.00
C108   C     0.40208   0.40555   0.54205   0.00000  Uiso   1.00
C109   C     0.31707   0.43040   0.53495   0.00000  Uiso   1.00
C110   C     0.59988   0.29414   0.52818   0.00000  Uiso   1.00
C111   C     0.72852   0.36524   0.52873   0.00000  Uiso   1.00
C112   C     0.79280   0.37165   0.51555   0.00000  Uiso   1.00
C113   C     0.43340   0.13416   0.54349   0.00000  Uiso   1.00
C114   C     0.42209   0.07075   0.55691   0.00000  Uiso   1.00
C115   C     0.34623   0.94247   0.55661   0.00000  Uiso   1.00
H116   H     0.34839   0.11068   0.50655   0.00000  Uiso   1.00
H117   H     0.22715   0.22988   0.50480   0.00000  Uiso   1.00
H118   H     0.55353   0.18956   0.49149   0.00000  Uiso   1.00
H119   H     0.24715   0.89513   0.51966   0.00000  Uiso   1.00
H120   H     0.12021   0.38963   0.50870   0.00000  Uiso   1.00
H121   H     0.80842   0.30458   0.48063   0.00000  Uiso   1.00
H122   H     0.16234   0.68370   0.54004   0.00000  Uiso   1.00
H123   H     0.55991   0.32304   0.55158   0.00000  Uiso   1.00
H124   H     0.45027   0.45390   0.55230   0.00000  Uiso   1.00
H125   H     0.77666   0.41358   0.53899   0.00000  Uiso   1.00
H126   H     0.47027   0.11914   0.56716   0.00000  Uiso   1.00
H127   H     0.30131   0.57145   0.54725   0.00000  Uiso   1.00
H128   H     0.98952   0.48640   0.51918   0.00000  Uiso   1.00
H129   H     0.34344   0.86552   0.57859   0.00000  Uiso   1.00
O130   O     0.13485   0.56282   0.52763   0.00000  Uiso   1.00
O131   O     0.03775   0.45122   0.49080   0.00000  Uiso   1.00
O132   O     0.19011   0.63664   0.56876   0.00000  Uiso   1.00
N133   N     0.17786   0.41445   0.51768   0.00000  Uiso   1.00
N134   N     0.82130   0.33495   0.49143   0.00000  Uiso   1.00
N135   N     0.21729   0.75447   0.54698   0.00000  Uiso   1.00
N136   N     0.27531   0.51228   0.53842   0.00000  Uiso   1.00
N137   N     0.91874   0.43278   0.51217   0.00000  Uiso   1.00
N138   N     0.31474   0.85231   0.56772   0.00000  Uiso   1.00
C139   C     0.15933   0.76249   0.68354   0.00000  Uiso   1.00
C140   C     0.25354   0.89324   0.68883   0.00000  Uiso   1.00
C141   C     0.27826   0.00297   0.68172   0.00000  Uiso   1.00
C142   C     0.36780   0.11308   0.68834   0.00000  Uiso   1.00
C143   C     0.50461   0.31607   0.69454   0.00000  Uiso   1.00
C144   C     0.23165   0.69401   0.68160   0.00000  Uiso   1.00
C145   C     0.23794   0.63621   0.66841   0.00000  Uiso   1.00
C146   C     0.30904   0.57861   0.66894   0.00000  Uiso   1.00
C147   C     0.41180   0.47221   0.66391   0.00000  Uiso   1.00
C148   C     0.07167   0.70052   0.69690   0.00000  Uiso   1.00
C149   C     0.94345   0.64815   0.69659   0.00000  Uiso   1.00
C150   C     0.87986   0.59599   0.71001   0.00000  Uiso   1.00
C151   C     0.73423   0.49970   0.72875   0.00000  Uiso   1.00
C152   C     0.27439   0.76294   0.70793   0.00000  Uiso   1.00
C153   C     0.31603   0.89348   0.70208   0.00000  Uiso   1.00
C154   C     0.40555   0.00347   0.70871   0.00000  Uiso   1.00
C155   C     0.43040   0.11333   0.70162   0.00000  Uiso   1.00
C156   C     0.29414   0.69426   0.69485   0.00000  Uiso   1.00
C157   C     0.36524   0.63671   0.69540   0.00000  Uiso   1.00
C158   C     0.37165   0.57885   0.68221   0.00000  Uiso   1.00
C159   C     0.13416   0.70077   0.71016   0.00000  Uiso   1.00
C160   C     0.07075   0.64866   0.72358   0.00000  Uiso   1.00
C161   C     0.94247   0.59624   0.72328   0.00000  Uiso   1.00
H162   H     0.11068   0.76229   0.67322   0.00000  Uiso   1.00
H163   H     0.22988   0.00274   0.67147   0.00000  Uiso   1.00
H164   H     0.18956   0.63603   0.65815   0.00000  Uiso   1.00
H165   H     0.89513   0.64798   0.68633   0.00000  Uiso   1.00
H166   H     0.38963   0.26942   0.67537   0.00000  Uiso   1.00
H167   H     0.30458   0.49616   0.64729   0.00000  Uiso   1.00
H168   H     0.68370   0.52135   0.70671   0.00000  Uiso   1.00
H169   H     0.32304   0.76313   0.71825   0.00000  Uiso   1.00
H170   H     0.45390   0.00363   0.71897   0.00000  Uiso   1.00
H171   H     0.41358   0.63692   0.70565   0.00000  Uiso   1.00
H172   H     0.11914   0.64887   0.73383   0.00000  Uiso   1.00
H173   H     0.57145   0.27014   0.71392   0.00000  Uiso   1.00
H174   H     0.48640   0.49688   0.68585   0.00000  Uiso   1.00
H175   H     0.86552   0.52208   0.74526   0.00000  Uiso   1.00
O176   O     0.56282   0.42797   0.69430   0.00000  Uiso   1.00
O177   O     0.45122   0.41347   0.65747   0.00000  Uiso   1.00
O178   O     0.63664   0.44653   0.73542   0.00000  Uiso   1.00
N179   N     0.41445   0.23659   0.68434   0.00000  Uiso   1.00
N180   N     0.33495   0.51365   0.65809   0.00000  Uiso   1.00
N181   N     0.75447   0.53718   0.71364   0.00000  Uiso   1.00
N182   N     0.51228   0.23697   0.70509   0.00000  Uiso   1.00
N183   N     0.43278   0.51404   0.67884   0.00000  Uiso   1.00
N184   N     0.85231   0.53757   0.73439   0.00000  Uiso   1.00
C185   C     0.23751   0.39684   0.35020   0.00000  Uiso   1.00
C186   C     0.10676   0.36029   0.35550   0.00000  Uiso   1.00
C187   C     0.99703   0.27529   0.34839   0.00000  Uiso   1.00
C188   C     0.88692   0.25471   0.35501   0.00000  Uiso   1.00
C189   C     0.68393   0.18854   0.36121   0.00000  Uiso   1.00
C190   C     0.30599   0.53763   0.34826   0.00000  Uiso   1.00
C191   C     0.36379   0.60173   0.33507   0.00000  Uiso   1.00
C192   C     0.42139   0.73044   0.33560   0.00000  Uiso   1.00
C193   C     0.52779   0.93959   0.33057   0.00000  Uiso   1.00
C194   C     0.29948   0.37115   0.36357   0.00000  Uiso   1.00
C195   C     0.35185   0.29530   0.36325   0.00000  Uiso   1.00
C196   C     0.40401   0.28387   0.37667   0.00000  Uiso   1.00
C197   C     0.50030   0.23453   0.39541   0.00000  Uiso   1.00
C198   C     0.23706   0.51145   0.37460   0.00000  Uiso   1.00
C199   C     0.10652   0.42255   0.36875   0.00000  Uiso   1.00
C200   C     0.99653   0.40208   0.37538   0.00000  Uiso   1.00
C201   C     0.88667   0.31707   0.36829   0.00000  Uiso   1.00
C202   C     0.30574   0.59988   0.36151   0.00000  Uiso   1.00
C203   C     0.36329   0.72852   0.36206   0.00000  Uiso   1.00
C204   C     0.42115   0.79280   0.34888   0.00000  Uiso   1.00
C205   C     0.29923   0.43340   0.37682   0.00000  Uiso   1.00
C206   C     0.35134   0.42209   0.39024   0.00000  Uiso   1.00
C207   C     0.40376   0.34623   0.38995   0.00000  Uiso   1.00
H208   H     0.23771   0.34839   0.33989   0.00000  Uiso   1.00
H209   H     0.99726   0.22715   0.33813   0.00000  Uiso   1.00
H210   H     0.36397   0.55353   0.32482   0.00000  Uiso   1.00
H211   H     0.35202   0.24715   0.35300   0.00000  Uiso   1.00
H212   H     0.73058   0.12021   0.34203   0.00000  Uiso   1.00
H213   H     0.50384   0.80842   0.31396   0.00000  Uiso   1.00
H214   H     0.47865   0.16234   0.37338   0.00000  Uiso   1.00
H215   H     0.23687   0.55991   0.38492   0.00000  Uiso   1.00
H216   H     0.99637   0.45027   0.38564   0.00000  Uiso   1.00
H217   H     0.36308   0.77666   0.37232   0.00000  Uiso   1.00
H218   H     0.35113   0.47027   0.40050   0.00000  Uiso   1.00
H219   H     0.72986   0.30131   0.38058   0.00000  Uiso   1.00
H220   H     0.50312   0.98952   0.35251   0.00000  Uiso   1.00
H221   H     0.47792   0.34344   0.41193   0.00000  Uiso   1.00
O222   O     0.57203   0.13485   0.36097   0.00000  Uiso   1.00
O223   O     0.58653   0.03775   0.32414   0.00000  Uiso   1.00
O224   O     0.55347   0.19011   0.40209   0.00000  Uiso   1.00
N225   N     0.76341   0.17786   0.35101   0.00000  Uiso   1.00
N226   N     0.48635   0.82130   0.32476   0.00000  Uiso   1.00
N227   N     0.46282   0.21729   0.38031   0.00000  Uiso   1.00
N228   N     0.76303   0.27531   0.37175   0.00000  Uiso   1.00
N229   N     0.48596   0.91874   0.34551   0.00000  Uiso   1.00
N230   N     0.46243   0.31474   0.40105   0.00000  Uiso   1.00
C231   C     0.60316   0.84067   0.01687   0.00000  Uiso   1.00
C232   C     0.63971   0.74646   0.02216   0.00000  Uiso   1.00
C233   C     0.72471   0.72174   0.01506   0.00000  Uiso   1.00
C234   C     0.74529   0.63220   0.02168   0.00000  Uiso   1.00
C235   C     0.81146   0.49539   0.02788   0.00000  Uiso   1.00
C236   C     0.46237   0.76835   0.01493   0.00000  Uiso   1.00
C237   C     0.39827   0.76206   0.00174   0.00000  Uiso   1.00
C238   C     0.26956   0.69096   0.00227   0.00000  Uiso   1.00
C239   C     0.06041   0.58820   0.99724   0.00000  Uiso   1.00
C240   C     0.62885   0.92833   0.03024   0.00000  Uiso   1.00
C241   C     0.70470   0.05655   0.02992   0.00000  Uiso   1.00
C242   C     0.71613   0.12014   0.04334   0.00000  Uiso   1.00
C243   C     0.76547   0.26577   0.06208   0.00000  Uiso   1.00
C244   C     0.48855   0.72561   0.04127   0.00000  Uiso   1.00
C245   C     0.57745   0.68397   0.03541   0.00000  Uiso   1.00
C246   C     0.59792   0.59445   0.04205   0.00000  Uiso   1.00
C247   C     0.68293   0.56960   0.03495   0.00000  Uiso   1.00
C248   C     0.40012   0.70586   0.02818   0.00000  Uiso   1.00
C249   C     0.27148   0.63476   0.02873   0.00000  Uiso   1.00
C250   C     0.20720   0.62835   0.01555   0.00000  Uiso   1.00
C251   C     0.56660   0.86584   0.04349   0.00000  Uiso   1.00
C252   C     0.57791   0.92925   0.05691   0.00000  Uiso   1.00
C253   C     0.65377   0.05753   0.05661   0.00000  Uiso   1.00
H254   H     0.65161   0.88932   0.00655   0.00000  Uiso   1.00
H255   H     0.77285   0.77012   0.00480   0.00000  Uiso   1.00
H256   H     0.44647   0.81044   0.99149   0.00000  Uiso   1.00
H257   H     0.75285   0.10487   0.01966   0.00000  Uiso   1.00
H258   H     0.87979   0.61037   0.00870   0.00000  Uiso   1.00
H259   H     0.19158   0.69542   0.98063   0.00000  Uiso   1.00
H260   H     0.83766   0.31630   0.04004   0.00000  Uiso   1.00
H261   H     0.44009   0.67696   0.05158   0.00000  Uiso   1.00
H262   H     0.54973   0.54610   0.05230   0.00000  Uiso   1.00
H263   H     0.22334   0.58642   0.03899   0.00000  Uiso   1.00
H264   H     0.52973   0.88086   0.06716   0.00000  Uiso   1.00
H265   H     0.69869   0.42855   0.04725   0.00000  Uiso   1.00
H266   H     0.01048   0.51360   0.01918   0.00000  Uiso   1.00
H267   H     0.65656   0.13448   0.07859   0.00000  Uiso   1.00
O268   O     0.86515   0.43718   0.02763   0.00000  Uiso   1.00
O269   O     0.96225   0.54878   0.99080   0.00000  Uiso   1.00
O270   O     0.80989   0.36336   0.06876   0.00000  Uiso   1.00
N271   N     0.82214   0.58555   0.01768   0.00000  Uiso   1.00
N272   N     0.17870   0.66505   0.99143   0.00000  Uiso   1.00
N273   N     0.78271   0.24553   0.04698   0.00000  Uiso   1.00
N274   N     0.72469   0.48772   0.03842   0.00000  Uiso   1.00
N275   N     0.08126   0.56722   0.01217   0.00000  Uiso   1.00
N276   N     0.68526   0.14769   0.06772   0.00000  Uiso   1.00
C277   C     0.23751   0.84067   0.48313   0.00000  Uiso   1.00
C278   C     0.10676   0.74646   0.47784   0.00000  Uiso   1.00
C279   C     0.99703   0.72174   0.48494   0.00000  Uiso   1.00
C280   C     0.88692   0.63220   0.47832   0.00000  Uiso   1.00
C281   C     0.68393   0.49539   0.47212   0.00000  Uiso   1.00
C282   C     0.30599   0.76835   0.48507   0.00000  Uiso   1.00
C283   C     0.36379   0.76206   0.49826   0.00000  Uiso   1.00
C284   C     0.42139   0.69096   0.49773   0.00000  Uiso   1.00
C285   C     0.52779   0.58820   0.50276   0.00000  Uiso   1.00
C286   C     0.29948   0.92833   0.46976   0.00000  Uiso   1.00
C287   C     0.35185   0.05655   0.47008   0.00000  Uiso   1.00
C288   C     0.40401   0.12014   0.45666   0.00000  Uiso   1.00
C289   C     0.50030   0.26577   0.43792   0.00000  Uiso   1.00
C290   C     0.23706   0.72561   0.45873   0.00000  Uiso   1.00
C291   C     0.10652   0.68397   0.46459   0.00000  Uiso   1.00
C292   C     0.99653   0.59445   0.45795   0.00000  Uiso   1.00
C293   C     0.88667   0.56960   0.46505   0.00000  Uiso   1.00
C294   C     0.30574   0.70586   0.47182   0.00000  Uiso   1.00
C295   C     0.36329   0.63476   0.47127   0.00000  Uiso   1.00
C296   C     0.42115   0.62835   0.48445   0.00000  Uiso   1.00
C297   C     0.29923   0.86584   0.45651   0.00000  Uiso   1.00
C298   C     0.35134   0.92925   0.44309   0.00000  Uiso   1.00
C299   C     0.40376   0.05753   0.44339   0.00000  Uiso   1.00
H300   H     0.23771   0.88932   0.49345   0.00000  Uiso   1.00
H301   H     0.99726   0.77012   0.49520   0.00000  Uiso   1.00
H302   H     0.36397   0.81044   0.50851   0.00000  Uiso   1.00
H303   H     0.35202   0.10487   0.48034   0.00000  Uiso   1.00
H304   H     0.73058   0.61037   0.49130   0.00000  Uiso   1.00
H305   H     0.50384   0.69542   0.51937   0.00000  Uiso   1.00
H306   H     0.47865   0.31630   0.45996   0.00000  Uiso   1.00
H307   H     0.23687   0.67696   0.44842   0.00000  Uiso   1.00
H308   H     0.99637   0.54610   0.44770   0.00000  Uiso   1.00
H309   H     0.36308   0.58642   0.46101   0.00000  Uiso   1.00
H310   H     0.35113   0.88086   0.43284   0.00000  Uiso   1.00
H311   H     0.72986   0.42855   0.45275   0.00000  Uiso   1.00
H312   H     0.50312   0.51360   0.48082   0.00000  Uiso   1.00
H313   H     0.47792   0.13448   0.42141   0.00000  Uiso   1.00
O314   O     0.57203   0.43718   0.47237   0.00000  Uiso   1.00
O315   O     0.58653   0.54878   0.50920   0.00000  Uiso   1.00
O316   O     0.55347   0.36336   0.43124   0.00000  Uiso   1.00
N317   N     0.76341   0.58555   0.48232   0.00000  Uiso   1.00
N318   N     0.48635   0.66505   0.50857   0.00000  Uiso   1.00
N319   N     0.46282   0.24553   0.45302   0.00000  Uiso   1.00
N320   N     0.76303   0.48772   0.46158   0.00000  Uiso   1.00
N321   N     0.48596   0.56722   0.48783   0.00000  Uiso   1.00
N322   N     0.46243   0.14769   0.43228   0.00000  Uiso   1.00
C323   C     0.60316   0.76249   0.81646   0.00000  Uiso   1.00
C324   C     0.63971   0.89324   0.81117   0.00000  Uiso   1.00
C325   C     0.72471   0.00297   0.81828   0.00000  Uiso   1.00
C326   C     0.74529   0.11308   0.81166   0.00000  Uiso   1.00
C327   C     0.81146   0.31607   0.80546   0.00000  Uiso   1.00
C328   C     0.46237   0.69401   0.81840   0.00000  Uiso   1.00
C329   C     0.39827   0.63621   0.83159   0.00000  Uiso   1.00
C330   C     0.26956   0.57861   0.83106   0.00000  Uiso   1.00
C331   C     0.06041   0.47221   0.83609   0.00000  Uiso   1.00
C332   C     0.62885   0.70052   0.80310   0.00000  Uiso   1.00
C333   C     0.70470   0.64815   0.80341   0.00000  Uiso   1.00
C334   C     0.71613   0.59599   0.78999   0.00000  Uiso   1.00
C335   C     0.76547   0.49970   0.77125   0.00000  Uiso   1.00
C336   C     0.48855   0.76294   0.79207   0.00000  Uiso   1.00
C337   C     0.57745   0.89348   0.79792   0.00000  Uiso   1.00
C338   C     0.59792   0.00347   0.79129   0.00000  Uiso   1.00
C339   C     0.68293   0.11333   0.79838   0.00000  Uiso   1.00
C340   C     0.40012   0.69426   0.80515   0.00000  Uiso   1.00
C341   C     0.27148   0.63671   0.80460   0.00000  Uiso   1.00
C342   C     0.20720   0.57885   0.81779   0.00000  Uiso   1.00
C343   C     0.56660   0.70077   0.78984   0.00000  Uiso   1.00
C344   C     0.57791   0.64866   0.77642   0.00000  Uiso   1.00
C345   C     0.65377   0.59624   0.77672   0.00000  Uiso   1.00
H346   H     0.65161   0.76229   0.82678   0.00000  Uiso   1.00
H347   H     0.77285   0.00274   0.82853   0.00000  Uiso   1.00
H348   H     0.44647   0.63603   0.84185   0.00000  Uiso   1.00
H349   H     0.75285   0.64798   0.81367   0.00000  Uiso   1.00
H350   H     0.87979   0.26942   0.82463   0.00000  Uiso   1.00
H351   H     0.19158   0.49616   0.85271   0.00000  Uiso   1.00
H352   H     0.83766   0.52135   0.79329   0.00000  Uiso   1.00
H353   H     0.44009   0.76313   0.78175   0.00000  Uiso   1.00
H354   H     0.54973   0.00363   0.78103   0.00000  Uiso   1.00
H355   H     0.22334   0.63692   0.79435   0.00000  Uiso   1.00
H356   H     0.52973   0.64887   0.76617   0.00000  Uiso   1.00
H357   H     0.69869   0.27014   0.78608   0.00000  Uiso   1.00
H358   H     0.01048   0.49688   0.81415   0.00000  Uiso   1.00
H359   H     0.65656   0.52208   0.75474   0.00000  Uiso   1.00
O360   O     0.86515   0.42797   0.80570   0.00000  Uiso   1.00
O361   O     0.96225   0.41347   0.84253   0.00000  Uiso   1.00
O362   O     0.80989   0.44653   0.76458   0.00000  Uiso   1.00
N363   N     0.82214   0.23659   0.81566   0.00000  Uiso   1.00
N364   N     0.17870   0.51365   0.84191   0.00000  Uiso   1.00
N365   N     0.78271   0.53718   0.78636   0.00000  Uiso   1.00
N366   N     0.72469   0.23697   0.79491   0.00000  Uiso   1.00
N367   N     0.08126   0.51404   0.82116   0.00000  Uiso   1.00
N368   N     0.68526   0.53757   0.76561   0.00000  Uiso   1.00
C369   C     0.15933   0.39684   0.14980   0.00000  Uiso   1.00
C370   C     0.25354   0.36029   0.14450   0.00000  Uiso   1.00
C371   C     0.27826   0.27529   0.15161   0.00000  Uiso   1.00
C372   C     0.36780   0.25471   0.14499   0.00000  Uiso   1.00
C373   C     0.50461   0.18854   0.13879   0.00000  Uiso   1.00
C374   C     0.23165   0.53763   0.15174   0.00000  Uiso   1.00
C375   C     0.23794   0.60173   0.16493   0.00000  Uiso   1.00
C376   C     0.30904   0.73044   0.16440   0.00000  Uiso   1.00
C377   C     0.41180   0.93959   0.16943   0.00000  Uiso   1.00
C378   C     0.07167   0.37115   0.13643   0.00000  Uiso   1.00
C379   C     0.94345   0.29530   0.13675   0.00000  Uiso   1.00
C380   C     0.87986   0.28387   0.12333   0.00000  Uiso   1.00
C381   C     0.73423   0.23453   0.10459   0.00000  Uiso   1.00
C382   C     0.27439   0.51145   0.12540   0.00000  Uiso   1.00
C383   C     0.31603   0.42255   0.13125   0.00000  Uiso   1.00
C384   C     0.40555   0.40208   0.12462   0.00000  Uiso   1.00
C385   C     0.43040   0.31707   0.13171   0.00000  Uiso   1.00
C386   C     0.29414   0.59988   0.13849   0.00000  Uiso   1.00
C387   C     0.36524   0.72852   0.13794   0.00000  Uiso   1.00
C388   C     0.37165   0.79280   0.15112   0.00000  Uiso   1.00
C389   C     0.13416   0.43340   0.12318   0.00000  Uiso   1.00
C390   C     0.07075   0.42209   0.10976   0.00000  Uiso   1.00
C391   C     0.94247   0.34623   0.11005   0.00000  Uiso   1.00
H392   H     0.11068   0.34839   0.16011   0.00000  Uiso   1.00
H393   H     0.22988   0.22715   0.16187   0.00000  Uiso   1.00
H394   H     0.18956   0.55353   0.17518   0.00000  Uiso   1.00
H395   H     0.89513   0.24715   0.14700   0.00000  Uiso   1.00
H396   H     0.38963   0.12021   0.15797   0.00000  Uiso   1.00
H397   H     0.30458   0.80842   0.18604   0.00000  Uiso   1.00
H398   H     0.68370   0.16234   0.12662   0.00000  Uiso   1.00
H399   H     0.32304   0.55991   0.11508   0.00000  Uiso   1.00
H400   H     0.45390   0.45027   0.11436   0.00000  Uiso   1.00
H401   H     0.41358   0.77666   0.12768   0.00000  Uiso   1.00
H402   H     0.11914   0.47027   0.09950   0.00000  Uiso   1.00
H403   H     0.57145   0.30131   0.11942   0.00000  Uiso   1.00
H404   H     0.48640   0.98952   0.14749   0.00000  Uiso   1.00
H405   H     0.86552   0.34344   0.08807   0.00000  Uiso   1.00
O406   O     0.56282   0.13485   0.13903   0.00000  Uiso   1.00
O407   O     0.45122   0.03775   0.17586   0.00000  Uiso   1.00
O408   O     0.63664   0.19011   0.09791   0.00000  Uiso   1.00
N409   N     0.41445   0.17786   0.14899   0.00000  Uiso   1.00
N410   N     0.33495   0.82130   0.17524   0.00000  Uiso   1.00
N411   N     0.75447   0.21729   0.11969   0.00000  Uiso   1.00
N412   N     0.51228   0.27531   0.12825   0.00000  Uiso   1.00
N413   N     0.43278   0.91874   0.15449   0.00000  Uiso   1.00
N414   N     0.85231   0.31474   0.09895   0.00000  Uiso   1.00
C415   C     0.76249   0.15933   0.98313   0.00000  Uiso   1.00
C416   C     0.89324   0.25354   0.97784   0.00000  Uiso   1.00
C417   C     0.00297   0.27826   0.98494   0.00000  Uiso   1.00
C418   C     0.11308   0.36780   0.97832   0.00000  Uiso   1.00
C419   C     0.31607   0.50461   0.97212   0.00000  Uiso   1.00
C420   C     0.69401   0.23165   0.98507   0.00000  Uiso   1.00
C421   C     0.63621   0.23794   0.99826   0.00000  Uiso   1.00
C422   C     0.57861   0.30904   0.99773   0.00000  Uiso   1.00
C423   C     0.47221   0.41180   0.00276   0.00000  Uiso   1.00
C424   C     0.70052   0.07167   0.96976   0.00000  Uiso   1.00
C425   C     0.64815   0.94345   0.97008   0.00000  Uiso   1.00
C426   C     0.59599   0.87986   0.95666   0.00000  Uiso   1.00
C427   C     0.49970   0.73423   0.93792   0.00000  Uiso   1.00
C428   C     0.76294   0.27439   0.95873   0.00000  Uiso   1.00
C429   C     0.89348   0.31603   0.96459   0.00000  Uiso   1.00
C430   C     0.00347   0.40555   0.95795   0.00000  Uiso   1.00
C431   C     0.11333   0.43040   0.96505   0.00000  Uiso   1.00
C432   C     0.69426   0.29414   0.97182   0.00000  Uiso   1.00
C433   C     0.63671   0.36524   0.97127   0.00000  Uiso   1.00
C434   C     0.57885   0.37165   0.98445   0.00000  Uiso   1.00
C435   C     0.70077   0.13416   0.95651   0.00000  Uiso   1.00
C436   C     0.64866   0.07075   0.94309   0.00000  Uiso   1.00
C437   C     0.59624   0.94247   0.94339   0.00000  Uiso   1.00
H438   H     0.76229   0.11068   0.99345   0.00000  Uiso   1.00
H439   H     0.00274   0.22988   0.99520   0.00000  Uiso   1.00
H440   H     0.63603   0.18956   0.00851   0.00000  Uiso   1.00
H441   H     0.64798   0.89513   0.98034   0.00000  Uiso   1.00
H442   H     0.26942   0.38963   0.99130   0.00000  Uiso   1.00
H443   H     0.49616   0.30458   0.01937   0.00000  Uiso   1.00
H444   H     0.52135   0.68370   0.95996   0.00000  Uiso   1.00
H445   H     0.76313   0.32304   0.94842   0.00000  Uiso   1.00
H446   H     0.00363   0.45390   0.94770   0.00000  Uiso   1.00
H447   H     0.63692   0.41358   0.96101   0.00000  Uiso   1.00
H448   H     0.64887   0.11914   0.93284   0.00000  Uiso   1.00
H449   H     0.27014   0.57145   0.95275   0.00000  Uiso   1.00
H450   H     0.49688   0.48640   0.98082   0.00000  Uiso   1.00
H451   H     0.52208   0.86552   0.92141   0.00000  Uiso   1.00
O452   O     0.42797   0.56282   0.97237   0.00000  Uiso   1.00
O453   O     0.41347   0.45122   0.00920   0.00000  Uiso   1.00
O454   O     0.44653   0.63664   0.93124   0.00000  Uiso   1.00
N455   N     0.23659   0.41445   0.98232   0.00000  Uiso   1.00
N456   N     0.51365   0.33495   0.00857   0.00000  Uiso   1.00
N457   N     0.53718   0.75447   0.95302   0.00000  Uiso   1.00
N458   N     0.23697   0.51228   0.96158   0.00000  Uiso   1.00
N459   N     0.51404   0.43278   0.98783   0.00000  Uiso   1.00
N460   N     0.53757   0.85231   0.93228   0.00000  Uiso   1.00
C461   C     0.39684   0.23751   0.31646   0.00000  Uiso   1.00
C462   C     0.36029   0.10676   0.31117   0.00000  Uiso   1.00
C463   C     0.27529   0.99703   0.31828   0.00000  Uiso   1.00
C464   C     0.25471   0.88692   0.31166   0.00000  Uiso   1.00
C465   C     0.18854   0.68393   0.30546   0.00000  Uiso   1.00
C466   C     0.53763   0.30599   0.31840   0.00000  Uiso   1.00
C467   C     0.60173   0.36379   0.33159   0.00000  Uiso   1.00
C468   C     0.73044   0.42139   0.33106   0.00000  Uiso   1.00
C469   C     0.93959   0.52779   0.33609   0.00000  Uiso   1.00
C470   C     0.37115   0.29948   0.30310   0.00000  Uiso   1.00
C471   C     0.29530   0.35185   0.30341   0.00000  Uiso   1.00
C472   C     0.28387   0.40401   0.28999   0.00000  Uiso   1.00
C473   C     0.23453   0.50030   0.27125   0.00000  Uiso   1.00
C474   C     0.51145   0.23706   0.29207   0.00000  Uiso   1.00
C475   C     0.42255   0.10652   0.29792   0.00000  Uiso   1.00
C476   C     0.40208   0.99653   0.29129   0.00000  Uiso   1.00
C477   C     0.31707   0.88667   0.29838   0.00000  Uiso   1.00
C478   C     0.59988   0.30574   0.30515   0.00000  Uiso   1.00
C479   C     0.72852   0.36329   0.30460   0.00000  Uiso   1.00
C480   C     0.79280   0.42115   0.31779   0.00000  Uiso   1.00
C481   C     0.43340   0.29923   0.28984   0.00000  Uiso   1.00
C482   C     0.42209   0.35134   0.27642   0.00000  Uiso   1.00
C483   C     0.34623   0.40376   0.27672   0.00000  Uiso   1.00
H484   H     0.34839   0.23771   0.32678   0.00000  Uiso   1.00
H485   H     0.22715   0.99726   0.32853   0.00000  Uiso   1.00
H486   H     0.55353   0.36397   0.34185   0.00000  Uiso   1.00
H487   H     0.24715   0.35202   0.31367   0.00000  Uiso   1.00
H488   H     0.12021   0.73058   0.32463   0.00000  Uiso   1.00
H489   H     0.80842   0.50384   0.35271   0.00000  Uiso   1.00
H490   H     0.16234   0.47865   0.29329   0.00000  Uiso   1.00
H491   H     0.55991   0.23687   0.28175   0.00000  Uiso   1.00
H492   H     0.45027   0.99637   0.28103   0.00000  Uiso   1.00
H493   H     0.77666   0.36308   0.29435   0.00000  Uiso   1.00
H494   H     0.47027   0.35113   0.26617   0.00000  Uiso   1.00
H495   H     0.30131   0.72986   0.28608   0.00000  Uiso   1.00
H496   H     0.98952   0.50312   0.31415   0.00000  Uiso   1.00
H497   H     0.34344   0.47792   0.25474   0.00000  Uiso   1.00
O498   O     0.13485   0.57203   0.30570   0.00000  Uiso   1.00
O499   O     0.03775   0.58653   0.34253   0.00000  Uiso   1.00
O500   O     0.19011   0.55347   0.26458   0.00000  Uiso   1.00
N501   N     0.17786   0.76341   0.31566   0.00000  Uiso   1.00
N502   N     0.82130   0.48635   0.34191   0.00000  Uiso   1.00
N503   N     0.21729   0.46282   0.28636   0.00000  Uiso   1.00
N504   N     0.27531   0.76303   0.29491   0.00000  Uiso   1.00
N505   N     0.91874   0.48596   0.32116   0.00000  Uiso   1.00
N506   N     0.31474   0.46243   0.26561   0.00000  Uiso   1.00
C507   C     0.84067   0.60316   0.64980   0.00000  Uiso   1.00
C508   C     0.74646   0.63971   0.64450   0.00000  Uiso   1.00
C509   C     0.72174   0.72471   0.65161   0.00000  Uiso   1.00
C510   C     0.63220   0.74529   0.64499   0.00000  Uiso   1.00
C511   C     0.49539   0.81146   0.63879   0.00000  Uiso   1.00
C512   C     0.76835   0.46237   0.65174   0.00000  Uiso   1.00
C513   C     0.76206   0.39827   0.66493   0.00000  Uiso   1.00
C514   C     0.69096   0.26956   0.66440   0.00000  Uiso   1.00
C515   C     0.58820   0.06041   0.66943   0.00000  Uiso   1.00
C516   C     0.92833   0.62885   0.63643   0.00000  Uiso   1.00
C517   C     0.05655   0.70470   0.63675   0.00000  Uiso   1.00
C518   C     0.12014   0.71613   0.62333   0.00000  Uiso   1.00
C519   C     0.26577   0.76547   0.60459   0.00000  Uiso   1.00
C520   C     0.72561   0.48855   0.62540   0.00000  Uiso   1.00
C521   C     0.68397   0.57745   0.63125   0.00000  Uiso   1.00
C522   C     0.59445   0.59792   0.62462   0.00000  Uiso   1.00
C523   C     0.56960   0.68293   0.63171   0.00000  Uiso   1.00
C524   C     0.70586   0.40012   0.63849   0.00000  Uiso   1.00
C525   C     0.63476   0.27148   0.63794   0.00000  Uiso   1.00
C526   C     0.62835   0.20720   0.65112   0.00000  Uiso   1.00
C527   C     0.86584   0.56660   0.62318   0.00000  Uiso   1.00
C528   C     0.92925   0.57791   0.60976   0.00000  Uiso   1.00
C529   C     0.05753   0.65377   0.61005   0.00000  Uiso   1.00
H530   H     0.88932   0.65161   0.66011   0.00000  Uiso   1.00
H531   H     0.77012   0.77285   0.66187   0.00000  Uiso   1.00
H532   H     0.81044   0.44647   0.67518   0.00000  Uiso   1.00
H533   H     0.10487   0.75285   0.64700   0.00000  Uiso   1.00
H534   H     0.61037   0.87979   0.65797   0.00000  Uiso   1.00
H535   H     0.69542   0.19158   0.68604   0.00000  Uiso   1.00
H536   H     0.31630   0.83766   0.62662   0.00000  Uiso   1.00
H537   H     0.67696   0.44009   0.61508   0.00000  Uiso   1.00
H538   H     0.54610   0.54973   0.61436   0.00000  Uiso   1.00
H539   H     0.58642   0.22334   0.62768   0.00000  Uiso   1.00
H540   H     0.88086   0.52973   0.59950   0.00000  Uiso   1.00
H541   H     0.42855   0.69869   0.61942   0.00000  Uiso   1.00
H542   H     0.51360   0.01048   0.64749   0.00000  Uiso   1.00
H543   H     0.13448   0.65656   0.58807   0.00000  Uiso   1.00
O544   O     0.43718   0.86515   0.63903   0.00000  Uiso   1.00
O545   O     0.54878   0.96225   0.67586   0.00000  Uiso   1.00
O546   O     0.36336   0.80989   0.59791   0.00000  Uiso   1.00
N547   N     0.58555   0.82214   0.64899   0.00000  Uiso   1.00
N548   N     0.66505   0.17870   0.67524   0.00000  Uiso   1.00
N549   N     0.24553   0.78271   0.61969   0.00000  Uiso   1.00
N550   N     0.48772   0.72469   0.62825   0.00000  Uiso   1.00
N551   N     0.56722   0.08126   0.65449   0.00000  Uiso   1.00
N552   N     0.14769   0.68526   0.59895   0.00000  Uiso   1.00
