data_job_00713
_audit_creation_date              2018-12-19
_audit_creation_method            'Materials Studio'
_symmetry_space_group_name_H-M    'P1'
_symmetry_Int_Tables_number       1
_symmetry_cell_setting            triclinic
loop_
_symmetry_equiv_pos_as_xyz
  x,y,z
_cell_length_a                    20.7387
_cell_length_b                    17.2631
_cell_length_c                    17.4940
_cell_angle_alpha                 90.0000
_cell_angle_beta                  90.0000
_cell_angle_gamma                 90.0000
loop_
_atom_site_label
_atom_site_type_symbol
_atom_site_fract_x
_atom_site_fract_y
_atom_site_fract_z
_atom_site_U_iso_or_equiv
_atom_site_adp_type
_atom_site_occupancy
C1     C     0.82374   0.61647   0.14160   0.00000  Uiso   1.00
C2     C     0.85275   0.54606   0.18146   0.00000  Uiso   1.00
C3     C     0.87630   0.54432   0.25569   0.00000  Uiso   1.00
C4     C     0.90090   0.47429   0.28162   0.00000  Uiso   1.00
C5     C     0.94582   0.37500   0.35061   0.00000  Uiso   1.00
C6     C     0.86311   0.62821   0.06889   0.00000  Uiso   1.00
C7     C     0.89536   0.69555   0.04848   0.00000  Uiso   1.00
C8     C     0.92867   0.69467   0.97963   0.00000  Uiso   1.00
C9     C     0.98963   0.72295   0.87383   0.00000  Uiso   1.00
C10    C     0.75660   0.59200   0.11552   0.00000  Uiso   1.00
C11    C     0.69930   0.62890   0.13429   0.00000  Uiso   1.00
C12    C     0.64293   0.59754   0.10469   0.00000  Uiso   1.00
C13    C     0.53853   0.56959   0.07128   0.00000  Uiso   1.00
C14    C     0.82554   0.49517   0.05563   0.00000  Uiso   1.00
C15    C     0.85373   0.48018   0.13476   0.00000  Uiso   1.00
C16    C     0.87829   0.41013   0.16058   0.00000  Uiso   1.00
C17    C     0.90187   0.40829   0.23484   0.00000  Uiso   1.00
C18    C     0.86409   0.56234   0.02220   0.00000  Uiso   1.00
C19    C     0.89735   0.56136   0.95336   0.00000  Uiso   1.00
C20    C     0.92964   0.62867   0.93285   0.00000  Uiso   1.00
C21    C     0.75758   0.52612   0.06882   0.00000  Uiso   1.00
C22    C     0.70129   0.49470   0.03918   0.00000  Uiso   1.00
C23    C     0.64391   0.53154   0.05791   0.00000  Uiso   1.00
H24    H     0.82299   0.66776   0.17795   0.00000  Uiso   1.00
H25    H     0.87554   0.59532   0.29181   0.00000  Uiso   1.00
H26    H     0.89459   0.74653   0.08462   0.00000  Uiso   1.00
H27    H     0.69856   0.67988   0.17043   0.00000  Uiso   1.00
H28    H     0.93427   0.48597   0.39745   0.00000  Uiso   1.00
H29    H     0.97441   0.80480   0.96057   0.00000  Uiso   1.00
H30    H     0.56104   0.66427   0.14150   0.00000  Uiso   1.00
H31    H     0.82630   0.44388   0.01927   0.00000  Uiso   1.00
H32    H     0.87904   0.35916   0.12443   0.00000  Uiso   1.00
H33    H     0.89809   0.51036   0.91724   0.00000  Uiso   1.00
H34    H     0.70206   0.44372   0.00305   0.00000  Uiso   1.00
H35    H     0.93711   0.29429   0.26160   0.00000  Uiso   1.00
H36    H     0.97725   0.61312   0.82471   0.00000  Uiso   1.00
H37    H     0.56388   0.47259   0.00565   0.00000  Uiso   1.00
O38    O     0.97034   0.33844   0.40155   0.00000  Uiso   1.00
O39    O     0.02300   0.75674   0.82838   0.00000  Uiso   1.00
O40    O     0.48067   0.57237   0.06576   0.00000  Uiso   1.00
N41    N     0.92769   0.45248   0.35105   0.00000  Uiso   1.00
N42    N     0.96523   0.75057   0.94260   0.00000  Uiso   1.00
N43    N     0.57876   0.61920   0.11174   0.00000  Uiso   1.00
N44    N     0.92921   0.34934   0.27795   0.00000  Uiso   1.00
N45    N     0.96676   0.64742   0.86950   0.00000  Uiso   1.00
N46    N     0.58029   0.51605   0.03864   0.00000  Uiso   1.00
C47    C     0.67626   0.38353   0.64160   0.00000  Uiso   1.00
C48    C     0.64725   0.45394   0.68146   0.00000  Uiso   1.00
C49    C     0.62370   0.45568   0.75569   0.00000  Uiso   1.00
C50    C     0.59910   0.52571   0.78162   0.00000  Uiso   1.00
C51    C     0.55418   0.62500   0.85061   0.00000  Uiso   1.00
C52    C     0.63689   0.37179   0.56889   0.00000  Uiso   1.00
C53    C     0.60464   0.30445   0.54848   0.00000  Uiso   1.00
C54    C     0.57133   0.30533   0.47963   0.00000  Uiso   1.00
C55    C     0.51037   0.27705   0.37383   0.00000  Uiso   1.00
C56    C     0.74340   0.40800   0.61552   0.00000  Uiso   1.00
C57    C     0.80070   0.37110   0.63429   0.00000  Uiso   1.00
C58    C     0.85707   0.40246   0.60469   0.00000  Uiso   1.00
C59    C     0.96147   0.43041   0.57128   0.00000  Uiso   1.00
C60    C     0.67446   0.50483   0.55563   0.00000  Uiso   1.00
C61    C     0.64627   0.51982   0.63476   0.00000  Uiso   1.00
C62    C     0.62171   0.58987   0.66058   0.00000  Uiso   1.00
C63    C     0.59813   0.59171   0.73484   0.00000  Uiso   1.00
C64    C     0.63591   0.43766   0.52220   0.00000  Uiso   1.00
C65    C     0.60265   0.43864   0.45336   0.00000  Uiso   1.00
C66    C     0.57036   0.37133   0.43285   0.00000  Uiso   1.00
C67    C     0.74242   0.47388   0.56882   0.00000  Uiso   1.00
C68    C     0.79871   0.50530   0.53918   0.00000  Uiso   1.00
C69    C     0.85609   0.46846   0.55791   0.00000  Uiso   1.00
H70    H     0.67701   0.33224   0.67795   0.00000  Uiso   1.00
H71    H     0.62446   0.40468   0.79181   0.00000  Uiso   1.00
H72    H     0.60541   0.25347   0.58462   0.00000  Uiso   1.00
H73    H     0.80144   0.32012   0.67043   0.00000  Uiso   1.00
H74    H     0.56573   0.51403   0.89745   0.00000  Uiso   1.00
H75    H     0.52559   0.19520   0.46057   0.00000  Uiso   1.00
H76    H     0.93896   0.33573   0.64150   0.00000  Uiso   1.00
H77    H     0.67370   0.55612   0.51927   0.00000  Uiso   1.00
H78    H     0.62096   0.64084   0.62443   0.00000  Uiso   1.00
H79    H     0.60191   0.48964   0.41724   0.00000  Uiso   1.00
H80    H     0.79794   0.55628   0.50305   0.00000  Uiso   1.00
H81    H     0.56289   0.70571   0.76160   0.00000  Uiso   1.00
H82    H     0.52275   0.38688   0.32471   0.00000  Uiso   1.00
H83    H     0.93612   0.52741   0.50565   0.00000  Uiso   1.00
O84    O     0.52966   0.66156   0.90155   0.00000  Uiso   1.00
O85    O     0.47700   0.24326   0.32838   0.00000  Uiso   1.00
O86    O     0.01933   0.42763   0.56576   0.00000  Uiso   1.00
N87    N     0.57231   0.54752   0.85105   0.00000  Uiso   1.00
N88    N     0.53477   0.24943   0.44260   0.00000  Uiso   1.00
N89    N     0.92124   0.38080   0.61174   0.00000  Uiso   1.00
N90    N     0.57079   0.65066   0.77795   0.00000  Uiso   1.00
N91    N     0.53324   0.35258   0.36950   0.00000  Uiso   1.00
N92    N     0.91971   0.48395   0.53864   0.00000  Uiso   1.00
C93    C     0.17626   0.11647   0.35840   0.00000  Uiso   1.00
C94    C     0.14725   0.04606   0.31854   0.00000  Uiso   1.00
C95    C     0.12370   0.04432   0.24431   0.00000  Uiso   1.00
C96    C     0.09910   0.97429   0.21838   0.00000  Uiso   1.00
C97    C     0.05418   0.87500   0.14939   0.00000  Uiso   1.00
C98    C     0.13689   0.12821   0.43111   0.00000  Uiso   1.00
C99    C     0.10464   0.19555   0.45152   0.00000  Uiso   1.00
C100   C     0.07133   0.19467   0.52037   0.00000  Uiso   1.00
C101   C     0.01037   0.22295   0.62617   0.00000  Uiso   1.00
C102   C     0.24340   0.09200   0.38448   0.00000  Uiso   1.00
C103   C     0.30070   0.12890   0.36571   0.00000  Uiso   1.00
C104   C     0.35707   0.09754   0.39531   0.00000  Uiso   1.00
C105   C     0.46147   0.06959   0.42872   0.00000  Uiso   1.00
C106   C     0.17446   0.99517   0.44437   0.00000  Uiso   1.00
C107   C     0.14627   0.98018   0.36524   0.00000  Uiso   1.00
C108   C     0.12171   0.91013   0.33942   0.00000  Uiso   1.00
C109   C     0.09813   0.90829   0.26516   0.00000  Uiso   1.00
C110   C     0.13591   0.06234   0.47780   0.00000  Uiso   1.00
C111   C     0.10265   0.06136   0.54664   0.00000  Uiso   1.00
C112   C     0.07036   0.12867   0.56715   0.00000  Uiso   1.00
C113   C     0.24242   0.02612   0.43118   0.00000  Uiso   1.00
C114   C     0.29871   0.99470   0.46082   0.00000  Uiso   1.00
C115   C     0.35609   0.03154   0.44209   0.00000  Uiso   1.00
H116   H     0.17701   0.16776   0.32205   0.00000  Uiso   1.00
H117   H     0.12446   0.09532   0.20819   0.00000  Uiso   1.00
H118   H     0.10541   0.24653   0.41538   0.00000  Uiso   1.00
H119   H     0.30144   0.17988   0.32957   0.00000  Uiso   1.00
H120   H     0.06573   0.98597   0.10255   0.00000  Uiso   1.00
H121   H     0.02559   0.30480   0.53943   0.00000  Uiso   1.00
H122   H     0.43896   0.16427   0.35850   0.00000  Uiso   1.00
H123   H     0.17370   0.94388   0.48073   0.00000  Uiso   1.00
H124   H     0.12096   0.85916   0.37557   0.00000  Uiso   1.00
H125   H     0.10191   0.01036   0.58276   0.00000  Uiso   1.00
H126   H     0.29794   0.94372   0.49695   0.00000  Uiso   1.00
H127   H     0.06289   0.79429   0.23840   0.00000  Uiso   1.00
H128   H     0.02275   0.11312   0.67529   0.00000  Uiso   1.00
H129   H     0.43612   0.97259   0.49435   0.00000  Uiso   1.00
O130   O     0.02966   0.83844   0.09845   0.00000  Uiso   1.00
O131   O     0.97700   0.25674   0.67162   0.00000  Uiso   1.00
O132   O     0.51933   0.07237   0.43424   0.00000  Uiso   1.00
N133   N     0.07231   0.95248   0.14895   0.00000  Uiso   1.00
N134   N     0.03477   0.25057   0.55740   0.00000  Uiso   1.00
N135   N     0.42124   0.11920   0.38826   0.00000  Uiso   1.00
N136   N     0.07079   0.84934   0.22205   0.00000  Uiso   1.00
N137   N     0.03324   0.14742   0.63050   0.00000  Uiso   1.00
N138   N     0.41971   0.01605   0.46136   0.00000  Uiso   1.00
C139   C     0.32374   0.88353   0.85840   0.00000  Uiso   1.00
C140   C     0.35275   0.95394   0.81854   0.00000  Uiso   1.00
C141   C     0.37630   0.95568   0.74431   0.00000  Uiso   1.00
C142   C     0.40090   0.02571   0.71838   0.00000  Uiso   1.00
C143   C     0.44582   0.12500   0.64939   0.00000  Uiso   1.00
C144   C     0.36311   0.87179   0.93111   0.00000  Uiso   1.00
C145   C     0.39536   0.80445   0.95152   0.00000  Uiso   1.00
C146   C     0.42867   0.80533   0.02037   0.00000  Uiso   1.00
C147   C     0.48963   0.77705   0.12617   0.00000  Uiso   1.00
C148   C     0.25660   0.90800   0.88448   0.00000  Uiso   1.00
C149   C     0.19930   0.87110   0.86571   0.00000  Uiso   1.00
C150   C     0.14293   0.90246   0.89531   0.00000  Uiso   1.00
C151   C     0.03853   0.93041   0.92872   0.00000  Uiso   1.00
C152   C     0.32554   0.00483   0.94437   0.00000  Uiso   1.00
C153   C     0.35373   0.01982   0.86524   0.00000  Uiso   1.00
C154   C     0.37829   0.08987   0.83942   0.00000  Uiso   1.00
C155   C     0.40187   0.09171   0.76516   0.00000  Uiso   1.00
C156   C     0.36409   0.93766   0.97780   0.00000  Uiso   1.00
C157   C     0.39735   0.93864   0.04664   0.00000  Uiso   1.00
C158   C     0.42964   0.87133   0.06715   0.00000  Uiso   1.00
C159   C     0.25758   0.97388   0.93118   0.00000  Uiso   1.00
C160   C     0.20129   0.00530   0.96082   0.00000  Uiso   1.00
C161   C     0.14391   0.96846   0.94209   0.00000  Uiso   1.00
H162   H     0.32299   0.83224   0.82205   0.00000  Uiso   1.00
H163   H     0.37554   0.90468   0.70819   0.00000  Uiso   1.00
H164   H     0.39459   0.75347   0.91538   0.00000  Uiso   1.00
H165   H     0.19856   0.82012   0.82957   0.00000  Uiso   1.00
H166   H     0.43427   0.01403   0.60255   0.00000  Uiso   1.00
H167   H     0.47441   0.69520   0.03943   0.00000  Uiso   1.00
H168   H     0.06104   0.83573   0.85850   0.00000  Uiso   1.00
H169   H     0.32630   0.05612   0.98073   0.00000  Uiso   1.00
H170   H     0.37904   0.14084   0.87557   0.00000  Uiso   1.00
H171   H     0.39809   0.98964   0.08276   0.00000  Uiso   1.00
H172   H     0.20206   0.05628   0.99695   0.00000  Uiso   1.00
H173   H     0.43711   0.20571   0.73840   0.00000  Uiso   1.00
H174   H     0.47725   0.88688   0.17529   0.00000  Uiso   1.00
H175   H     0.06388   0.02741   0.99435   0.00000  Uiso   1.00
O176   O     0.47034   0.16156   0.59845   0.00000  Uiso   1.00
O177   O     0.52300   0.74326   0.17162   0.00000  Uiso   1.00
O178   O     0.98067   0.92763   0.93424   0.00000  Uiso   1.00
N179   N     0.42769   0.04752   0.64895   0.00000  Uiso   1.00
N180   N     0.46523   0.74943   0.05740   0.00000  Uiso   1.00
N181   N     0.07876   0.88080   0.88826   0.00000  Uiso   1.00
N182   N     0.42921   0.15066   0.72205   0.00000  Uiso   1.00
N183   N     0.46676   0.85258   0.13050   0.00000  Uiso   1.00
N184   N     0.08029   0.98395   0.96136   0.00000  Uiso   1.00
C185   C     0.17626   0.38353   0.85840   0.00000  Uiso   1.00
C186   C     0.14725   0.45394   0.81854   0.00000  Uiso   1.00
C187   C     0.12370   0.45568   0.74431   0.00000  Uiso   1.00
C188   C     0.09910   0.52571   0.71838   0.00000  Uiso   1.00
C189   C     0.05418   0.62500   0.64939   0.00000  Uiso   1.00
C190   C     0.13689   0.37179   0.93111   0.00000  Uiso   1.00
C191   C     0.10464   0.30445   0.95152   0.00000  Uiso   1.00
C192   C     0.07133   0.30533   0.02037   0.00000  Uiso   1.00
C193   C     0.01037   0.27705   0.12617   0.00000  Uiso   1.00
C194   C     0.24340   0.40800   0.88448   0.00000  Uiso   1.00
C195   C     0.30070   0.37110   0.86571   0.00000  Uiso   1.00
C196   C     0.35707   0.40246   0.89531   0.00000  Uiso   1.00
C197   C     0.46147   0.43041   0.92872   0.00000  Uiso   1.00
C198   C     0.17446   0.50483   0.94437   0.00000  Uiso   1.00
C199   C     0.14627   0.51982   0.86524   0.00000  Uiso   1.00
C200   C     0.12171   0.58987   0.83942   0.00000  Uiso   1.00
C201   C     0.09813   0.59171   0.76516   0.00000  Uiso   1.00
C202   C     0.13591   0.43766   0.97780   0.00000  Uiso   1.00
C203   C     0.10265   0.43864   0.04664   0.00000  Uiso   1.00
C204   C     0.07036   0.37133   0.06715   0.00000  Uiso   1.00
C205   C     0.24242   0.47388   0.93118   0.00000  Uiso   1.00
C206   C     0.29871   0.50530   0.96082   0.00000  Uiso   1.00
C207   C     0.35609   0.46846   0.94209   0.00000  Uiso   1.00
H208   H     0.17701   0.33224   0.82205   0.00000  Uiso   1.00
H209   H     0.12446   0.40468   0.70819   0.00000  Uiso   1.00
H210   H     0.10541   0.25347   0.91538   0.00000  Uiso   1.00
H211   H     0.30144   0.32012   0.82957   0.00000  Uiso   1.00
H212   H     0.06573   0.51403   0.60255   0.00000  Uiso   1.00
H213   H     0.02559   0.19520   0.03943   0.00000  Uiso   1.00
H214   H     0.43896   0.33573   0.85850   0.00000  Uiso   1.00
H215   H     0.17370   0.55612   0.98073   0.00000  Uiso   1.00
H216   H     0.12096   0.64084   0.87557   0.00000  Uiso   1.00
H217   H     0.10191   0.48964   0.08276   0.00000  Uiso   1.00
H218   H     0.29794   0.55628   0.99695   0.00000  Uiso   1.00
H219   H     0.06289   0.70571   0.73840   0.00000  Uiso   1.00
H220   H     0.02275   0.38688   0.17529   0.00000  Uiso   1.00
H221   H     0.43612   0.52741   0.99435   0.00000  Uiso   1.00
O222   O     0.02966   0.66156   0.59845   0.00000  Uiso   1.00
O223   O     0.97700   0.24326   0.17162   0.00000  Uiso   1.00
O224   O     0.51933   0.42763   0.93424   0.00000  Uiso   1.00
N225   N     0.07231   0.54752   0.64895   0.00000  Uiso   1.00
N226   N     0.03477   0.24943   0.05740   0.00000  Uiso   1.00
N227   N     0.42124   0.38080   0.88826   0.00000  Uiso   1.00
N228   N     0.07079   0.65066   0.72205   0.00000  Uiso   1.00
N229   N     0.03324   0.35258   0.13050   0.00000  Uiso   1.00
N230   N     0.41971   0.48395   0.96136   0.00000  Uiso   1.00
C231   C     0.32374   0.61647   0.35840   0.00000  Uiso   1.00
C232   C     0.35275   0.54606   0.31854   0.00000  Uiso   1.00
C233   C     0.37630   0.54432   0.24431   0.00000  Uiso   1.00
C234   C     0.40090   0.47429   0.21838   0.00000  Uiso   1.00
C235   C     0.44582   0.37500   0.14939   0.00000  Uiso   1.00
C236   C     0.36311   0.62821   0.43111   0.00000  Uiso   1.00
C237   C     0.39536   0.69555   0.45152   0.00000  Uiso   1.00
C238   C     0.42867   0.69467   0.52037   0.00000  Uiso   1.00
C239   C     0.48963   0.72295   0.62617   0.00000  Uiso   1.00
C240   C     0.25660   0.59200   0.38448   0.00000  Uiso   1.00
C241   C     0.19930   0.62890   0.36571   0.00000  Uiso   1.00
C242   C     0.14293   0.59754   0.39531   0.00000  Uiso   1.00
C243   C     0.03853   0.56959   0.42872   0.00000  Uiso   1.00
C244   C     0.32554   0.49517   0.44437   0.00000  Uiso   1.00
C245   C     0.35373   0.48018   0.36524   0.00000  Uiso   1.00
C246   C     0.37829   0.41013   0.33942   0.00000  Uiso   1.00
C247   C     0.40187   0.40829   0.26516   0.00000  Uiso   1.00
C248   C     0.36409   0.56234   0.47780   0.00000  Uiso   1.00
C249   C     0.39735   0.56136   0.54664   0.00000  Uiso   1.00
C250   C     0.42964   0.62867   0.56715   0.00000  Uiso   1.00
C251   C     0.25758   0.52612   0.43118   0.00000  Uiso   1.00
C252   C     0.20129   0.49470   0.46082   0.00000  Uiso   1.00
C253   C     0.14391   0.53154   0.44209   0.00000  Uiso   1.00
H254   H     0.32299   0.66776   0.32205   0.00000  Uiso   1.00
H255   H     0.37554   0.59532   0.20819   0.00000  Uiso   1.00
H256   H     0.39459   0.74653   0.41538   0.00000  Uiso   1.00
H257   H     0.19856   0.67988   0.32957   0.00000  Uiso   1.00
H258   H     0.43427   0.48597   0.10255   0.00000  Uiso   1.00
H259   H     0.47441   0.80480   0.53943   0.00000  Uiso   1.00
H260   H     0.06104   0.66427   0.35850   0.00000  Uiso   1.00
H261   H     0.32630   0.44388   0.48073   0.00000  Uiso   1.00
H262   H     0.37904   0.35916   0.37557   0.00000  Uiso   1.00
H263   H     0.39809   0.51036   0.58276   0.00000  Uiso   1.00
H264   H     0.20206   0.44372   0.49695   0.00000  Uiso   1.00
H265   H     0.43711   0.29429   0.23840   0.00000  Uiso   1.00
H266   H     0.47725   0.61312   0.67529   0.00000  Uiso   1.00
H267   H     0.06388   0.47259   0.49435   0.00000  Uiso   1.00
O268   O     0.47034   0.33844   0.09845   0.00000  Uiso   1.00
O269   O     0.52300   0.75674   0.67162   0.00000  Uiso   1.00
O270   O     0.98067   0.57237   0.43424   0.00000  Uiso   1.00
N271   N     0.42769   0.45248   0.14895   0.00000  Uiso   1.00
N272   N     0.46523   0.75057   0.55740   0.00000  Uiso   1.00
N273   N     0.07876   0.61920   0.38826   0.00000  Uiso   1.00
N274   N     0.42921   0.34934   0.22205   0.00000  Uiso   1.00
N275   N     0.46676   0.64742   0.63050   0.00000  Uiso   1.00
N276   N     0.08029   0.51605   0.46136   0.00000  Uiso   1.00
C277   C     0.82374   0.88353   0.64160   0.00000  Uiso   1.00
C278   C     0.85275   0.95394   0.68146   0.00000  Uiso   1.00
C279   C     0.87630   0.95568   0.75569   0.00000  Uiso   1.00
C280   C     0.90090   0.02571   0.78162   0.00000  Uiso   1.00
C281   C     0.94582   0.12500   0.85061   0.00000  Uiso   1.00
C282   C     0.86311   0.87179   0.56889   0.00000  Uiso   1.00
C283   C     0.89536   0.80445   0.54848   0.00000  Uiso   1.00
C284   C     0.92867   0.80533   0.47963   0.00000  Uiso   1.00
C285   C     0.98963   0.77705   0.37383   0.00000  Uiso   1.00
C286   C     0.75660   0.90800   0.61552   0.00000  Uiso   1.00
C287   C     0.69930   0.87110   0.63429   0.00000  Uiso   1.00
C288   C     0.64293   0.90246   0.60469   0.00000  Uiso   1.00
C289   C     0.53853   0.93041   0.57128   0.00000  Uiso   1.00
C290   C     0.82554   0.00483   0.55563   0.00000  Uiso   1.00
C291   C     0.85373   0.01982   0.63476   0.00000  Uiso   1.00
C292   C     0.87829   0.08987   0.66058   0.00000  Uiso   1.00
C293   C     0.90187   0.09171   0.73484   0.00000  Uiso   1.00
C294   C     0.86409   0.93766   0.52220   0.00000  Uiso   1.00
C295   C     0.89735   0.93864   0.45336   0.00000  Uiso   1.00
C296   C     0.92964   0.87133   0.43285   0.00000  Uiso   1.00
C297   C     0.75758   0.97388   0.56882   0.00000  Uiso   1.00
C298   C     0.70129   0.00530   0.53918   0.00000  Uiso   1.00
C299   C     0.64391   0.96846   0.55791   0.00000  Uiso   1.00
H300   H     0.82299   0.83224   0.67795   0.00000  Uiso   1.00
H301   H     0.87554   0.90468   0.79181   0.00000  Uiso   1.00
H302   H     0.89459   0.75347   0.58462   0.00000  Uiso   1.00
H303   H     0.69856   0.82012   0.67043   0.00000  Uiso   1.00
H304   H     0.93427   0.01403   0.89745   0.00000  Uiso   1.00
H305   H     0.97441   0.69520   0.46057   0.00000  Uiso   1.00
H306   H     0.56104   0.83573   0.64150   0.00000  Uiso   1.00
H307   H     0.82630   0.05612   0.51927   0.00000  Uiso   1.00
H308   H     0.87904   0.14084   0.62443   0.00000  Uiso   1.00
H309   H     0.89809   0.98964   0.41724   0.00000  Uiso   1.00
H310   H     0.70206   0.05628   0.50305   0.00000  Uiso   1.00
H311   H     0.93711   0.20571   0.76160   0.00000  Uiso   1.00
H312   H     0.97725   0.88688   0.32471   0.00000  Uiso   1.00
H313   H     0.56388   0.02741   0.50565   0.00000  Uiso   1.00
O314   O     0.97034   0.16156   0.90155   0.00000  Uiso   1.00
O315   O     0.02300   0.74326   0.32838   0.00000  Uiso   1.00
O316   O     0.48067   0.92763   0.56576   0.00000  Uiso   1.00
N317   N     0.92769   0.04752   0.85105   0.00000  Uiso   1.00
N318   N     0.96523   0.74943   0.44260   0.00000  Uiso   1.00
N319   N     0.57876   0.88080   0.61174   0.00000  Uiso   1.00
N320   N     0.92921   0.15066   0.77795   0.00000  Uiso   1.00
N321   N     0.96676   0.85258   0.36950   0.00000  Uiso   1.00
N322   N     0.58029   0.98395   0.53864   0.00000  Uiso   1.00
C323   C     0.67626   0.11647   0.14160   0.00000  Uiso   1.00
C324   C     0.64725   0.04606   0.18146   0.00000  Uiso   1.00
C325   C     0.62370   0.04432   0.25569   0.00000  Uiso   1.00
C326   C     0.59910   0.97429   0.28162   0.00000  Uiso   1.00
C327   C     0.55418   0.87500   0.35061   0.00000  Uiso   1.00
C328   C     0.63689   0.12821   0.06889   0.00000  Uiso   1.00
C329   C     0.60464   0.19555   0.04848   0.00000  Uiso   1.00
C330   C     0.57133   0.19467   0.97963   0.00000  Uiso   1.00
C331   C     0.51037   0.22295   0.87383   0.00000  Uiso   1.00
C332   C     0.74340   0.09200   0.11552   0.00000  Uiso   1.00
C333   C     0.80070   0.12890   0.13429   0.00000  Uiso   1.00
C334   C     0.85707   0.09754   0.10469   0.00000  Uiso   1.00
C335   C     0.96147   0.06959   0.07128   0.00000  Uiso   1.00
C336   C     0.67446   0.99517   0.05563   0.00000  Uiso   1.00
C337   C     0.64627   0.98018   0.13476   0.00000  Uiso   1.00
C338   C     0.62171   0.91013   0.16058   0.00000  Uiso   1.00
C339   C     0.59813   0.90829   0.23484   0.00000  Uiso   1.00
C340   C     0.63591   0.06234   0.02220   0.00000  Uiso   1.00
C341   C     0.60265   0.06136   0.95336   0.00000  Uiso   1.00
C342   C     0.57036   0.12867   0.93285   0.00000  Uiso   1.00
C343   C     0.74242   0.02612   0.06882   0.00000  Uiso   1.00
C344   C     0.79871   0.99470   0.03918   0.00000  Uiso   1.00
C345   C     0.85609   0.03154   0.05791   0.00000  Uiso   1.00
H346   H     0.67701   0.16776   0.17795   0.00000  Uiso   1.00
H347   H     0.62446   0.09532   0.29181   0.00000  Uiso   1.00
H348   H     0.60541   0.24653   0.08462   0.00000  Uiso   1.00
H349   H     0.80144   0.17988   0.17043   0.00000  Uiso   1.00
H350   H     0.56573   0.98597   0.39745   0.00000  Uiso   1.00
H351   H     0.52559   0.30480   0.96057   0.00000  Uiso   1.00
H352   H     0.93896   0.16427   0.14150   0.00000  Uiso   1.00
H353   H     0.67370   0.94388   0.01927   0.00000  Uiso   1.00
H354   H     0.62096   0.85916   0.12443   0.00000  Uiso   1.00
H355   H     0.60191   0.01036   0.91724   0.00000  Uiso   1.00
H356   H     0.79794   0.94372   0.00305   0.00000  Uiso   1.00
H357   H     0.56289   0.79429   0.26160   0.00000  Uiso   1.00
H358   H     0.52275   0.11312   0.82471   0.00000  Uiso   1.00
H359   H     0.93612   0.97259   0.00565   0.00000  Uiso   1.00
O360   O     0.52966   0.83844   0.40155   0.00000  Uiso   1.00
O361   O     0.47700   0.25674   0.82838   0.00000  Uiso   1.00
O362   O     0.01933   0.07237   0.06576   0.00000  Uiso   1.00
N363   N     0.57231   0.95248   0.35105   0.00000  Uiso   1.00
N364   N     0.53477   0.25057   0.94260   0.00000  Uiso   1.00
N365   N     0.92124   0.11920   0.11174   0.00000  Uiso   1.00
N366   N     0.57079   0.84934   0.27795   0.00000  Uiso   1.00
N367   N     0.53324   0.14742   0.86950   0.00000  Uiso   1.00
N368   N     0.91971   0.01605   0.03864   0.00000  Uiso   1.00
