data_job_02224
_audit_creation_date              2018-12-19
_audit_creation_method            'Materials Studio'
_symmetry_space_group_name_H-M    'P1'
_symmetry_Int_Tables_number       1
_symmetry_cell_setting            triclinic
loop_
_symmetry_equiv_pos_as_xyz
  x,y,z
_cell_length_a                    21.9582
_cell_length_b                    9.2933
_cell_length_c                    24.8193
_cell_angle_alpha                 90.0000
_cell_angle_beta                  140.5130
_cell_angle_gamma                 90.0000
loop_
_atom_site_label
_atom_site_type_symbol
_atom_site_fract_x
_atom_site_fract_y
_atom_site_fract_z
_atom_site_U_iso_or_equiv
_atom_site_adp_type
_atom_site_occupancy
C1     C     0.73848   0.30247   0.53948   0.00000  Uiso   1.00
C2     C     0.63885   0.23816   0.46416   0.00000  Uiso   1.00
C3     C     0.61642   0.09275   0.45050   0.00000  Uiso   1.00
C4     C     0.52104   0.05572   0.37777   0.00000  Uiso   1.00
C5     C     0.37704   0.93992   0.26946   0.00000  Uiso   1.00
C6     C     0.75760   0.39197   0.50217   0.00000  Uiso   1.00
C7     C     0.83502   0.37589   0.52049   0.00000  Uiso   1.00
C8     C     0.83962   0.46837   0.47977   0.00000  Uiso   1.00
C9     C     0.88002   0.59144   0.43052   0.00000  Uiso   1.00
C10    C     0.73026   0.40942   0.58023   0.00000  Uiso   1.00
C11    C     0.78471   0.40805   0.66418   0.00000  Uiso   1.00
C12    C     0.76630   0.51524   0.68918   0.00000  Uiso   1.00
C13    C     0.76425   0.66541   0.76113   0.00000  Uiso   1.00
C14    C     0.60899   0.49529   0.43459   0.00000  Uiso   1.00
C15    C     0.56851   0.34289   0.40719   0.00000  Uiso   1.00
C16    C     0.47315   0.30608   0.33446   0.00000  Uiso   1.00
C17    C     0.45058   0.16064   0.32070   0.00000  Uiso   1.00
C18    C     0.68727   0.49670   0.44520   0.00000  Uiso   1.00
C19    C     0.69175   0.58923   0.40445   0.00000  Uiso   1.00
C20    C     0.76915   0.57329   0.42269   0.00000  Uiso   1.00
C21    C     0.65992   0.51416   0.52326   0.00000  Uiso   1.00
C22    C     0.64143   0.62138   0.54813   0.00000  Uiso   1.00
C23    C     0.69584   0.62017   0.63211   0.00000  Uiso   1.00
H24    H     0.79325   0.22094   0.58383   0.00000  Uiso   1.00
H25    H     0.67087   0.01173   0.49460   0.00000  Uiso   1.00
H26    H     0.88945   0.29484   0.56459   0.00000  Uiso   1.00
H27    H     0.83913   0.32699   0.70825   0.00000  Uiso   1.00
H28    H     0.50419   0.82596   0.37054   0.00000  Uiso   1.00
H29    H     0.96508   0.42296   0.51812   0.00000  Uiso   1.00
H30    H     0.85899   0.49075   0.82107   0.00000  Uiso   1.00
H31    H     0.55423   0.57684   0.39024   0.00000  Uiso   1.00
H32    H     0.41873   0.38715   0.29038   0.00000  Uiso   1.00
H33    H     0.63731   0.67027   0.36037   0.00000  Uiso   1.00
H34    H     0.58699   0.70241   0.50403   0.00000  Uiso   1.00
H35    H     0.29954   0.13067   0.20478   0.00000  Uiso   1.00
H36    H     0.76044   0.72768   0.35237   0.00000  Uiso   1.00
H37    H     0.65434   0.79546   0.65532   0.00000  Uiso   1.00
O38    O     0.31705   0.84712   0.22545   0.00000  Uiso   1.00
O39    O     0.92173   0.63037   0.41909   0.00000  Uiso   1.00
O40    O     0.78254   0.71929   0.81655   0.00000  Uiso   1.00
N41    N     0.47461   0.92371   0.34524   0.00000  Uiso   1.00
N42    N     0.90551   0.48185   0.48321   0.00000  Uiso   1.00
N43    N     0.80635   0.54525   0.76645   0.00000  Uiso   1.00
N44    N     0.36450   0.08767   0.25605   0.00000  Uiso   1.00
N45    N     0.79540   0.64582   0.39402   0.00000  Uiso   1.00
N46    N     0.69623   0.70921   0.67726   0.00000  Uiso   1.00
C47    C     0.26152   0.30247   0.96052   0.00000  Uiso   1.00
C48    C     0.36115   0.23816   0.03584   0.00000  Uiso   1.00
C49    C     0.38358   0.09275   0.04950   0.00000  Uiso   1.00
C50    C     0.47896   0.05572   0.12223   0.00000  Uiso   1.00
C51    C     0.62296   0.93992   0.23054   0.00000  Uiso   1.00
C52    C     0.24240   0.39197   0.99783   0.00000  Uiso   1.00
C53    C     0.16498   0.37589   0.97951   0.00000  Uiso   1.00
C54    C     0.16038   0.46837   0.02023   0.00000  Uiso   1.00
C55    C     0.11998   0.59144   0.06948   0.00000  Uiso   1.00
C56    C     0.26974   0.40942   0.91977   0.00000  Uiso   1.00
C57    C     0.21529   0.40805   0.83582   0.00000  Uiso   1.00
C58    C     0.23370   0.51524   0.81082   0.00000  Uiso   1.00
C59    C     0.23575   0.66541   0.73887   0.00000  Uiso   1.00
C60    C     0.39101   0.49529   0.06541   0.00000  Uiso   1.00
C61    C     0.43149   0.34289   0.09281   0.00000  Uiso   1.00
C62    C     0.52685   0.30608   0.16554   0.00000  Uiso   1.00
C63    C     0.54942   0.16064   0.17930   0.00000  Uiso   1.00
C64    C     0.31273   0.49670   0.05480   0.00000  Uiso   1.00
C65    C     0.30825   0.58923   0.09555   0.00000  Uiso   1.00
C66    C     0.23085   0.57329   0.07731   0.00000  Uiso   1.00
C67    C     0.34008   0.51416   0.97674   0.00000  Uiso   1.00
C68    C     0.35857   0.62138   0.95187   0.00000  Uiso   1.00
C69    C     0.30416   0.62017   0.86789   0.00000  Uiso   1.00
H70    H     0.20675   0.22094   0.91617   0.00000  Uiso   1.00
H71    H     0.32913   0.01173   0.00540   0.00000  Uiso   1.00
H72    H     0.11055   0.29484   0.93541   0.00000  Uiso   1.00
H73    H     0.16087   0.32699   0.79175   0.00000  Uiso   1.00
H74    H     0.49581   0.82596   0.12946   0.00000  Uiso   1.00
H75    H     0.03492   0.42296   0.98188   0.00000  Uiso   1.00
H76    H     0.14101   0.49075   0.67893   0.00000  Uiso   1.00
H77    H     0.44577   0.57684   0.10976   0.00000  Uiso   1.00
H78    H     0.58127   0.38715   0.20962   0.00000  Uiso   1.00
H79    H     0.36269   0.67027   0.13963   0.00000  Uiso   1.00
H80    H     0.41301   0.70241   0.99597   0.00000  Uiso   1.00
H81    H     0.70046   0.13067   0.29522   0.00000  Uiso   1.00
H82    H     0.23956   0.72768   0.14763   0.00000  Uiso   1.00
H83    H     0.34566   0.79546   0.84468   0.00000  Uiso   1.00
O84    O     0.68295   0.84712   0.27455   0.00000  Uiso   1.00
O85    O     0.07827   0.63037   0.08091   0.00000  Uiso   1.00
O86    O     0.21746   0.71929   0.68345   0.00000  Uiso   1.00
N87    N     0.52539   0.92371   0.15476   0.00000  Uiso   1.00
N88    N     0.09449   0.48185   0.01679   0.00000  Uiso   1.00
N89    N     0.19365   0.54525   0.73355   0.00000  Uiso   1.00
N90    N     0.63550   0.08767   0.24395   0.00000  Uiso   1.00
N91    N     0.20460   0.64582   0.10598   0.00000  Uiso   1.00
N92    N     0.30377   0.70921   0.82274   0.00000  Uiso   1.00
C93    C     0.26152   0.69753   0.46052   0.00000  Uiso   1.00
C94    C     0.36115   0.76184   0.53584   0.00000  Uiso   1.00
C95    C     0.38358   0.90725   0.54950   0.00000  Uiso   1.00
C96    C     0.47896   0.94428   0.62223   0.00000  Uiso   1.00
C97    C     0.62296   0.06008   0.73054   0.00000  Uiso   1.00
C98    C     0.24240   0.60803   0.49783   0.00000  Uiso   1.00
C99    C     0.16498   0.62411   0.47951   0.00000  Uiso   1.00
C100   C     0.16038   0.53163   0.52023   0.00000  Uiso   1.00
C101   C     0.11998   0.40856   0.56948   0.00000  Uiso   1.00
C102   C     0.26974   0.59058   0.41977   0.00000  Uiso   1.00
C103   C     0.21529   0.59195   0.33582   0.00000  Uiso   1.00
C104   C     0.23370   0.48476   0.31082   0.00000  Uiso   1.00
C105   C     0.23575   0.33459   0.23887   0.00000  Uiso   1.00
C106   C     0.39101   0.50471   0.56541   0.00000  Uiso   1.00
C107   C     0.43149   0.65711   0.59281   0.00000  Uiso   1.00
C108   C     0.52685   0.69392   0.66554   0.00000  Uiso   1.00
C109   C     0.54942   0.83936   0.67930   0.00000  Uiso   1.00
C110   C     0.31273   0.50330   0.55480   0.00000  Uiso   1.00
C111   C     0.30825   0.41077   0.59555   0.00000  Uiso   1.00
C112   C     0.23085   0.42671   0.57731   0.00000  Uiso   1.00
C113   C     0.34008   0.48584   0.47674   0.00000  Uiso   1.00
C114   C     0.35857   0.37862   0.45187   0.00000  Uiso   1.00
C115   C     0.30416   0.37983   0.36789   0.00000  Uiso   1.00
H116   H     0.20675   0.77906   0.41617   0.00000  Uiso   1.00
H117   H     0.32913   0.98827   0.50540   0.00000  Uiso   1.00
H118   H     0.11055   0.70516   0.43541   0.00000  Uiso   1.00
H119   H     0.16087   0.67301   0.29175   0.00000  Uiso   1.00
H120   H     0.49581   0.17404   0.62946   0.00000  Uiso   1.00
H121   H     0.03492   0.57704   0.48188   0.00000  Uiso   1.00
H122   H     0.14101   0.50925   0.17893   0.00000  Uiso   1.00
H123   H     0.44577   0.42316   0.60976   0.00000  Uiso   1.00
H124   H     0.58127   0.61285   0.70962   0.00000  Uiso   1.00
H125   H     0.36269   0.32973   0.63963   0.00000  Uiso   1.00
H126   H     0.41301   0.29759   0.49597   0.00000  Uiso   1.00
H127   H     0.70046   0.86933   0.79522   0.00000  Uiso   1.00
H128   H     0.23956   0.27232   0.64763   0.00000  Uiso   1.00
H129   H     0.34566   0.20454   0.34468   0.00000  Uiso   1.00
O130   O     0.68295   0.15288   0.77455   0.00000  Uiso   1.00
O131   O     0.07827   0.36963   0.58091   0.00000  Uiso   1.00
O132   O     0.21746   0.28071   0.18345   0.00000  Uiso   1.00
N133   N     0.52539   0.07629   0.65476   0.00000  Uiso   1.00
N134   N     0.09449   0.51815   0.51679   0.00000  Uiso   1.00
N135   N     0.19365   0.45475   0.23355   0.00000  Uiso   1.00
N136   N     0.63550   0.91233   0.74395   0.00000  Uiso   1.00
N137   N     0.20460   0.35418   0.60598   0.00000  Uiso   1.00
N138   N     0.30377   0.29079   0.32274   0.00000  Uiso   1.00
C139   C     0.73848   0.69753   0.03948   0.00000  Uiso   1.00
C140   C     0.63885   0.76184   0.96416   0.00000  Uiso   1.00
C141   C     0.61642   0.90725   0.95050   0.00000  Uiso   1.00
C142   C     0.52104   0.94428   0.87777   0.00000  Uiso   1.00
C143   C     0.37704   0.06008   0.76946   0.00000  Uiso   1.00
C144   C     0.75760   0.60803   0.00217   0.00000  Uiso   1.00
C145   C     0.83502   0.62411   0.02049   0.00000  Uiso   1.00
C146   C     0.83962   0.53163   0.97977   0.00000  Uiso   1.00
C147   C     0.88002   0.40856   0.93052   0.00000  Uiso   1.00
C148   C     0.73026   0.59058   0.08023   0.00000  Uiso   1.00
C149   C     0.78471   0.59195   0.16418   0.00000  Uiso   1.00
C150   C     0.76630   0.48476   0.18918   0.00000  Uiso   1.00
C151   C     0.76425   0.33459   0.26113   0.00000  Uiso   1.00
C152   C     0.60899   0.50471   0.93459   0.00000  Uiso   1.00
C153   C     0.56851   0.65711   0.90719   0.00000  Uiso   1.00
C154   C     0.47315   0.69392   0.83446   0.00000  Uiso   1.00
C155   C     0.45058   0.83936   0.82070   0.00000  Uiso   1.00
C156   C     0.68727   0.50330   0.94520   0.00000  Uiso   1.00
C157   C     0.69175   0.41077   0.90445   0.00000  Uiso   1.00
C158   C     0.76915   0.42671   0.92269   0.00000  Uiso   1.00
C159   C     0.65992   0.48584   0.02326   0.00000  Uiso   1.00
C160   C     0.64143   0.37862   0.04813   0.00000  Uiso   1.00
C161   C     0.69584   0.37983   0.13211   0.00000  Uiso   1.00
H162   H     0.79325   0.77906   0.08383   0.00000  Uiso   1.00
H163   H     0.67087   0.98827   0.99460   0.00000  Uiso   1.00
H164   H     0.88945   0.70516   0.06459   0.00000  Uiso   1.00
H165   H     0.83913   0.67301   0.20825   0.00000  Uiso   1.00
H166   H     0.50419   0.17404   0.87054   0.00000  Uiso   1.00
H167   H     0.96508   0.57704   0.01812   0.00000  Uiso   1.00
H168   H     0.85899   0.50925   0.32107   0.00000  Uiso   1.00
H169   H     0.55423   0.42316   0.89024   0.00000  Uiso   1.00
H170   H     0.41873   0.61285   0.79038   0.00000  Uiso   1.00
H171   H     0.63731   0.32973   0.86037   0.00000  Uiso   1.00
H172   H     0.58699   0.29759   0.00403   0.00000  Uiso   1.00
H173   H     0.29954   0.86933   0.70478   0.00000  Uiso   1.00
H174   H     0.76044   0.27232   0.85237   0.00000  Uiso   1.00
H175   H     0.65434   0.20454   0.15532   0.00000  Uiso   1.00
O176   O     0.31705   0.15288   0.72545   0.00000  Uiso   1.00
O177   O     0.92173   0.36963   0.91909   0.00000  Uiso   1.00
O178   O     0.78254   0.28071   0.31655   0.00000  Uiso   1.00
N179   N     0.47461   0.07629   0.84524   0.00000  Uiso   1.00
N180   N     0.90551   0.51815   0.98321   0.00000  Uiso   1.00
N181   N     0.80635   0.45475   0.26645   0.00000  Uiso   1.00
N182   N     0.36450   0.91233   0.75605   0.00000  Uiso   1.00
N183   N     0.79540   0.35418   0.89402   0.00000  Uiso   1.00
N184   N     0.69623   0.29079   0.17726   0.00000  Uiso   1.00
