data_job_02824
_audit_creation_date              2018-12-19
_audit_creation_method            'Materials Studio'
_symmetry_space_group_name_H-M    'P1'
_symmetry_Int_Tables_number       1
_symmetry_cell_setting            triclinic
loop_
_symmetry_equiv_pos_as_xyz
  x,y,z
_cell_length_a                    9.7333
_cell_length_b                    10.8212
_cell_length_c                    14.8056
_cell_angle_alpha                 111.3144
_cell_angle_beta                  81.4738
_cell_angle_gamma                 76.2939
loop_
_atom_site_label
_atom_site_type_symbol
_atom_site_fract_x
_atom_site_fract_y
_atom_site_fract_z
_atom_site_U_iso_or_equiv
_atom_site_adp_type
_atom_site_occupancy
C1     C     0.13815   0.78691   0.13673   0.00000  Uiso   1.00
C2     C     0.16532   0.74903   0.22361   0.00000  Uiso   1.00
C3     C     0.14398   0.63394   0.23715   0.00000  Uiso   1.00
C4     C     0.17511   0.61767   0.32146   0.00000  Uiso   1.00
C5     C     0.20952   0.54437   0.44601   0.00000  Uiso   1.00
C6     C     0.03072   0.93504   0.18428   0.00000  Uiso   1.00
C7     C     0.89623   0.97635   0.16474   0.00000  Uiso   1.00
C8     C     0.81407   0.11667   0.21594   0.00000  Uiso   1.00
C9     C     0.63957   0.33217   0.27937   0.00000  Uiso   1.00
C10    C     0.28228   0.79710   0.08841   0.00000  Uiso   1.00
C11    C     0.35928   0.72247   0.98825   0.00000  Uiso   1.00
C12    C     0.48890   0.74668   0.95871   0.00000  Uiso   1.00
C13    C     0.70499   0.74802   0.87329   0.00000  Uiso   1.00
C14    C     0.23138   0.96265   0.26238   0.00000  Uiso   1.00
C15    C     0.21595   0.84449   0.29186   0.00000  Uiso   1.00
C16    C     0.24713   0.82838   0.37617   0.00000  Uiso   1.00
C17    C     0.22585   0.71329   0.38983   0.00000  Uiso   1.00
C18    C     0.08136   0.03049   0.25253   0.00000  Uiso   1.00
C19    C     0.99939   0.17079   0.30376   0.00000  Uiso   1.00
C20    C     0.86480   0.21230   0.28431   0.00000  Uiso   1.00
C21    C     0.33293   0.89256   0.15665   0.00000  Uiso   1.00
C22    C     0.46244   0.91690   0.12727   0.00000  Uiso   1.00
C23    C     0.53963   0.84231   0.02709   0.00000  Uiso   1.00
H24    H     0.09871   0.71260   0.08360   0.00000  Uiso   1.00
H25    H     0.10477   0.56010   0.18432   0.00000  Uiso   1.00
H26    H     0.85708   0.90246   0.11192   0.00000  Uiso   1.00
H27    H     0.32006   0.64861   0.93545   0.00000  Uiso   1.00
H28    H     0.13377   0.43315   0.32611   0.00000  Uiso   1.00
H29    H     0.61151   0.15504   0.17342   0.00000  Uiso   1.00
H30    H     0.58780   0.61975   0.80131   0.00000  Uiso   1.00
H31    H     0.27081   0.03697   0.31551   0.00000  Uiso   1.00
H32    H     0.28632   0.90227   0.42897   0.00000  Uiso   1.00
H33    H     0.03861   0.24463   0.35656   0.00000  Uiso   1.00
H34    H     0.50160   0.99078   0.18010   0.00000  Uiso   1.00
H35    H     0.28111   0.71087   0.52468   0.00000  Uiso   1.00
H36    H     0.75885   0.43276   0.37198   0.00000  Uiso   1.00
H37    H     0.73515   0.89747   0.99987   0.00000  Uiso   1.00
O38    O     0.21449   0.47758   0.49586   0.00000  Uiso   1.00
O39    O     0.52932   0.42466   0.29551   0.00000  Uiso   1.00
O40    O     0.81019   0.72237   0.80732   0.00000  Uiso   1.00
N41    N     0.16635   0.51699   0.35726   0.00000  Uiso   1.00
N42    N     0.67805   0.19190   0.21451   0.00000  Uiso   1.00
N43    N     0.59079   0.69148   0.86662   0.00000  Uiso   1.00
N44    N     0.24563   0.66642   0.46411   0.00000  Uiso   1.00
N45    N     0.75734   0.34134   0.32136   0.00000  Uiso   1.00
N46    N     0.67007   0.84092   0.97346   0.00000  Uiso   1.00
C47    C     0.86185   0.21309   0.86327   0.00000  Uiso   1.00
C48    C     0.83468   0.25097   0.77639   0.00000  Uiso   1.00
C49    C     0.85602   0.36606   0.76285   0.00000  Uiso   1.00
C50    C     0.82489   0.38233   0.67854   0.00000  Uiso   1.00
C51    C     0.79048   0.45563   0.55399   0.00000  Uiso   1.00
C52    C     0.96928   0.06496   0.81572   0.00000  Uiso   1.00
C53    C     0.10377   0.02365   0.83526   0.00000  Uiso   1.00
C54    C     0.18593   0.88333   0.78406   0.00000  Uiso   1.00
C55    C     0.36043   0.66783   0.72063   0.00000  Uiso   1.00
C56    C     0.71772   0.20290   0.91159   0.00000  Uiso   1.00
C57    C     0.64072   0.27753   0.01175   0.00000  Uiso   1.00
C58    C     0.51110   0.25332   0.04129   0.00000  Uiso   1.00
C59    C     0.29501   0.25198   0.12671   0.00000  Uiso   1.00
C60    C     0.76862   0.03735   0.73762   0.00000  Uiso   1.00
C61    C     0.78405   0.15551   0.70814   0.00000  Uiso   1.00
C62    C     0.75287   0.17162   0.62383   0.00000  Uiso   1.00
C63    C     0.77415   0.28671   0.61017   0.00000  Uiso   1.00
C64    C     0.91864   0.96951   0.74747   0.00000  Uiso   1.00
C65    C     0.00061   0.82921   0.69624   0.00000  Uiso   1.00
C66    C     0.13520   0.78770   0.71569   0.00000  Uiso   1.00
C67    C     0.66707   0.10744   0.84335   0.00000  Uiso   1.00
C68    C     0.53756   0.08310   0.87273   0.00000  Uiso   1.00
C69    C     0.46037   0.15769   0.97291   0.00000  Uiso   1.00
H70    H     0.90129   0.28740   0.91640   0.00000  Uiso   1.00
H71    H     0.89523   0.43990   0.81568   0.00000  Uiso   1.00
H72    H     0.14292   0.09754   0.88808   0.00000  Uiso   1.00
H73    H     0.67994   0.35139   0.06455   0.00000  Uiso   1.00
H74    H     0.86623   0.56685   0.67389   0.00000  Uiso   1.00
H75    H     0.38849   0.84496   0.82658   0.00000  Uiso   1.00
H76    H     0.41220   0.38025   0.19869   0.00000  Uiso   1.00
H77    H     0.72919   0.96303   0.68449   0.00000  Uiso   1.00
H78    H     0.71368   0.09773   0.57103   0.00000  Uiso   1.00
H79    H     0.96139   0.75537   0.64344   0.00000  Uiso   1.00
H80    H     0.49840   0.00922   0.81990   0.00000  Uiso   1.00
H81    H     0.71889   0.28913   0.47532   0.00000  Uiso   1.00
H82    H     0.24115   0.56724   0.62802   0.00000  Uiso   1.00
H83    H     0.26485   0.10253   0.00013   0.00000  Uiso   1.00
O84    O     0.78551   0.52242   0.50414   0.00000  Uiso   1.00
O85    O     0.47068   0.57534   0.70449   0.00000  Uiso   1.00
O86    O     0.18981   0.27763   0.19268   0.00000  Uiso   1.00
N87    N     0.83365   0.48301   0.64274   0.00000  Uiso   1.00
N88    N     0.32195   0.80810   0.78549   0.00000  Uiso   1.00
N89    N     0.40921   0.30852   0.13338   0.00000  Uiso   1.00
N90    N     0.75437   0.33358   0.53589   0.00000  Uiso   1.00
N91    N     0.24266   0.65866   0.67864   0.00000  Uiso   1.00
N92    N     0.32993   0.15908   0.02654   0.00000  Uiso   1.00
