data_job_02476
_audit_creation_date              2018-12-19
_audit_creation_method            'Materials Studio'
_symmetry_space_group_name_H-M    'P1'
_symmetry_Int_Tables_number       1
_symmetry_cell_setting            triclinic
loop_
_symmetry_equiv_pos_as_xyz
  x,y,z
_cell_length_a                    10.0659
_cell_length_b                    20.6213
_cell_length_c                    17.9473
_cell_angle_alpha                 90.0000
_cell_angle_beta                  138.9144
_cell_angle_gamma                 90.0000
loop_
_atom_site_label
_atom_site_type_symbol
_atom_site_fract_x
_atom_site_fract_y
_atom_site_fract_z
_atom_site_U_iso_or_equiv
_atom_site_adp_type
_atom_site_occupancy
C1     C     0.18365   0.83177   0.09646   0.00000  Uiso   1.00
C2     C     0.13655   0.76152   0.09664   0.00000  Uiso   1.00
C3     C     0.16400   0.73330   0.17770   0.00000  Uiso   1.00
C4     C     0.11181   0.66838   0.16270   0.00000  Uiso   1.00
C5     C     0.05046   0.56467   0.17712   0.00000  Uiso   1.00
C6     C     0.32981   0.82896   0.09262   0.00000  Uiso   1.00
C7     C     0.51975   0.85746   0.17031   0.00000  Uiso   1.00
C8     C     0.63024   0.84932   0.15191   0.00000  Uiso   1.00
C9     C     0.86888   0.85036   0.16006   0.00000  Uiso   1.00
C10    C     0.98763   0.86019   0.98306   0.00000  Uiso   1.00
C11    C     0.88988   0.91495   0.96862   0.00000  Uiso   1.00
C12    C     0.71229   0.93310   0.85797   0.00000  Uiso   1.00
C13    C     0.41964   0.98263   0.69601   0.00000  Uiso   1.00
C14    C     0.04214   0.76665   0.92564   0.00000  Uiso   1.00
C15    C     0.05969   0.72615   0.00386   0.00000  Uiso   1.00
C16    C     0.00743   0.66126   0.98872   0.00000  Uiso   1.00
C17    C     0.03480   0.63294   0.06975   0.00000  Uiso   1.00
C18    C     0.25296   0.79360   0.99985   0.00000  Uiso   1.00
C19    C     0.36319   0.78542   0.98132   0.00000  Uiso   1.00
C20    C     0.55324   0.81388   0.05896   0.00000  Uiso   1.00
C21    C     0.91076   0.82482   0.89028   0.00000  Uiso   1.00
C22    C     0.73331   0.84290   0.77963   0.00000  Uiso   1.00
C23    C     0.63529   0.89767   0.76503   0.00000  Uiso   1.00
H24    H     0.24350   0.85930   0.16869   0.00000  Uiso   1.00
H25    H     0.22350   0.76068   0.24950   0.00000  Uiso   1.00
H26    H     0.57918   0.88483   0.24209   0.00000  Uiso   1.00
H27    H     0.94940   0.94230   0.04044   0.00000  Uiso   1.00
H28    H     0.16751   0.63574   0.29820   0.00000  Uiso   1.00
H29    H     0.91745   0.89753   0.28256   0.00000  Uiso   1.00
H30    H     0.58944   0.01873   0.85733   0.00000  Uiso   1.00
H31    H     0.98230   0.73911   0.85340   0.00000  Uiso   1.00
H32    H     0.94796   0.63390   0.91691   0.00000  Uiso   1.00
H33    H     0.30365   0.75805   0.90951   0.00000  Uiso   1.00
H34    H     0.67387   0.81552   0.70786   0.00000  Uiso   1.00
H35    H     0.94388   0.53284   0.02826   0.00000  Uiso   1.00
H36    H     0.69383   0.79463   0.01262   0.00000  Uiso   1.00
H37    H     0.36581   0.91582   0.58739   0.00000  Uiso   1.00
O38    O     0.03788   0.51724   0.21072   0.00000  Uiso   1.00
O39    O     0.02176   0.86071   0.19019   0.00000  Uiso   1.00
O40    O     0.27944   0.01971   0.63230   0.00000  Uiso   1.00
N41    N     0.11955   0.62597   0.22594   0.00000  Uiso   1.00
N42    N     0.82072   0.87072   0.21133   0.00000  Uiso   1.00
N43    N     0.57916   0.98403   0.81378   0.00000  Uiso   1.00
N44    N     0.99921   0.57060   0.08069   0.00000  Uiso   1.00
N45    N     0.70038   0.81534   0.06608   0.00000  Uiso   1.00
N46    N     0.45883   0.92866   0.66853   0.00000  Uiso   1.00
C47    C     0.81635   0.33177   0.40354   0.00000  Uiso   1.00
C48    C     0.86345   0.26152   0.40336   0.00000  Uiso   1.00
C49    C     0.83600   0.23330   0.32230   0.00000  Uiso   1.00
C50    C     0.88819   0.16838   0.33730   0.00000  Uiso   1.00
C51    C     0.94954   0.06467   0.32288   0.00000  Uiso   1.00
C52    C     0.67019   0.32896   0.40738   0.00000  Uiso   1.00
C53    C     0.48025   0.35746   0.32969   0.00000  Uiso   1.00
C54    C     0.36976   0.34932   0.34809   0.00000  Uiso   1.00
C55    C     0.13112   0.35036   0.33994   0.00000  Uiso   1.00
C56    C     0.01237   0.36019   0.51694   0.00000  Uiso   1.00
C57    C     0.11012   0.41495   0.53138   0.00000  Uiso   1.00
C58    C     0.28771   0.43310   0.64203   0.00000  Uiso   1.00
C59    C     0.58036   0.48263   0.80399   0.00000  Uiso   1.00
C60    C     0.95786   0.26665   0.57436   0.00000  Uiso   1.00
C61    C     0.94031   0.22615   0.49614   0.00000  Uiso   1.00
C62    C     0.99257   0.16126   0.51128   0.00000  Uiso   1.00
C63    C     0.96520   0.13294   0.43025   0.00000  Uiso   1.00
C64    C     0.74704   0.29360   0.50015   0.00000  Uiso   1.00
C65    C     0.63681   0.28542   0.51868   0.00000  Uiso   1.00
C66    C     0.44676   0.31388   0.44104   0.00000  Uiso   1.00
C67    C     0.08924   0.32482   0.60972   0.00000  Uiso   1.00
C68    C     0.26669   0.34290   0.72037   0.00000  Uiso   1.00
C69    C     0.36471   0.39767   0.73497   0.00000  Uiso   1.00
H70    H     0.75650   0.35930   0.33131   0.00000  Uiso   1.00
H71    H     0.77650   0.26068   0.25050   0.00000  Uiso   1.00
H72    H     0.42082   0.38483   0.25791   0.00000  Uiso   1.00
H73    H     0.05060   0.44230   0.45956   0.00000  Uiso   1.00
H74    H     0.83249   0.13574   0.20180   0.00000  Uiso   1.00
H75    H     0.08255   0.39753   0.21744   0.00000  Uiso   1.00
H76    H     0.41056   0.51873   0.64267   0.00000  Uiso   1.00
H77    H     0.01770   0.23911   0.64660   0.00000  Uiso   1.00
H78    H     0.05204   0.13390   0.58309   0.00000  Uiso   1.00
H79    H     0.69635   0.25805   0.59049   0.00000  Uiso   1.00
H80    H     0.32613   0.31552   0.79214   0.00000  Uiso   1.00
H81    H     0.05612   0.03284   0.47174   0.00000  Uiso   1.00
H82    H     0.30617   0.29463   0.48738   0.00000  Uiso   1.00
H83    H     0.63419   0.41582   0.91261   0.00000  Uiso   1.00
O84    O     0.96212   0.01724   0.28928   0.00000  Uiso   1.00
O85    O     0.97824   0.36071   0.30981   0.00000  Uiso   1.00
O86    O     0.72056   0.51971   0.86770   0.00000  Uiso   1.00
N87    N     0.88045   0.12597   0.27406   0.00000  Uiso   1.00
N88    N     0.17928   0.37072   0.28867   0.00000  Uiso   1.00
N89    N     0.42084   0.48403   0.68622   0.00000  Uiso   1.00
N90    N     0.00079   0.07060   0.41931   0.00000  Uiso   1.00
N91    N     0.29962   0.31534   0.43392   0.00000  Uiso   1.00
N92    N     0.54117   0.42866   0.83147   0.00000  Uiso   1.00
C93    C     0.81635   0.16823   0.90354   0.00000  Uiso   1.00
C94    C     0.86345   0.23848   0.90336   0.00000  Uiso   1.00
C95    C     0.83600   0.26670   0.82230   0.00000  Uiso   1.00
C96    C     0.88819   0.33162   0.83730   0.00000  Uiso   1.00
C97    C     0.94954   0.43533   0.82288   0.00000  Uiso   1.00
C98    C     0.67019   0.17104   0.90738   0.00000  Uiso   1.00
C99    C     0.48025   0.14254   0.82969   0.00000  Uiso   1.00
C100   C     0.36976   0.15068   0.84809   0.00000  Uiso   1.00
C101   C     0.13112   0.14964   0.83994   0.00000  Uiso   1.00
C102   C     0.01237   0.13981   0.01694   0.00000  Uiso   1.00
C103   C     0.11012   0.08505   0.03138   0.00000  Uiso   1.00
C104   C     0.28771   0.06690   0.14203   0.00000  Uiso   1.00
C105   C     0.58036   0.01737   0.30399   0.00000  Uiso   1.00
C106   C     0.95786   0.23335   0.07436   0.00000  Uiso   1.00
C107   C     0.94031   0.27385   0.99614   0.00000  Uiso   1.00
C108   C     0.99257   0.33874   0.01128   0.00000  Uiso   1.00
C109   C     0.96520   0.36706   0.93025   0.00000  Uiso   1.00
C110   C     0.74704   0.20640   0.00015   0.00000  Uiso   1.00
C111   C     0.63681   0.21458   0.01868   0.00000  Uiso   1.00
C112   C     0.44676   0.18612   0.94104   0.00000  Uiso   1.00
C113   C     0.08924   0.17518   0.10972   0.00000  Uiso   1.00
C114   C     0.26669   0.15710   0.22037   0.00000  Uiso   1.00
C115   C     0.36471   0.10233   0.23497   0.00000  Uiso   1.00
H116   H     0.75650   0.14070   0.83131   0.00000  Uiso   1.00
H117   H     0.77650   0.23932   0.75050   0.00000  Uiso   1.00
H118   H     0.42082   0.11517   0.75791   0.00000  Uiso   1.00
H119   H     0.05060   0.05770   0.95956   0.00000  Uiso   1.00
H120   H     0.83249   0.36426   0.70180   0.00000  Uiso   1.00
H121   H     0.08255   0.10247   0.71744   0.00000  Uiso   1.00
H122   H     0.41056   0.98127   0.14267   0.00000  Uiso   1.00
H123   H     0.01770   0.26089   0.14660   0.00000  Uiso   1.00
H124   H     0.05204   0.36610   0.08309   0.00000  Uiso   1.00
H125   H     0.69635   0.24195   0.09049   0.00000  Uiso   1.00
H126   H     0.32613   0.18448   0.29214   0.00000  Uiso   1.00
H127   H     0.05612   0.46716   0.97174   0.00000  Uiso   1.00
H128   H     0.30617   0.20537   0.98738   0.00000  Uiso   1.00
H129   H     0.63419   0.08418   0.41261   0.00000  Uiso   1.00
O130   O     0.96212   0.48276   0.78928   0.00000  Uiso   1.00
O131   O     0.97824   0.13929   0.80981   0.00000  Uiso   1.00
O132   O     0.72056   0.98029   0.36770   0.00000  Uiso   1.00
N133   N     0.88045   0.37403   0.77406   0.00000  Uiso   1.00
N134   N     0.17928   0.12928   0.78867   0.00000  Uiso   1.00
N135   N     0.42084   0.01597   0.18622   0.00000  Uiso   1.00
N136   N     0.00079   0.42940   0.91931   0.00000  Uiso   1.00
N137   N     0.29962   0.18466   0.93392   0.00000  Uiso   1.00
N138   N     0.54117   0.07134   0.33147   0.00000  Uiso   1.00
C139   C     0.18365   0.66823   0.59646   0.00000  Uiso   1.00
C140   C     0.13655   0.73848   0.59664   0.00000  Uiso   1.00
C141   C     0.16400   0.76670   0.67770   0.00000  Uiso   1.00
C142   C     0.11181   0.83162   0.66270   0.00000  Uiso   1.00
C143   C     0.05046   0.93533   0.67712   0.00000  Uiso   1.00
C144   C     0.32981   0.67104   0.59262   0.00000  Uiso   1.00
C145   C     0.51975   0.64254   0.67031   0.00000  Uiso   1.00
C146   C     0.63024   0.65068   0.65191   0.00000  Uiso   1.00
C147   C     0.86888   0.64964   0.66006   0.00000  Uiso   1.00
C148   C     0.98763   0.63981   0.48306   0.00000  Uiso   1.00
C149   C     0.88988   0.58505   0.46862   0.00000  Uiso   1.00
C150   C     0.71229   0.56690   0.35797   0.00000  Uiso   1.00
C151   C     0.41964   0.51737   0.19601   0.00000  Uiso   1.00
C152   C     0.04214   0.73335   0.42564   0.00000  Uiso   1.00
C153   C     0.05969   0.77385   0.50386   0.00000  Uiso   1.00
C154   C     0.00743   0.83874   0.48872   0.00000  Uiso   1.00
C155   C     0.03480   0.86706   0.56975   0.00000  Uiso   1.00
C156   C     0.25296   0.70640   0.49985   0.00000  Uiso   1.00
C157   C     0.36319   0.71458   0.48132   0.00000  Uiso   1.00
C158   C     0.55324   0.68612   0.55896   0.00000  Uiso   1.00
C159   C     0.91076   0.67518   0.39028   0.00000  Uiso   1.00
C160   C     0.73331   0.65710   0.27963   0.00000  Uiso   1.00
C161   C     0.63529   0.60233   0.26503   0.00000  Uiso   1.00
H162   H     0.24350   0.64070   0.66869   0.00000  Uiso   1.00
H163   H     0.22350   0.73932   0.74950   0.00000  Uiso   1.00
H164   H     0.57918   0.61517   0.74209   0.00000  Uiso   1.00
H165   H     0.94940   0.55770   0.54044   0.00000  Uiso   1.00
H166   H     0.16751   0.86426   0.79820   0.00000  Uiso   1.00
H167   H     0.91745   0.60247   0.78256   0.00000  Uiso   1.00
H168   H     0.58944   0.48127   0.35733   0.00000  Uiso   1.00
H169   H     0.98230   0.76089   0.35340   0.00000  Uiso   1.00
H170   H     0.94796   0.86610   0.41691   0.00000  Uiso   1.00
H171   H     0.30365   0.74195   0.40951   0.00000  Uiso   1.00
H172   H     0.67387   0.68448   0.20786   0.00000  Uiso   1.00
H173   H     0.94388   0.96716   0.52826   0.00000  Uiso   1.00
H174   H     0.69383   0.70537   0.51262   0.00000  Uiso   1.00
H175   H     0.36581   0.58418   0.08739   0.00000  Uiso   1.00
O176   O     0.03788   0.98276   0.71072   0.00000  Uiso   1.00
O177   O     0.02176   0.63929   0.69019   0.00000  Uiso   1.00
O178   O     0.27944   0.48029   0.13230   0.00000  Uiso   1.00
N179   N     0.11955   0.87403   0.72594   0.00000  Uiso   1.00
N180   N     0.82072   0.62928   0.71133   0.00000  Uiso   1.00
N181   N     0.57916   0.51597   0.31378   0.00000  Uiso   1.00
N182   N     0.99921   0.92940   0.58069   0.00000  Uiso   1.00
N183   N     0.70038   0.68466   0.56608   0.00000  Uiso   1.00
N184   N     0.45883   0.57134   0.16853   0.00000  Uiso   1.00
