data_job_01980
_audit_creation_date              2018-12-19
_audit_creation_method            'Materials Studio'
_symmetry_space_group_name_H-M    'P1'
_symmetry_Int_Tables_number       1
_symmetry_cell_setting            triclinic
loop_
_symmetry_equiv_pos_as_xyz
  x,y,z
_cell_length_a                    12.2156
_cell_length_b                    12.2156
_cell_length_c                    64.6524
_cell_angle_alpha                 90.0000
_cell_angle_beta                  90.0000
_cell_angle_gamma                 120.0000
loop_
_atom_site_label
_atom_site_type_symbol
_atom_site_fract_x
_atom_site_fract_y
_atom_site_fract_z
_atom_site_U_iso_or_equiv
_atom_site_adp_type
_atom_site_occupancy
C1     C     0.12813   0.22523   0.44325   0.00000  Uiso   1.00
C2     C     0.15608   0.12590   0.45203   0.00000  Uiso   1.00
C3     C     0.25742   0.11043   0.44660   0.00000  Uiso   1.00
C4     C     0.26635   0.01402   0.45639   0.00000  Uiso   1.00
C5     C     0.32329   0.87161   0.46777   0.00000  Uiso   1.00
C6     C     0.99450   0.15264   0.43448   0.00000  Uiso   1.00
C7     C     0.96000   0.15967   0.41428   0.00000  Uiso   1.00
C8     C     0.83290   0.08579   0.40929   0.00000  Uiso   1.00
C9     C     0.63898   0.98496   0.39343   0.00000  Uiso   1.00
C10    C     0.12115   0.29868   0.46179   0.00000  Uiso   1.00
C11    C     0.19312   0.42852   0.46456   0.00000  Uiso   1.00
C12    C     0.17263   0.47761   0.48257   0.00000  Uiso   1.00
C13    C     0.17536   0.60354   0.50912   0.00000  Uiso   1.00
C14    C     0.96376   0.08154   0.47031   0.00000  Uiso   1.00
C15    C     0.06679   0.04785   0.46673   0.00000  Uiso   1.00
C16    C     0.07557   0.95145   0.47653   0.00000  Uiso   1.00
C17    C     0.17691   0.93584   0.47111   0.00000  Uiso   1.00
C18    C     0.90522   0.07459   0.44917   0.00000  Uiso   1.00
C19    C     0.77814   0.00069   0.44421   0.00000  Uiso   1.00
C20    C     0.74346   0.00760   0.42402   0.00000  Uiso   1.00
C21    C     0.03188   0.22064   0.47649   0.00000  Uiso   1.00
C22    C     0.01127   0.26954   0.49450   0.00000  Uiso   1.00
C23    C     0.08319   0.39942   0.49729   0.00000  Uiso   1.00
H24    H     0.19763   0.28599   0.43181   0.00000  Uiso   1.00
H25    H     0.32649   0.17084   0.43522   0.00000  Uiso   1.00
H26    H     0.02910   0.22008   0.40291   0.00000  Uiso   1.00
H27    H     0.26219   0.48889   0.45319   0.00000  Uiso   1.00
H28    H     0.42996   0.00872   0.44547   0.00000  Uiso   1.00
H29    H     0.80290   0.11258   0.37735   0.00000  Uiso   1.00
H30    H     0.29442   0.67942   0.48336   0.00000  Uiso   1.00
H31    H     0.89425   0.02078   0.48175   0.00000  Uiso   1.00
H32    H     0.00647   0.89107   0.48790   0.00000  Uiso   1.00
H33    H     0.70908   0.94031   0.45559   0.00000  Uiso   1.00
H34    H     0.94217   0.20911   0.50586   0.00000  Uiso   1.00
H35    H     0.17021   0.78164   0.48823   0.00000  Uiso   1.00
H36    H     0.54316   0.88551   0.42011   0.00000  Uiso   1.00
H37    H     0.03467   0.45234   0.52612   0.00000  Uiso   1.00
O38    O     0.37936   0.81461   0.46999   0.00000  Uiso   1.00
O39    O     0.55669   0.95090   0.38062   0.00000  Uiso   1.00
O40    O     0.20155   0.69456   0.51970   0.00000  Uiso   1.00
N41    N     0.35344   0.97309   0.45470   0.00000  Uiso   1.00
N42    N     0.76718   0.07019   0.39101   0.00000  Uiso   1.00
N43    N     0.22669   0.60013   0.49011   0.00000  Uiso   1.00
N44    N     0.21368   0.85091   0.47770   0.00000  Uiso   1.00
N45    N     0.62742   0.94800   0.41401   0.00000  Uiso   1.00
N46    N     0.08692   0.47794   0.51312   0.00000  Uiso   1.00
C47    C     0.77477   0.90289   0.10992   0.00000  Uiso   1.00
C48    C     0.87410   0.03018   0.11870   0.00000  Uiso   1.00
C49    C     0.88957   0.14700   0.11326   0.00000  Uiso   1.00
C50    C     0.98598   0.25232   0.12305   0.00000  Uiso   1.00
C51    C     0.12839   0.45168   0.13444   0.00000  Uiso   1.00
C52    C     0.84736   0.84186   0.10114   0.00000  Uiso   1.00
C53    C     0.84033   0.80033   0.08095   0.00000  Uiso   1.00
C54    C     0.91421   0.74711   0.07596   0.00000  Uiso   1.00
C55    C     0.01504   0.65402   0.06010   0.00000  Uiso   1.00
C56    C     0.70132   0.82247   0.12846   0.00000  Uiso   1.00
C57    C     0.57148   0.76460   0.13123   0.00000  Uiso   1.00
C58    C     0.52239   0.69503   0.14924   0.00000  Uiso   1.00
C59    C     0.39646   0.57182   0.17578   0.00000  Uiso   1.00
C60    C     0.91846   0.88222   0.13698   0.00000  Uiso   1.00
C61    C     0.95215   0.01894   0.13339   0.00000  Uiso   1.00
C62    C     0.04855   0.12412   0.14320   0.00000  Uiso   1.00
C63    C     0.06416   0.24107   0.13777   0.00000  Uiso   1.00
C64    C     0.92541   0.83063   0.11584   0.00000  Uiso   1.00
C65    C     0.99931   0.77745   0.11088   0.00000  Uiso   1.00
C66    C     0.99240   0.73586   0.09068   0.00000  Uiso   1.00
C67    C     0.77936   0.81124   0.14316   0.00000  Uiso   1.00
C68    C     0.73046   0.74173   0.16116   0.00000  Uiso   1.00
C69    C     0.60058   0.68377   0.16396   0.00000  Uiso   1.00
H70    H     0.71401   0.91163   0.09848   0.00000  Uiso   1.00
H71    H     0.82916   0.15565   0.10189   0.00000  Uiso   1.00
H72    H     0.77992   0.80902   0.06958   0.00000  Uiso   1.00
H73    H     0.51111   0.77331   0.11985   0.00000  Uiso   1.00
H74    H     0.99128   0.42124   0.11214   0.00000  Uiso   1.00
H75    H     0.88742   0.69032   0.04402   0.00000  Uiso   1.00
H76    H     0.32058   0.61500   0.15003   0.00000  Uiso   1.00
H77    H     0.97922   0.87347   0.14842   0.00000  Uiso   1.00
H78    H     0.10893   0.11540   0.15457   0.00000  Uiso   1.00
H79    H     0.05969   0.76877   0.12226   0.00000  Uiso   1.00
H80    H     0.79089   0.73306   0.17253   0.00000  Uiso   1.00
H81    H     0.21836   0.38857   0.15490   0.00000  Uiso   1.00
H82    H     0.11449   0.65764   0.08677   0.00000  Uiso   1.00
H83    H     0.54766   0.58233   0.19279   0.00000  Uiso   1.00
O84    O     0.18539   0.56475   0.13666   0.00000  Uiso   1.00
O85    O     0.04910   0.60578   0.04729   0.00000  Uiso   1.00
O86    O     0.30544   0.50698   0.18637   0.00000  Uiso   1.00
N87    N     0.02691   0.38035   0.12136   0.00000  Uiso   1.00
N88    N     0.92981   0.69700   0.05767   0.00000  Uiso   1.00
N89    N     0.39987   0.62656   0.15678   0.00000  Uiso   1.00
N90    N     0.14909   0.36277   0.14437   0.00000  Uiso   1.00
N91    N     0.05200   0.67942   0.08068   0.00000  Uiso   1.00
N92    N     0.52206   0.60898   0.17979   0.00000  Uiso   1.00
C93    C     0.09711   0.87187   0.77659   0.00000  Uiso   1.00
C94    C     0.96982   0.84392   0.78537   0.00000  Uiso   1.00
C95    C     0.85300   0.74258   0.77993   0.00000  Uiso   1.00
C96    C     0.74768   0.73365   0.78972   0.00000  Uiso   1.00
C97    C     0.54832   0.67671   0.80111   0.00000  Uiso   1.00
C98    C     0.15814   0.00550   0.76781   0.00000  Uiso   1.00
C99    C     0.19967   0.04000   0.74761   0.00000  Uiso   1.00
C100   C     0.25289   0.16710   0.74263   0.00000  Uiso   1.00
C101   C     0.34598   0.36102   0.72676   0.00000  Uiso   1.00
C102   C     0.17753   0.87885   0.79513   0.00000  Uiso   1.00
C103   C     0.23540   0.80688   0.79790   0.00000  Uiso   1.00
C104   C     0.30497   0.82737   0.81590   0.00000  Uiso   1.00
C105   C     0.42818   0.82464   0.84245   0.00000  Uiso   1.00
C106   C     0.11778   0.03624   0.80364   0.00000  Uiso   1.00
C107   C     0.98106   0.93321   0.80006   0.00000  Uiso   1.00
C108   C     0.87588   0.92443   0.80986   0.00000  Uiso   1.00
C109   C     0.75893   0.82309   0.80444   0.00000  Uiso   1.00
C110   C     0.16937   0.09478   0.78250   0.00000  Uiso   1.00
C111   C     0.22255   0.22186   0.77755   0.00000  Uiso   1.00
C112   C     0.26414   0.25654   0.75735   0.00000  Uiso   1.00
C113   C     0.18876   0.96812   0.80982   0.00000  Uiso   1.00
C114   C     0.25827   0.98873   0.82783   0.00000  Uiso   1.00
C115   C     0.31623   0.91681   0.83063   0.00000  Uiso   1.00
H116   H     0.08837   0.80237   0.76515   0.00000  Uiso   1.00
H117   H     0.84435   0.67351   0.76855   0.00000  Uiso   1.00
H118   H     0.19098   0.97090   0.73625   0.00000  Uiso   1.00
H119   H     0.22669   0.73781   0.78652   0.00000  Uiso   1.00
H120   H     0.57876   0.57004   0.77881   0.00000  Uiso   1.00
H121   H     0.30968   0.19710   0.71069   0.00000  Uiso   1.00
H122   H     0.38500   0.70558   0.81670   0.00000  Uiso   1.00
H123   H     0.12653   0.10575   0.81508   0.00000  Uiso   1.00
H124   H     0.88460   0.99353   0.82123   0.00000  Uiso   1.00
H125   H     0.23123   0.29092   0.78892   0.00000  Uiso   1.00
H126   H     0.26694   0.05783   0.83920   0.00000  Uiso   1.00
H127   H     0.61143   0.82979   0.82156   0.00000  Uiso   1.00
H128   H     0.34236   0.45684   0.75344   0.00000  Uiso   1.00
H129   H     0.41767   0.96533   0.85945   0.00000  Uiso   1.00
O130   O     0.43525   0.62064   0.80332   0.00000  Uiso   1.00
O131   O     0.39422   0.44331   0.71395   0.00000  Uiso   1.00
O132   O     0.49302   0.79845   0.85304   0.00000  Uiso   1.00
N133   N     0.61965   0.64656   0.78803   0.00000  Uiso   1.00
N134   N     0.30300   0.23282   0.72434   0.00000  Uiso   1.00
N135   N     0.37344   0.77331   0.82345   0.00000  Uiso   1.00
N136   N     0.63723   0.78632   0.81104   0.00000  Uiso   1.00
N137   N     0.32058   0.37258   0.74735   0.00000  Uiso   1.00
N138   N     0.39102   0.91308   0.84645   0.00000  Uiso   1.00
C139   C     0.87187   0.77477   0.94325   0.00000  Uiso   1.00
C140   C     0.84392   0.87410   0.95203   0.00000  Uiso   1.00
C141   C     0.74258   0.88957   0.94660   0.00000  Uiso   1.00
C142   C     0.73365   0.98598   0.95639   0.00000  Uiso   1.00
C143   C     0.67671   0.12839   0.96777   0.00000  Uiso   1.00
C144   C     0.00550   0.84736   0.93448   0.00000  Uiso   1.00
C145   C     0.04000   0.84033   0.91428   0.00000  Uiso   1.00
C146   C     0.16710   0.91421   0.90929   0.00000  Uiso   1.00
C147   C     0.36102   0.01504   0.89343   0.00000  Uiso   1.00
C148   C     0.87885   0.70132   0.96179   0.00000  Uiso   1.00
C149   C     0.80688   0.57148   0.96456   0.00000  Uiso   1.00
C150   C     0.82737   0.52239   0.98257   0.00000  Uiso   1.00
C151   C     0.82464   0.39646   0.00912   0.00000  Uiso   1.00
C152   C     0.03624   0.91846   0.97031   0.00000  Uiso   1.00
C153   C     0.93321   0.95215   0.96673   0.00000  Uiso   1.00
C154   C     0.92443   0.04855   0.97653   0.00000  Uiso   1.00
C155   C     0.82309   0.06416   0.97111   0.00000  Uiso   1.00
C156   C     0.09478   0.92541   0.94917   0.00000  Uiso   1.00
C157   C     0.22186   0.99931   0.94421   0.00000  Uiso   1.00
C158   C     0.25654   0.99240   0.92402   0.00000  Uiso   1.00
C159   C     0.96812   0.77936   0.97649   0.00000  Uiso   1.00
C160   C     0.98873   0.73046   0.99450   0.00000  Uiso   1.00
C161   C     0.91681   0.60058   0.99729   0.00000  Uiso   1.00
H162   H     0.80237   0.71401   0.93181   0.00000  Uiso   1.00
H163   H     0.67351   0.82916   0.93522   0.00000  Uiso   1.00
H164   H     0.97090   0.77992   0.90291   0.00000  Uiso   1.00
H165   H     0.73781   0.51111   0.95319   0.00000  Uiso   1.00
H166   H     0.57004   0.99128   0.94547   0.00000  Uiso   1.00
H167   H     0.19710   0.88742   0.87735   0.00000  Uiso   1.00
H168   H     0.70558   0.32058   0.98336   0.00000  Uiso   1.00
H169   H     0.10575   0.97922   0.98175   0.00000  Uiso   1.00
H170   H     0.99353   0.10893   0.98790   0.00000  Uiso   1.00
H171   H     0.29092   0.05969   0.95559   0.00000  Uiso   1.00
H172   H     0.05783   0.79089   0.00586   0.00000  Uiso   1.00
H173   H     0.82979   0.21836   0.98823   0.00000  Uiso   1.00
H174   H     0.45684   0.11449   0.92011   0.00000  Uiso   1.00
H175   H     0.96533   0.54766   0.02612   0.00000  Uiso   1.00
O176   O     0.62064   0.18539   0.96999   0.00000  Uiso   1.00
O177   O     0.44331   0.04910   0.88062   0.00000  Uiso   1.00
O178   O     0.79845   0.30544   0.01970   0.00000  Uiso   1.00
N179   N     0.64656   0.02691   0.95470   0.00000  Uiso   1.00
N180   N     0.23282   0.92981   0.89101   0.00000  Uiso   1.00
N181   N     0.77331   0.39987   0.99011   0.00000  Uiso   1.00
N182   N     0.78632   0.14909   0.97770   0.00000  Uiso   1.00
N183   N     0.37258   0.05200   0.91401   0.00000  Uiso   1.00
N184   N     0.91308   0.52206   0.01312   0.00000  Uiso   1.00
C185   C     0.22523   0.09711   0.60992   0.00000  Uiso   1.00
C186   C     0.12590   0.96982   0.61870   0.00000  Uiso   1.00
C187   C     0.11043   0.85300   0.61326   0.00000  Uiso   1.00
C188   C     0.01402   0.74768   0.62305   0.00000  Uiso   1.00
C189   C     0.87161   0.54832   0.63444   0.00000  Uiso   1.00
C190   C     0.15264   0.15814   0.60114   0.00000  Uiso   1.00
C191   C     0.15967   0.19967   0.58095   0.00000  Uiso   1.00
C192   C     0.08579   0.25289   0.57596   0.00000  Uiso   1.00
C193   C     0.98496   0.34598   0.56010   0.00000  Uiso   1.00
C194   C     0.29868   0.17753   0.62846   0.00000  Uiso   1.00
C195   C     0.42852   0.23540   0.63123   0.00000  Uiso   1.00
C196   C     0.47761   0.30497   0.64924   0.00000  Uiso   1.00
C197   C     0.60354   0.42818   0.67578   0.00000  Uiso   1.00
C198   C     0.08154   0.11778   0.63698   0.00000  Uiso   1.00
C199   C     0.04785   0.98106   0.63339   0.00000  Uiso   1.00
C200   C     0.95145   0.87588   0.64320   0.00000  Uiso   1.00
C201   C     0.93584   0.75893   0.63777   0.00000  Uiso   1.00
C202   C     0.07459   0.16937   0.61584   0.00000  Uiso   1.00
C203   C     0.00069   0.22255   0.61088   0.00000  Uiso   1.00
C204   C     0.00760   0.26414   0.59068   0.00000  Uiso   1.00
C205   C     0.22064   0.18876   0.64316   0.00000  Uiso   1.00
C206   C     0.26954   0.25827   0.66116   0.00000  Uiso   1.00
C207   C     0.39942   0.31623   0.66396   0.00000  Uiso   1.00
H208   H     0.28599   0.08837   0.59848   0.00000  Uiso   1.00
H209   H     0.17084   0.84435   0.60189   0.00000  Uiso   1.00
H210   H     0.22008   0.19098   0.56958   0.00000  Uiso   1.00
H211   H     0.48889   0.22669   0.61985   0.00000  Uiso   1.00
H212   H     0.00872   0.57876   0.61214   0.00000  Uiso   1.00
H213   H     0.11258   0.30968   0.54402   0.00000  Uiso   1.00
H214   H     0.67942   0.38500   0.65003   0.00000  Uiso   1.00
H215   H     0.02078   0.12653   0.64842   0.00000  Uiso   1.00
H216   H     0.89107   0.88460   0.65457   0.00000  Uiso   1.00
H217   H     0.94031   0.23123   0.62226   0.00000  Uiso   1.00
H218   H     0.20911   0.26694   0.67253   0.00000  Uiso   1.00
H219   H     0.78164   0.61143   0.65490   0.00000  Uiso   1.00
H220   H     0.88551   0.34236   0.58677   0.00000  Uiso   1.00
H221   H     0.45234   0.41767   0.69279   0.00000  Uiso   1.00
O222   O     0.81461   0.43525   0.63666   0.00000  Uiso   1.00
O223   O     0.95090   0.39422   0.54729   0.00000  Uiso   1.00
O224   O     0.69456   0.49302   0.68637   0.00000  Uiso   1.00
N225   N     0.97309   0.61965   0.62136   0.00000  Uiso   1.00
N226   N     0.07019   0.30300   0.55767   0.00000  Uiso   1.00
N227   N     0.60013   0.37344   0.65678   0.00000  Uiso   1.00
N228   N     0.85091   0.63723   0.64437   0.00000  Uiso   1.00
N229   N     0.94800   0.32058   0.58068   0.00000  Uiso   1.00
N230   N     0.47794   0.39102   0.67979   0.00000  Uiso   1.00
C231   C     0.90289   0.12813   0.27659   0.00000  Uiso   1.00
C232   C     0.03018   0.15608   0.28537   0.00000  Uiso   1.00
C233   C     0.14700   0.25742   0.27993   0.00000  Uiso   1.00
C234   C     0.25232   0.26635   0.28972   0.00000  Uiso   1.00
C235   C     0.45168   0.32329   0.30111   0.00000  Uiso   1.00
C236   C     0.84186   0.99450   0.26781   0.00000  Uiso   1.00
C237   C     0.80033   0.96000   0.24761   0.00000  Uiso   1.00
C238   C     0.74711   0.83290   0.24263   0.00000  Uiso   1.00
C239   C     0.65402   0.63898   0.22676   0.00000  Uiso   1.00
C240   C     0.82247   0.12115   0.29513   0.00000  Uiso   1.00
C241   C     0.76460   0.19312   0.29790   0.00000  Uiso   1.00
C242   C     0.69503   0.17263   0.31590   0.00000  Uiso   1.00
C243   C     0.57182   0.17536   0.34245   0.00000  Uiso   1.00
C244   C     0.88222   0.96376   0.30364   0.00000  Uiso   1.00
C245   C     0.01894   0.06679   0.30006   0.00000  Uiso   1.00
C246   C     0.12412   0.07557   0.30986   0.00000  Uiso   1.00
C247   C     0.24107   0.17691   0.30444   0.00000  Uiso   1.00
C248   C     0.83063   0.90522   0.28250   0.00000  Uiso   1.00
C249   C     0.77745   0.77814   0.27755   0.00000  Uiso   1.00
C250   C     0.73586   0.74346   0.25735   0.00000  Uiso   1.00
C251   C     0.81124   0.03188   0.30982   0.00000  Uiso   1.00
C252   C     0.74173   0.01127   0.32783   0.00000  Uiso   1.00
C253   C     0.68377   0.08319   0.33063   0.00000  Uiso   1.00
H254   H     0.91163   0.19763   0.26515   0.00000  Uiso   1.00
H255   H     0.15565   0.32649   0.26855   0.00000  Uiso   1.00
H256   H     0.80902   0.02910   0.23625   0.00000  Uiso   1.00
H257   H     0.77331   0.26219   0.28652   0.00000  Uiso   1.00
H258   H     0.42124   0.42996   0.27881   0.00000  Uiso   1.00
H259   H     0.69032   0.80290   0.21069   0.00000  Uiso   1.00
H260   H     0.61500   0.29442   0.31670   0.00000  Uiso   1.00
H261   H     0.87347   0.89425   0.31508   0.00000  Uiso   1.00
H262   H     0.11540   0.00647   0.32123   0.00000  Uiso   1.00
H263   H     0.76877   0.70908   0.28892   0.00000  Uiso   1.00
H264   H     0.73306   0.94217   0.33920   0.00000  Uiso   1.00
H265   H     0.38857   0.17021   0.32156   0.00000  Uiso   1.00
H266   H     0.65764   0.54316   0.25344   0.00000  Uiso   1.00
H267   H     0.58233   0.03467   0.35945   0.00000  Uiso   1.00
O268   O     0.56475   0.37936   0.30332   0.00000  Uiso   1.00
O269   O     0.60578   0.55669   0.21395   0.00000  Uiso   1.00
O270   O     0.50698   0.20155   0.35304   0.00000  Uiso   1.00
N271   N     0.38035   0.35344   0.28803   0.00000  Uiso   1.00
N272   N     0.69700   0.76718   0.22434   0.00000  Uiso   1.00
N273   N     0.62656   0.22669   0.32345   0.00000  Uiso   1.00
N274   N     0.36277   0.21368   0.31104   0.00000  Uiso   1.00
N275   N     0.67942   0.62742   0.24735   0.00000  Uiso   1.00
N276   N     0.60898   0.08692   0.34645   0.00000  Uiso   1.00
C277   C     0.22523   0.12813   0.22341   0.00000  Uiso   1.00
C278   C     0.12590   0.15608   0.21463   0.00000  Uiso   1.00
C279   C     0.11043   0.25742   0.22007   0.00000  Uiso   1.00
C280   C     0.01402   0.26635   0.21028   0.00000  Uiso   1.00
C281   C     0.87161   0.32329   0.19889   0.00000  Uiso   1.00
C282   C     0.15264   0.99450   0.23219   0.00000  Uiso   1.00
C283   C     0.15967   0.96000   0.25239   0.00000  Uiso   1.00
C284   C     0.08579   0.83290   0.25737   0.00000  Uiso   1.00
C285   C     0.98496   0.63898   0.27324   0.00000  Uiso   1.00
C286   C     0.29868   0.12115   0.20487   0.00000  Uiso   1.00
C287   C     0.42852   0.19312   0.20210   0.00000  Uiso   1.00
C288   C     0.47761   0.17263   0.18410   0.00000  Uiso   1.00
C289   C     0.60354   0.17536   0.15755   0.00000  Uiso   1.00
C290   C     0.08154   0.96376   0.19636   0.00000  Uiso   1.00
C291   C     0.04785   0.06679   0.19994   0.00000  Uiso   1.00
C292   C     0.95145   0.07557   0.19014   0.00000  Uiso   1.00
C293   C     0.93584   0.17691   0.19556   0.00000  Uiso   1.00
C294   C     0.07459   0.90522   0.21750   0.00000  Uiso   1.00
C295   C     0.00069   0.77814   0.22245   0.00000  Uiso   1.00
C296   C     0.00760   0.74346   0.24265   0.00000  Uiso   1.00
C297   C     0.22064   0.03188   0.19018   0.00000  Uiso   1.00
C298   C     0.26954   0.01127   0.17217   0.00000  Uiso   1.00
C299   C     0.39942   0.08319   0.16937   0.00000  Uiso   1.00
H300   H     0.28599   0.19763   0.23485   0.00000  Uiso   1.00
H301   H     0.17084   0.32649   0.23145   0.00000  Uiso   1.00
H302   H     0.22008   0.02910   0.26375   0.00000  Uiso   1.00
H303   H     0.48889   0.26219   0.21348   0.00000  Uiso   1.00
H304   H     0.00872   0.42996   0.22119   0.00000  Uiso   1.00
H305   H     0.11258   0.80290   0.28931   0.00000  Uiso   1.00
H306   H     0.67942   0.29442   0.18330   0.00000  Uiso   1.00
H307   H     0.02078   0.89425   0.18492   0.00000  Uiso   1.00
H308   H     0.89107   0.00647   0.17877   0.00000  Uiso   1.00
H309   H     0.94031   0.70908   0.21108   0.00000  Uiso   1.00
H310   H     0.20911   0.94217   0.16080   0.00000  Uiso   1.00
H311   H     0.78164   0.17021   0.17844   0.00000  Uiso   1.00
H312   H     0.88551   0.54316   0.24656   0.00000  Uiso   1.00
H313   H     0.45234   0.03467   0.14055   0.00000  Uiso   1.00
O314   O     0.81461   0.37936   0.19668   0.00000  Uiso   1.00
O315   O     0.95090   0.55669   0.28605   0.00000  Uiso   1.00
O316   O     0.69456   0.20155   0.14696   0.00000  Uiso   1.00
N317   N     0.97309   0.35344   0.21197   0.00000  Uiso   1.00
N318   N     0.07019   0.76718   0.27566   0.00000  Uiso   1.00
N319   N     0.60013   0.22669   0.17655   0.00000  Uiso   1.00
N320   N     0.85091   0.21368   0.18896   0.00000  Uiso   1.00
N321   N     0.94800   0.62742   0.25265   0.00000  Uiso   1.00
N322   N     0.47794   0.08692   0.15355   0.00000  Uiso   1.00
C323   C     0.90289   0.77477   0.55675   0.00000  Uiso   1.00
C324   C     0.03018   0.87410   0.54797   0.00000  Uiso   1.00
C325   C     0.14700   0.88957   0.55340   0.00000  Uiso   1.00
C326   C     0.25232   0.98598   0.54361   0.00000  Uiso   1.00
C327   C     0.45168   0.12839   0.53223   0.00000  Uiso   1.00
C328   C     0.84186   0.84736   0.56552   0.00000  Uiso   1.00
C329   C     0.80033   0.84033   0.58572   0.00000  Uiso   1.00
C330   C     0.74711   0.91421   0.59071   0.00000  Uiso   1.00
C331   C     0.65402   0.01504   0.60657   0.00000  Uiso   1.00
C332   C     0.82247   0.70132   0.53821   0.00000  Uiso   1.00
C333   C     0.76460   0.57148   0.53544   0.00000  Uiso   1.00
C334   C     0.69503   0.52239   0.51743   0.00000  Uiso   1.00
C335   C     0.57182   0.39646   0.49088   0.00000  Uiso   1.00
C336   C     0.88222   0.91846   0.52969   0.00000  Uiso   1.00
C337   C     0.01894   0.95215   0.53327   0.00000  Uiso   1.00
C338   C     0.12412   0.04855   0.52347   0.00000  Uiso   1.00
C339   C     0.24107   0.06416   0.52889   0.00000  Uiso   1.00
C340   C     0.83063   0.92541   0.55083   0.00000  Uiso   1.00
C341   C     0.77745   0.99931   0.55579   0.00000  Uiso   1.00
C342   C     0.73586   0.99240   0.57598   0.00000  Uiso   1.00
C343   C     0.81124   0.77936   0.52351   0.00000  Uiso   1.00
C344   C     0.74173   0.73046   0.50550   0.00000  Uiso   1.00
C345   C     0.68377   0.60058   0.50271   0.00000  Uiso   1.00
H346   H     0.91163   0.71401   0.56819   0.00000  Uiso   1.00
H347   H     0.15565   0.82916   0.56478   0.00000  Uiso   1.00
H348   H     0.80902   0.77992   0.59709   0.00000  Uiso   1.00
H349   H     0.77331   0.51111   0.54681   0.00000  Uiso   1.00
H350   H     0.42124   0.99128   0.55453   0.00000  Uiso   1.00
H351   H     0.69032   0.88742   0.62265   0.00000  Uiso   1.00
H352   H     0.61500   0.32058   0.51664   0.00000  Uiso   1.00
H353   H     0.87347   0.97922   0.51825   0.00000  Uiso   1.00
H354   H     0.11540   0.10893   0.51210   0.00000  Uiso   1.00
H355   H     0.76877   0.05969   0.54441   0.00000  Uiso   1.00
H356   H     0.73306   0.79089   0.49414   0.00000  Uiso   1.00
H357   H     0.38857   0.21836   0.51177   0.00000  Uiso   1.00
H358   H     0.65764   0.11449   0.57989   0.00000  Uiso   1.00
H359   H     0.58233   0.54766   0.47388   0.00000  Uiso   1.00
O360   O     0.56475   0.18539   0.53001   0.00000  Uiso   1.00
O361   O     0.60578   0.04910   0.61938   0.00000  Uiso   1.00
O362   O     0.50698   0.30544   0.48030   0.00000  Uiso   1.00
N363   N     0.38035   0.02691   0.54530   0.00000  Uiso   1.00
N364   N     0.69700   0.92981   0.60899   0.00000  Uiso   1.00
N365   N     0.62656   0.39987   0.50989   0.00000  Uiso   1.00
N366   N     0.36277   0.14909   0.52230   0.00000  Uiso   1.00
N367   N     0.67942   0.05200   0.58599   0.00000  Uiso   1.00
N368   N     0.60898   0.52206   0.48688   0.00000  Uiso   1.00
C369   C     0.87187   0.09711   0.89008   0.00000  Uiso   1.00
C370   C     0.84392   0.96982   0.88130   0.00000  Uiso   1.00
C371   C     0.74258   0.85300   0.88674   0.00000  Uiso   1.00
C372   C     0.73365   0.74768   0.87695   0.00000  Uiso   1.00
C373   C     0.67671   0.54832   0.86556   0.00000  Uiso   1.00
C374   C     0.00550   0.15814   0.89886   0.00000  Uiso   1.00
C375   C     0.04000   0.19967   0.91905   0.00000  Uiso   1.00
C376   C     0.16710   0.25289   0.92404   0.00000  Uiso   1.00
C377   C     0.36102   0.34598   0.93990   0.00000  Uiso   1.00
C378   C     0.87885   0.17753   0.87154   0.00000  Uiso   1.00
C379   C     0.80688   0.23540   0.86877   0.00000  Uiso   1.00
C380   C     0.82737   0.30497   0.85076   0.00000  Uiso   1.00
C381   C     0.82464   0.42818   0.82422   0.00000  Uiso   1.00
C382   C     0.03624   0.11778   0.86302   0.00000  Uiso   1.00
C383   C     0.93321   0.98106   0.86661   0.00000  Uiso   1.00
C384   C     0.92443   0.87588   0.85680   0.00000  Uiso   1.00
C385   C     0.82309   0.75893   0.86223   0.00000  Uiso   1.00
C386   C     0.09478   0.16937   0.88416   0.00000  Uiso   1.00
C387   C     0.22186   0.22255   0.88912   0.00000  Uiso   1.00
C388   C     0.25654   0.26414   0.90932   0.00000  Uiso   1.00
C389   C     0.96812   0.18876   0.85684   0.00000  Uiso   1.00
C390   C     0.98873   0.25827   0.83884   0.00000  Uiso   1.00
C391   C     0.91681   0.31623   0.83604   0.00000  Uiso   1.00
H392   H     0.80237   0.08837   0.90152   0.00000  Uiso   1.00
H393   H     0.67351   0.84435   0.89811   0.00000  Uiso   1.00
H394   H     0.97090   0.19098   0.93042   0.00000  Uiso   1.00
H395   H     0.73781   0.22669   0.88015   0.00000  Uiso   1.00
H396   H     0.57004   0.57876   0.88786   0.00000  Uiso   1.00
H397   H     0.19710   0.30968   0.95598   0.00000  Uiso   1.00
H398   H     0.70558   0.38500   0.84997   0.00000  Uiso   1.00
H399   H     0.10575   0.12653   0.85158   0.00000  Uiso   1.00
H400   H     0.99353   0.88460   0.84543   0.00000  Uiso   1.00
H401   H     0.29092   0.23123   0.87774   0.00000  Uiso   1.00
H402   H     0.05783   0.26694   0.82747   0.00000  Uiso   1.00
H403   H     0.82979   0.61143   0.84510   0.00000  Uiso   1.00
H404   H     0.45684   0.34236   0.91323   0.00000  Uiso   1.00
H405   H     0.96533   0.41767   0.80721   0.00000  Uiso   1.00
O406   O     0.62064   0.43525   0.86334   0.00000  Uiso   1.00
O407   O     0.44331   0.39422   0.95271   0.00000  Uiso   1.00
O408   O     0.79845   0.49302   0.81363   0.00000  Uiso   1.00
N409   N     0.64656   0.61965   0.87864   0.00000  Uiso   1.00
N410   N     0.23282   0.30300   0.94233   0.00000  Uiso   1.00
N411   N     0.77331   0.37344   0.84322   0.00000  Uiso   1.00
N412   N     0.78632   0.63723   0.85563   0.00000  Uiso   1.00
N413   N     0.37258   0.32058   0.91932   0.00000  Uiso   1.00
N414   N     0.91308   0.39102   0.82021   0.00000  Uiso   1.00
C415   C     0.77477   0.87187   0.72341   0.00000  Uiso   1.00
C416   C     0.87410   0.84392   0.71463   0.00000  Uiso   1.00
C417   C     0.88957   0.74258   0.72007   0.00000  Uiso   1.00
C418   C     0.98598   0.73365   0.71028   0.00000  Uiso   1.00
C419   C     0.12839   0.67671   0.69889   0.00000  Uiso   1.00
C420   C     0.84736   0.00550   0.73219   0.00000  Uiso   1.00
C421   C     0.84033   0.04000   0.75239   0.00000  Uiso   1.00
C422   C     0.91421   0.16710   0.75737   0.00000  Uiso   1.00
C423   C     0.01504   0.36102   0.77324   0.00000  Uiso   1.00
C424   C     0.70132   0.87885   0.70487   0.00000  Uiso   1.00
C425   C     0.57148   0.80688   0.70210   0.00000  Uiso   1.00
C426   C     0.52239   0.82737   0.68410   0.00000  Uiso   1.00
C427   C     0.39646   0.82464   0.65755   0.00000  Uiso   1.00
C428   C     0.91846   0.03624   0.69636   0.00000  Uiso   1.00
C429   C     0.95215   0.93321   0.69994   0.00000  Uiso   1.00
C430   C     0.04855   0.92443   0.69014   0.00000  Uiso   1.00
C431   C     0.06416   0.82309   0.69556   0.00000  Uiso   1.00
C432   C     0.92541   0.09478   0.71750   0.00000  Uiso   1.00
C433   C     0.99931   0.22186   0.72245   0.00000  Uiso   1.00
C434   C     0.99240   0.25654   0.74265   0.00000  Uiso   1.00
C435   C     0.77936   0.96812   0.69018   0.00000  Uiso   1.00
C436   C     0.73046   0.98873   0.67217   0.00000  Uiso   1.00
C437   C     0.60058   0.91681   0.66937   0.00000  Uiso   1.00
H438   H     0.71401   0.80237   0.73485   0.00000  Uiso   1.00
H439   H     0.82916   0.67351   0.73145   0.00000  Uiso   1.00
H440   H     0.77992   0.97090   0.76375   0.00000  Uiso   1.00
H441   H     0.51111   0.73781   0.71348   0.00000  Uiso   1.00
H442   H     0.99128   0.57004   0.72119   0.00000  Uiso   1.00
H443   H     0.88742   0.19710   0.78931   0.00000  Uiso   1.00
H444   H     0.32058   0.70558   0.68330   0.00000  Uiso   1.00
H445   H     0.97922   0.10575   0.68492   0.00000  Uiso   1.00
H446   H     0.10893   0.99353   0.67877   0.00000  Uiso   1.00
H447   H     0.05969   0.29092   0.71108   0.00000  Uiso   1.00
H448   H     0.79089   0.05783   0.66080   0.00000  Uiso   1.00
H449   H     0.21836   0.82979   0.67844   0.00000  Uiso   1.00
H450   H     0.11449   0.45684   0.74656   0.00000  Uiso   1.00
H451   H     0.54766   0.96533   0.64055   0.00000  Uiso   1.00
O452   O     0.18539   0.62064   0.69668   0.00000  Uiso   1.00
O453   O     0.04910   0.44331   0.78605   0.00000  Uiso   1.00
O454   O     0.30544   0.79845   0.64696   0.00000  Uiso   1.00
N455   N     0.02691   0.64656   0.71197   0.00000  Uiso   1.00
N456   N     0.92981   0.23282   0.77566   0.00000  Uiso   1.00
N457   N     0.39987   0.77331   0.67655   0.00000  Uiso   1.00
N458   N     0.14909   0.78632   0.68896   0.00000  Uiso   1.00
N459   N     0.05200   0.37258   0.75265   0.00000  Uiso   1.00
N460   N     0.52206   0.91308   0.65355   0.00000  Uiso   1.00
C461   C     0.09711   0.22523   0.05675   0.00000  Uiso   1.00
C462   C     0.96982   0.12590   0.04797   0.00000  Uiso   1.00
C463   C     0.85300   0.11043   0.05340   0.00000  Uiso   1.00
C464   C     0.74768   0.01402   0.04361   0.00000  Uiso   1.00
C465   C     0.54832   0.87161   0.03223   0.00000  Uiso   1.00
C466   C     0.15814   0.15264   0.06552   0.00000  Uiso   1.00
C467   C     0.19967   0.15967   0.08572   0.00000  Uiso   1.00
C468   C     0.25289   0.08579   0.09071   0.00000  Uiso   1.00
C469   C     0.34598   0.98496   0.10657   0.00000  Uiso   1.00
C470   C     0.17753   0.29868   0.03821   0.00000  Uiso   1.00
C471   C     0.23540   0.42852   0.03544   0.00000  Uiso   1.00
C472   C     0.30497   0.47761   0.01743   0.00000  Uiso   1.00
C473   C     0.42818   0.60354   0.99088   0.00000  Uiso   1.00
C474   C     0.11778   0.08154   0.02969   0.00000  Uiso   1.00
C475   C     0.98106   0.04785   0.03327   0.00000  Uiso   1.00
C476   C     0.87588   0.95145   0.02347   0.00000  Uiso   1.00
C477   C     0.75893   0.93584   0.02889   0.00000  Uiso   1.00
C478   C     0.16937   0.07459   0.05083   0.00000  Uiso   1.00
C479   C     0.22255   0.00069   0.05579   0.00000  Uiso   1.00
C480   C     0.26414   0.00760   0.07598   0.00000  Uiso   1.00
C481   C     0.18876   0.22064   0.02351   0.00000  Uiso   1.00
C482   C     0.25827   0.26954   0.00550   0.00000  Uiso   1.00
C483   C     0.31623   0.39942   0.00271   0.00000  Uiso   1.00
H484   H     0.08837   0.28599   0.06819   0.00000  Uiso   1.00
H485   H     0.84435   0.17084   0.06478   0.00000  Uiso   1.00
H486   H     0.19098   0.22008   0.09709   0.00000  Uiso   1.00
H487   H     0.22669   0.48889   0.04681   0.00000  Uiso   1.00
H488   H     0.57876   0.00872   0.05453   0.00000  Uiso   1.00
H489   H     0.30968   0.11258   0.12265   0.00000  Uiso   1.00
H490   H     0.38500   0.67942   0.01664   0.00000  Uiso   1.00
H491   H     0.12653   0.02078   0.01825   0.00000  Uiso   1.00
H492   H     0.88460   0.89107   0.01210   0.00000  Uiso   1.00
H493   H     0.23123   0.94031   0.04441   0.00000  Uiso   1.00
H494   H     0.26694   0.20911   0.99414   0.00000  Uiso   1.00
H495   H     0.61143   0.78164   0.01177   0.00000  Uiso   1.00
H496   H     0.34236   0.88551   0.07989   0.00000  Uiso   1.00
H497   H     0.41767   0.45234   0.97388   0.00000  Uiso   1.00
O498   O     0.43525   0.81461   0.03001   0.00000  Uiso   1.00
O499   O     0.39422   0.95090   0.11938   0.00000  Uiso   1.00
O500   O     0.49302   0.69456   0.98030   0.00000  Uiso   1.00
N501   N     0.61965   0.97309   0.04530   0.00000  Uiso   1.00
N502   N     0.30300   0.07019   0.10899   0.00000  Uiso   1.00
N503   N     0.37344   0.60013   0.00989   0.00000  Uiso   1.00
N504   N     0.63723   0.85091   0.02230   0.00000  Uiso   1.00
N505   N     0.32058   0.94800   0.08599   0.00000  Uiso   1.00
N506   N     0.39102   0.47794   0.98688   0.00000  Uiso   1.00
C507   C     0.12813   0.90289   0.39008   0.00000  Uiso   1.00
C508   C     0.15608   0.03018   0.38130   0.00000  Uiso   1.00
C509   C     0.25742   0.14700   0.38674   0.00000  Uiso   1.00
C510   C     0.26635   0.25232   0.37695   0.00000  Uiso   1.00
C511   C     0.32329   0.45168   0.36556   0.00000  Uiso   1.00
C512   C     0.99450   0.84186   0.39886   0.00000  Uiso   1.00
C513   C     0.96000   0.80033   0.41905   0.00000  Uiso   1.00
C514   C     0.83290   0.74711   0.42404   0.00000  Uiso   1.00
C515   C     0.63898   0.65402   0.43990   0.00000  Uiso   1.00
C516   C     0.12115   0.82247   0.37154   0.00000  Uiso   1.00
C517   C     0.19312   0.76460   0.36877   0.00000  Uiso   1.00
C518   C     0.17263   0.69503   0.35076   0.00000  Uiso   1.00
C519   C     0.17536   0.57182   0.32422   0.00000  Uiso   1.00
C520   C     0.96376   0.88222   0.36302   0.00000  Uiso   1.00
C521   C     0.06679   0.01894   0.36661   0.00000  Uiso   1.00
C522   C     0.07557   0.12412   0.35680   0.00000  Uiso   1.00
C523   C     0.17691   0.24107   0.36223   0.00000  Uiso   1.00
C524   C     0.90522   0.83063   0.38416   0.00000  Uiso   1.00
C525   C     0.77814   0.77745   0.38912   0.00000  Uiso   1.00
C526   C     0.74346   0.73586   0.40932   0.00000  Uiso   1.00
C527   C     0.03188   0.81124   0.35684   0.00000  Uiso   1.00
C528   C     0.01127   0.74173   0.33884   0.00000  Uiso   1.00
C529   C     0.08319   0.68377   0.33604   0.00000  Uiso   1.00
H530   H     0.19763   0.91163   0.40152   0.00000  Uiso   1.00
H531   H     0.32649   0.15565   0.39811   0.00000  Uiso   1.00
H532   H     0.02910   0.80902   0.43042   0.00000  Uiso   1.00
H533   H     0.26219   0.77331   0.38015   0.00000  Uiso   1.00
H534   H     0.42996   0.42124   0.38786   0.00000  Uiso   1.00
H535   H     0.80290   0.69032   0.45598   0.00000  Uiso   1.00
H536   H     0.29442   0.61500   0.34997   0.00000  Uiso   1.00
H537   H     0.89425   0.87347   0.35158   0.00000  Uiso   1.00
H538   H     0.00647   0.11540   0.34543   0.00000  Uiso   1.00
H539   H     0.70908   0.76877   0.37774   0.00000  Uiso   1.00
H540   H     0.94217   0.73306   0.32747   0.00000  Uiso   1.00
H541   H     0.17021   0.38857   0.34510   0.00000  Uiso   1.00
H542   H     0.54316   0.65764   0.41323   0.00000  Uiso   1.00
H543   H     0.03467   0.58233   0.30721   0.00000  Uiso   1.00
O544   O     0.37936   0.56475   0.36334   0.00000  Uiso   1.00
O545   O     0.55669   0.60578   0.45271   0.00000  Uiso   1.00
O546   O     0.20155   0.50698   0.31363   0.00000  Uiso   1.00
N547   N     0.35344   0.38035   0.37864   0.00000  Uiso   1.00
N548   N     0.76718   0.69700   0.44233   0.00000  Uiso   1.00
N549   N     0.22669   0.62656   0.34322   0.00000  Uiso   1.00
N550   N     0.21368   0.36277   0.35563   0.00000  Uiso   1.00
N551   N     0.62742   0.67942   0.41932   0.00000  Uiso   1.00
N552   N     0.08692   0.60898   0.32021   0.00000  Uiso   1.00
