data_job_06127
_audit_creation_date              2018-12-19
_audit_creation_method            'Materials Studio'
_symmetry_space_group_name_H-M    'P1'
_symmetry_Int_Tables_number       1
_symmetry_cell_setting            triclinic
loop_
_symmetry_equiv_pos_as_xyz
  x,y,z
_cell_length_a                    16.9174
_cell_length_b                    17.1411
_cell_length_c                    17.2516
_cell_angle_alpha                 106.7590
_cell_angle_beta                  107.0900
_cell_angle_gamma                 107.0650
loop_
_atom_site_label
_atom_site_type_symbol
_atom_site_fract_x
_atom_site_fract_y
_atom_site_fract_z
_atom_site_U_iso_or_equiv
_atom_site_adp_type
_atom_site_occupancy
C1     C     0.11842   0.61560   0.09745   0.00000  Uiso   1.00
C2     C     0.13988   0.67940   0.19071   0.00000  Uiso   1.00
C3     C     0.08670   0.66688   0.23763   0.00000  Uiso   1.00
C4     C     0.11811   0.73300   0.32205   0.00000  Uiso   1.00
C5     C     0.13899   0.82055   0.46135   0.00000  Uiso   1.00
C6     C     0.11833   0.67060   0.04196   0.00000  Uiso   1.00
C7     C     0.04702   0.65066   0.96381   0.00000  Uiso   1.00
C8     C     0.06030   0.70937   0.92300   0.00000  Uiso   1.00
C9     C     0.04774   0.78321   0.83133   0.00000  Uiso   1.00
C10    C     0.20010   0.59255   0.10522   0.00000  Uiso   1.00
C11    C     0.19754   0.50699   0.08024   0.00000  Uiso   1.00
C12    C     0.27966   0.49998   0.09267   0.00000  Uiso   1.00
C13    C     0.39405   0.45264   0.09922   0.00000  Uiso   1.00
C14    C     0.26879   0.75531   0.16392   0.00000  Uiso   1.00
C15    C     0.22156   0.75529   0.22682   0.00000  Uiso   1.00
C16    C     0.25307   0.82145   0.31118   0.00000  Uiso   1.00
C17    C     0.19994   0.80902   0.35823   0.00000  Uiso   1.00
C18    C     0.20000   0.74648   0.07807   0.00000  Uiso   1.00
C19    C     0.21339   0.80524   0.03736   0.00000  Uiso   1.00
C20    C     0.14212   0.78540   0.95917   0.00000  Uiso   1.00
C21    C     0.28177   0.66844   0.14133   0.00000  Uiso   1.00
C22    C     0.36391   0.66156   0.15379   0.00000  Uiso   1.00
C23    C     0.36148   0.57601   0.12884   0.00000  Uiso   1.00
H24    H     0.05483   0.55653   0.06933   0.00000  Uiso   1.00
H25    H     0.02349   0.60815   0.20967   0.00000  Uiso   1.00
H26    H     0.98383   0.59193   0.93588   0.00000  Uiso   1.00
H27    H     0.13432   0.44828   0.05230   0.00000  Uiso   1.00
H28    H     0.02474   0.69886   0.38116   0.00000  Uiso   1.00
H29    H     0.94113   0.66465   0.80386   0.00000  Uiso   1.00
H30    H     0.25847   0.36173   0.04934   0.00000  Uiso   1.00
H31    H     0.33238   0.81440   0.19204   0.00000  Uiso   1.00
H32    H     0.31627   0.88017   0.33911   0.00000  Uiso   1.00
H33    H     0.27661   0.86395   0.06532   0.00000  Uiso   1.00
H34    H     0.42710   0.72030   0.18174   0.00000  Uiso   1.00
H35    H     0.26237   0.91965   0.48622   0.00000  Uiso   1.00
H36    H     0.17875   0.88543   0.90891   0.00000  Uiso   1.00
H37    H     0.49610   0.58251   0.15440   0.00000  Uiso   1.00
O38    O     0.12794   0.84788   0.52821   0.00000  Uiso   1.00
O39    O     0.01824   0.80298   0.77080   0.00000  Uiso   1.00
O40    O     0.43458   0.40557   0.09288   0.00000  Uiso   1.00
N41    N     0.08289   0.74179   0.38571   0.00000  Uiso   1.00
N42    N     0.00471   0.70981   0.84597   0.00000  Uiso   1.00
N43    N     0.30139   0.42660   0.07546   0.00000  Uiso   1.00
N44    N     0.21076   0.86059   0.44224   0.00000  Uiso   1.00
N45    N     0.13257   0.82861   0.90250   0.00000  Uiso   1.00
N46    N     0.42926   0.54541   0.13199   0.00000  Uiso   1.00
C47    C     0.08506   0.12012   0.61499   0.00000  Uiso   1.00
C48    C     0.18041   0.14177   0.67905   0.00000  Uiso   1.00
C49    C     0.22887   0.08987   0.66739   0.00000  Uiso   1.00
C50    C     0.31507   0.12122   0.73361   0.00000  Uiso   1.00
C51    C     0.45758   0.14258   0.82167   0.00000  Uiso   1.00
C52    C     0.02813   0.11947   0.66906   0.00000  Uiso   1.00
C53    C     0.94855   0.04882   0.64899   0.00000  Uiso   1.00
C54    C     0.90657   0.06142   0.70680   0.00000  Uiso   1.00
C55    C     0.81262   0.04819   0.77931   0.00000  Uiso   1.00
C56    C     0.09250   0.20054   0.59168   0.00000  Uiso   1.00
C57    C     0.06702   0.19805   0.50654   0.00000  Uiso   1.00
C58    C     0.07922   0.27890   0.49920   0.00000  Uiso   1.00
C59    C     0.08522   0.39153   0.45156   0.00000  Uiso   1.00
C60    C     0.15199   0.26811   0.75334   0.00000  Uiso   1.00
C61    C     0.21676   0.22215   0.75420   0.00000  Uiso   1.00
C62    C     0.30292   0.25360   0.82045   0.00000  Uiso   1.00
C63    C     0.35150   0.20175   0.80889   0.00000  Uiso   1.00
C64    C     0.06448   0.19985   0.74421   0.00000  Uiso   1.00
C65    C     0.02260   0.21255   0.80206   0.00000  Uiso   1.00
C66    C     0.94298   0.14194   0.78208   0.00000  Uiso   1.00
C67    C     0.12886   0.28092   0.66683   0.00000  Uiso   1.00
C68    C     0.14108   0.36178   0.65961   0.00000  Uiso   1.00
C69    C     0.11563   0.35942   0.57448   0.00000  Uiso   1.00
H70    H     0.05675   0.05754   0.55649   0.00000  Uiso   1.00
H71    H     0.20071   0.02766   0.60923   0.00000  Uiso   1.00
H72    H     0.92043   0.98663   0.59083   0.00000  Uiso   1.00
H73    H     0.03889   0.13584   0.44841   0.00000  Uiso   1.00
H74    H     0.37632   0.02996   0.70085   0.00000  Uiso   1.00
H75    H     0.78533   0.94346   0.66204   0.00000  Uiso   1.00
H76    H     0.03513   0.25809   0.36170   0.00000  Uiso   1.00
H77    H     0.18029   0.33069   0.81185   0.00000  Uiso   1.00
H78    H     0.33103   0.31580   0.87860   0.00000  Uiso   1.00
H79    H     0.05075   0.27477   0.86020   0.00000  Uiso   1.00
H80    H     0.16921   0.42397   0.71777   0.00000  Uiso   1.00
H81    H     0.48210   0.26382   0.91948   0.00000  Uiso   1.00
H82    H     0.89110   0.17732   0.88067   0.00000  Uiso   1.00
H83    H     0.14090   0.49195   0.58034   0.00000  Uiso   1.00
O84    O     0.52613   0.13215   0.84948   0.00000  Uiso   1.00
O85    O     0.75076   0.01867   0.79855   0.00000  Uiso   1.00
O86    O     0.07850   0.43146   0.40452   0.00000  Uiso   1.00
N87    N     0.38054   0.08706   0.74314   0.00000  Uiso   1.00
N88    N     0.82800   0.00617   0.70686   0.00000  Uiso   1.00
N89    N     0.06152   0.30032   0.42607   0.00000  Uiso   1.00
N90    N     0.43746   0.21289   0.86078   0.00000  Uiso   1.00
N91    N     0.88492   0.13201   0.82450   0.00000  Uiso   1.00
N92    N     0.11844   0.42616   0.54371   0.00000  Uiso   1.00
C93    C     0.61030   0.09340   0.12250   0.00000  Uiso   1.00
C94    C     0.67527   0.18757   0.14399   0.00000  Uiso   1.00
C95    C     0.66305   0.23526   0.09207   0.00000  Uiso   1.00
C96    C     0.73029   0.32044   0.12327   0.00000  Uiso   1.00
C97    C     0.81954   0.46116   0.14440   0.00000  Uiso   1.00
C98    C     0.66609   0.03784   0.12271   0.00000  Uiso   1.00
C99    C     0.64615   0.95963   0.05290   0.00000  Uiso   1.00
C100   C     0.70566   0.91876   0.06620   0.00000  Uiso   1.00
C101   C     0.78062   0.82698   0.05433   0.00000  Uiso   1.00
C102   C     0.58626   0.10034   0.20205   0.00000  Uiso   1.00
C103   C     0.49918   0.07465   0.19895   0.00000  Uiso   1.00
C104   C     0.49147   0.08637   0.27905   0.00000  Uiso   1.00
C105   C     0.44247   0.09163   0.39036   0.00000  Uiso   1.00
C106   C     0.75143   0.15988   0.27026   0.00000  Uiso   1.00
C107   C     0.75193   0.22368   0.22424   0.00000  Uiso   1.00
C108   C     0.81920   0.30881   0.25554   0.00000  Uiso   1.00
C109   C     0.80709   0.35662   0.20367   0.00000  Uiso   1.00
C110   C     0.74275   0.07395   0.20296   0.00000  Uiso   1.00
C111   C     0.80230   0.03318   0.21637   0.00000  Uiso   1.00
C112   C     0.78245   0.95493   0.14660   0.00000  Uiso   1.00
C113   C     0.66291   0.13644   0.28231   0.00000  Uiso   1.00
C114   C     0.65534   0.14820   0.36242   0.00000  Uiso   1.00
C115   C     0.56827   0.12254   0.35944   0.00000  Uiso   1.00
H116   H     0.55062   0.06528   0.06002   0.00000  Uiso   1.00
H117   H     0.60372   0.20729   0.02996   0.00000  Uiso   1.00
H118   H     0.58682   0.93170   0.99081   0.00000  Uiso   1.00
H119   H     0.43988   0.04671   0.13684   0.00000  Uiso   1.00
H120   H     0.69642   0.38064   0.03201   0.00000  Uiso   1.00
H121   H     0.66076   0.79953   0.94947   0.00000  Uiso   1.00
H122   H     0.35090   0.04204   0.25739   0.00000  Uiso   1.00
H123   H     0.81112   0.18799   0.33274   0.00000  Uiso   1.00
H124   H     0.87852   0.33673   0.31764   0.00000  Uiso   1.00
H125   H     0.86161   0.06114   0.27849   0.00000  Uiso   1.00
H126   H     0.71467   0.17615   0.42451   0.00000  Uiso   1.00
H127   H     0.91946   0.48570   0.26550   0.00000  Uiso   1.00
H128   H     0.88379   0.90458   0.18295   0.00000  Uiso   1.00
H129   H     0.57394   0.14710   0.49088   0.00000  Uiso   1.00
O130   O     0.84759   0.52879   0.13389   0.00000  Uiso   1.00
O131   O     0.80079   0.76639   0.02560   0.00000  Uiso   1.00
O132   O     0.39427   0.08456   0.42959   0.00000  Uiso   1.00
N133   N     0.73966   0.38496   0.08904   0.00000  Uiso   1.00
N134   N     0.70632   0.84166   0.01186   0.00000  Uiso   1.00
N135   N     0.41663   0.06837   0.29974   0.00000  Uiso   1.00
N136   N     0.85967   0.44149   0.21468   0.00000  Uiso   1.00
N137   N     0.82633   0.89819   0.13750   0.00000  Uiso   1.00
N138   N     0.53664   0.12490   0.42538   0.00000  Uiso   1.00
C139   C     0.88158   0.38440   0.90255   0.00000  Uiso   1.00
C140   C     0.86011   0.32060   0.80929   0.00000  Uiso   1.00
C141   C     0.91330   0.33312   0.76237   0.00000  Uiso   1.00
C142   C     0.88189   0.26700   0.67795   0.00000  Uiso   1.00
C143   C     0.86101   0.17945   0.53865   0.00000  Uiso   1.00
C144   C     0.88167   0.32940   0.95804   0.00000  Uiso   1.00
C145   C     0.95298   0.34934   0.03619   0.00000  Uiso   1.00
C146   C     0.93970   0.29063   0.07700   0.00000  Uiso   1.00
C147   C     0.95226   0.21679   0.16867   0.00000  Uiso   1.00
C148   C     0.79990   0.40745   0.89478   0.00000  Uiso   1.00
C149   C     0.80246   0.49302   0.91976   0.00000  Uiso   1.00
C150   C     0.72034   0.50002   0.90733   0.00000  Uiso   1.00
C151   C     0.60595   0.54736   0.90078   0.00000  Uiso   1.00
C152   C     0.73121   0.24469   0.83608   0.00000  Uiso   1.00
C153   C     0.77844   0.24471   0.77318   0.00000  Uiso   1.00
C154   C     0.74693   0.17855   0.68882   0.00000  Uiso   1.00
C155   C     0.80006   0.19098   0.64177   0.00000  Uiso   1.00
C156   C     0.80000   0.25352   0.92193   0.00000  Uiso   1.00
C157   C     0.78661   0.19476   0.96264   0.00000  Uiso   1.00
C158   C     0.85788   0.21460   0.04083   0.00000  Uiso   1.00
C159   C     0.71823   0.33156   0.85867   0.00000  Uiso   1.00
C160   C     0.63609   0.33844   0.84621   0.00000  Uiso   1.00
C161   C     0.63852   0.42399   0.87116   0.00000  Uiso   1.00
H162   H     0.94517   0.44348   0.93067   0.00000  Uiso   1.00
H163   H     0.97651   0.39186   0.79033   0.00000  Uiso   1.00
H164   H     0.01617   0.40807   0.06412   0.00000  Uiso   1.00
H165   H     0.86568   0.55172   0.94770   0.00000  Uiso   1.00
H166   H     0.97526   0.30114   0.61884   0.00000  Uiso   1.00
H167   H     0.05887   0.33536   0.19614   0.00000  Uiso   1.00
H168   H     0.74153   0.63827   0.95066   0.00000  Uiso   1.00
H169   H     0.66762   0.18560   0.80796   0.00000  Uiso   1.00
H170   H     0.68373   0.11983   0.66089   0.00000  Uiso   1.00
H171   H     0.72339   0.13605   0.93468   0.00000  Uiso   1.00
H172   H     0.57290   0.27970   0.81826   0.00000  Uiso   1.00
H173   H     0.73763   0.08035   0.51378   0.00000  Uiso   1.00
H174   H     0.82125   0.11457   0.09109   0.00000  Uiso   1.00
H175   H     0.50390   0.41749   0.84560   0.00000  Uiso   1.00
O176   O     0.87206   0.15212   0.47179   0.00000  Uiso   1.00
O177   O     0.98176   0.19702   0.22920   0.00000  Uiso   1.00
O178   O     0.56542   0.59443   0.90712   0.00000  Uiso   1.00
N179   N     0.91711   0.25821   0.61429   0.00000  Uiso   1.00
N180   N     0.99529   0.29019   0.15403   0.00000  Uiso   1.00
N181   N     0.69861   0.57340   0.92454   0.00000  Uiso   1.00
N182   N     0.78924   0.13941   0.55776   0.00000  Uiso   1.00
N183   N     0.86743   0.17139   0.09750   0.00000  Uiso   1.00
N184   N     0.57074   0.45459   0.86801   0.00000  Uiso   1.00
C185   C     0.91494   0.87988   0.38501   0.00000  Uiso   1.00
C186   C     0.81959   0.85823   0.32095   0.00000  Uiso   1.00
C187   C     0.77113   0.91013   0.33261   0.00000  Uiso   1.00
C188   C     0.68493   0.87878   0.26639   0.00000  Uiso   1.00
C189   C     0.54242   0.85742   0.17833   0.00000  Uiso   1.00
C190   C     0.97187   0.88053   0.33094   0.00000  Uiso   1.00
C191   C     0.05145   0.95118   0.35101   0.00000  Uiso   1.00
C192   C     0.09343   0.93858   0.29320   0.00000  Uiso   1.00
C193   C     0.18738   0.95181   0.22069   0.00000  Uiso   1.00
C194   C     0.90750   0.79946   0.40832   0.00000  Uiso   1.00
C195   C     0.93298   0.80195   0.49346   0.00000  Uiso   1.00
C196   C     0.92078   0.72110   0.50080   0.00000  Uiso   1.00
C197   C     0.91478   0.60847   0.54844   0.00000  Uiso   1.00
C198   C     0.84801   0.73189   0.24666   0.00000  Uiso   1.00
C199   C     0.78324   0.77785   0.24580   0.00000  Uiso   1.00
C200   C     0.69708   0.74640   0.17955   0.00000  Uiso   1.00
C201   C     0.64850   0.79825   0.19111   0.00000  Uiso   1.00
C202   C     0.93552   0.80015   0.25579   0.00000  Uiso   1.00
C203   C     0.97740   0.78745   0.19794   0.00000  Uiso   1.00
C204   C     0.05701   0.85806   0.21792   0.00000  Uiso   1.00
C205   C     0.87114   0.71908   0.33317   0.00000  Uiso   1.00
C206   C     0.85892   0.63822   0.34039   0.00000  Uiso   1.00
C207   C     0.88437   0.64058   0.42553   0.00000  Uiso   1.00
H208   H     0.94325   0.94246   0.44351   0.00000  Uiso   1.00
H209   H     0.79929   0.97234   0.39077   0.00000  Uiso   1.00
H210   H     0.07957   0.01337   0.40917   0.00000  Uiso   1.00
H211   H     0.96111   0.86416   0.55159   0.00000  Uiso   1.00
H212   H     0.62368   0.97004   0.29915   0.00000  Uiso   1.00
H213   H     0.21467   0.05654   0.33796   0.00000  Uiso   1.00
H214   H     0.96487   0.74191   0.63830   0.00000  Uiso   1.00
H215   H     0.81971   0.66931   0.18815   0.00000  Uiso   1.00
H216   H     0.66897   0.68420   0.12140   0.00000  Uiso   1.00
H217   H     0.94925   0.72523   0.13980   0.00000  Uiso   1.00
H218   H     0.83079   0.57603   0.28223   0.00000  Uiso   1.00
H219   H     0.51790   0.73618   0.08052   0.00000  Uiso   1.00
H220   H     0.10890   0.82268   0.11933   0.00000  Uiso   1.00
H221   H     0.85910   0.50805   0.41966   0.00000  Uiso   1.00
O222   O     0.47387   0.86785   0.15052   0.00000  Uiso   1.00
O223   O     0.24924   0.98133   0.20145   0.00000  Uiso   1.00
O224   O     0.92150   0.56854   0.59548   0.00000  Uiso   1.00
N225   N     0.61946   0.91295   0.25686   0.00000  Uiso   1.00
N226   N     0.17200   0.99383   0.29314   0.00000  Uiso   1.00
N227   N     0.93848   0.69968   0.57393   0.00000  Uiso   1.00
N228   N     0.56254   0.78711   0.13922   0.00000  Uiso   1.00
N229   N     0.11508   0.86799   0.17550   0.00000  Uiso   1.00
N230   N     0.88156   0.57384   0.45629   0.00000  Uiso   1.00
C231   C     0.38970   0.90660   0.87750   0.00000  Uiso   1.00
C232   C     0.32473   0.81243   0.85601   0.00000  Uiso   1.00
C233   C     0.33695   0.76474   0.90793   0.00000  Uiso   1.00
C234   C     0.26971   0.67956   0.87673   0.00000  Uiso   1.00
C235   C     0.18046   0.53884   0.85560   0.00000  Uiso   1.00
C236   C     0.33391   0.96216   0.87729   0.00000  Uiso   1.00
C237   C     0.35385   0.04037   0.94710   0.00000  Uiso   1.00
C238   C     0.29434   0.08124   0.93380   0.00000  Uiso   1.00
C239   C     0.21938   0.17302   0.94567   0.00000  Uiso   1.00
C240   C     0.41374   0.89966   0.79795   0.00000  Uiso   1.00
C241   C     0.50082   0.92535   0.80105   0.00000  Uiso   1.00
C242   C     0.50853   0.91363   0.72095   0.00000  Uiso   1.00
C243   C     0.55753   0.90837   0.60964   0.00000  Uiso   1.00
C244   C     0.24857   0.84012   0.72975   0.00000  Uiso   1.00
C245   C     0.24807   0.77632   0.77576   0.00000  Uiso   1.00
C246   C     0.18080   0.69119   0.74446   0.00000  Uiso   1.00
C247   C     0.19291   0.64338   0.79633   0.00000  Uiso   1.00
C248   C     0.25725   0.92605   0.79704   0.00000  Uiso   1.00
C249   C     0.19770   0.96682   0.78363   0.00000  Uiso   1.00
C250   C     0.21755   0.04507   0.85340   0.00000  Uiso   1.00
C251   C     0.33709   0.86356   0.71769   0.00000  Uiso   1.00
C252   C     0.34466   0.85180   0.63758   0.00000  Uiso   1.00
C253   C     0.43173   0.87746   0.64056   0.00000  Uiso   1.00
H254   H     0.44938   0.93472   0.93998   0.00000  Uiso   1.00
H255   H     0.39628   0.79271   0.97004   0.00000  Uiso   1.00
H256   H     0.41318   0.06830   0.00919   0.00000  Uiso   1.00
H257   H     0.56012   0.95329   0.86316   0.00000  Uiso   1.00
H258   H     0.30358   0.61936   0.96799   0.00000  Uiso   1.00
H259   H     0.33924   0.20047   0.05053   0.00000  Uiso   1.00
H260   H     0.64910   0.95796   0.74261   0.00000  Uiso   1.00
H261   H     0.18888   0.81201   0.66726   0.00000  Uiso   1.00
H262   H     0.12148   0.66327   0.68236   0.00000  Uiso   1.00
H263   H     0.13839   0.93886   0.72151   0.00000  Uiso   1.00
H264   H     0.28533   0.82385   0.57549   0.00000  Uiso   1.00
H265   H     0.08054   0.51430   0.73450   0.00000  Uiso   1.00
H266   H     0.11621   0.09542   0.81705   0.00000  Uiso   1.00
H267   H     0.42606   0.85290   0.50912   0.00000  Uiso   1.00
O268   O     0.15241   0.47121   0.86611   0.00000  Uiso   1.00
O269   O     0.19921   0.23361   0.97440   0.00000  Uiso   1.00
O270   O     0.60573   0.91544   0.57041   0.00000  Uiso   1.00
N271   N     0.26034   0.61504   0.91096   0.00000  Uiso   1.00
N272   N     0.29368   0.15834   0.98814   0.00000  Uiso   1.00
N273   N     0.58337   0.93163   0.70026   0.00000  Uiso   1.00
N274   N     0.14033   0.55851   0.78532   0.00000  Uiso   1.00
N275   N     0.17367   0.10181   0.86250   0.00000  Uiso   1.00
N276   N     0.46336   0.87510   0.57462   0.00000  Uiso   1.00
