data_job_06136
_audit_creation_date              2018-12-19
_audit_creation_method            'Materials Studio'
_symmetry_space_group_name_H-M    'P1'
_symmetry_Int_Tables_number       1
_symmetry_cell_setting            triclinic
loop_
_symmetry_equiv_pos_as_xyz
  x,y,z
_cell_length_a                    17.0707
_cell_length_b                    16.6830
_cell_length_c                    13.9033
_cell_angle_alpha                 95.9613
_cell_angle_beta                  96.1917
_cell_angle_gamma                 89.0631
loop_
_atom_site_label
_atom_site_type_symbol
_atom_site_fract_x
_atom_site_fract_y
_atom_site_fract_z
_atom_site_U_iso_or_equiv
_atom_site_adp_type
_atom_site_occupancy
C1     C     0.70500   0.37442   0.01656   0.00000  Uiso   1.00
C2     C     0.68063   0.37675   0.11916   0.00000  Uiso   1.00
C3     C     0.61800   0.33522   0.14597   0.00000  Uiso   1.00
C4     C     0.60538   0.34535   0.24350   0.00000  Uiso   1.00
C5     C     0.56018   0.34142   0.39244   0.00000  Uiso   1.00
C6     C     0.70421   0.46170   0.99298   0.00000  Uiso   1.00
C7     C     0.66141   0.49158   0.91369   0.00000  Uiso   1.00
C8     C     0.66864   0.57322   0.90499   0.00000  Uiso   1.00
C9     C     0.66008   0.70116   0.85799   0.00000  Uiso   1.00
C10    C     0.79111   0.34774   0.02354   0.00000  Uiso   1.00
C11    C     0.82139   0.28183   0.96993   0.00000  Uiso   1.00
C12    C     0.90180   0.26754   0.98694   0.00000  Uiso   1.00
C13    C     0.02817   0.21854   0.98739   0.00000  Uiso   1.00
C14    C     0.79396   0.46625   0.14206   0.00000  Uiso   1.00
C15    C     0.72895   0.42663   0.18733   0.00000  Uiso   1.00
C16    C     0.71643   0.43682   0.28484   0.00000  Uiso   1.00
C17    C     0.65379   0.39532   0.31179   0.00000  Uiso   1.00
C18    C     0.75253   0.51158   0.06114   0.00000  Uiso   1.00
C19    C     0.75983   0.59319   0.05255   0.00000  Uiso   1.00
C20    C     0.71705   0.62319   0.97328   0.00000  Uiso   1.00
C21    C     0.83944   0.39762   0.09171   0.00000  Uiso   1.00
C22    C     0.91981   0.38343   0.10880   0.00000  Uiso   1.00
C23    C     0.95021   0.31751   0.05524   0.00000  Uiso   1.00
H24    H     0.66738   0.33559   0.96348   0.00000  Uiso   1.00
H25    H     0.58062   0.29663   0.09319   0.00000  Uiso   1.00
H26    H     0.62402   0.45297   0.86094   0.00000  Uiso   1.00
H27    H     0.78398   0.24324   0.91718   0.00000  Uiso   1.00
H28    H     0.50572   0.27546   0.26707   0.00000  Uiso   1.00
H29    H     0.59726   0.60510   0.77734   0.00000  Uiso   1.00
H30    H     0.93456   0.16286   0.89592   0.00000  Uiso   1.00
H31    H     0.83158   0.50509   0.19514   0.00000  Uiso   1.00
H32    H     0.75383   0.47543   0.33758   0.00000  Uiso   1.00
H33    H     0.79723   0.63177   0.10532   0.00000  Uiso   1.00
H34    H     0.95719   0.42204   0.16156   0.00000  Uiso   1.00
H35    H     0.64630   0.42059   0.46542   0.00000  Uiso   1.00
H36    H     0.73785   0.75022   0.97568   0.00000  Uiso   1.00
H37    H     0.07514   0.30798   0.09427   0.00000  Uiso   1.00
O38    O     0.52188   0.32548   0.45575   0.00000  Uiso   1.00
O39    O     0.64200   0.75794   0.81323   0.00000  Uiso   1.00
O40    O     0.08452   0.17773   0.96882   0.00000  Uiso   1.00
N41    N     0.54949   0.31367   0.29420   0.00000  Uiso   1.00
N42    N     0.63506   0.62187   0.83634   0.00000  Uiso   1.00
N43    N     0.95041   0.20842   0.94719   0.00000  Uiso   1.00
N44    N     0.62513   0.39176   0.40093   0.00000  Uiso   1.00
N45    N     0.71071   0.69996   0.94307   0.00000  Uiso   1.00
N46    N     0.02606   0.28651   0.05392   0.00000  Uiso   1.00
C47    C     0.04504   0.70473   0.35735   0.00000  Uiso   1.00
C48    C     0.13114   0.67800   0.36449   0.00000  Uiso   1.00
C49    C     0.16147   0.61217   0.31081   0.00000  Uiso   1.00
C50    C     0.24185   0.59779   0.32803   0.00000  Uiso   1.00
C51    C     0.36820   0.54871   0.32874   0.00000  Uiso   1.00
C52    C     0.02047   0.70682   0.45983   0.00000  Uiso   1.00
C53    C     0.95775   0.66522   0.48631   0.00000  Uiso   1.00
C54    C     0.94495   0.67510   0.58378   0.00000  Uiso   1.00
C55    C     0.89945   0.67080   0.73250   0.00000  Uiso   1.00
C56    C     0.04435   0.79209   0.33410   0.00000  Uiso   1.00
C57    C     0.00169   0.82219   0.25487   0.00000  Uiso   1.00
C58    C     0.00899   0.90388   0.24649   0.00000  Uiso   1.00
C59    C     0.00057   0.03197   0.19999   0.00000  Uiso   1.00
C60    C     0.13384   0.79627   0.48338   0.00000  Uiso   1.00
C61    C     0.17938   0.72772   0.43295   0.00000  Uiso   1.00
C62    C     0.25973   0.71344   0.45025   0.00000  Uiso   1.00
C63    C     0.29017   0.64760   0.39660   0.00000  Uiso   1.00
C64    C     0.06871   0.75653   0.52829   0.00000  Uiso   1.00
C65    C     0.05600   0.76649   0.62575   0.00000  Uiso   1.00
C66    C     0.99327   0.72491   0.65236   0.00000  Uiso   1.00
C67    C     0.09259   0.84181   0.40255   0.00000  Uiso   1.00
C68    C     0.09995   0.92347   0.39431   0.00000  Uiso   1.00
C69    C     0.05731   0.95369   0.31508   0.00000  Uiso   1.00
H70    H     0.00748   0.66602   0.30406   0.00000  Uiso   1.00
H71    H     0.12412   0.57370   0.25785   0.00000  Uiso   1.00
H72    H     0.92042   0.62675   0.43331   0.00000  Uiso   1.00
H73    H     0.96437   0.78370   0.20191   0.00000  Uiso   1.00
H74    H     0.27471   0.49326   0.23683   0.00000  Uiso   1.00
H75    H     0.84518   0.60514   0.60680   0.00000  Uiso   1.00
H76    H     0.93784   0.93610   0.11884   0.00000  Uiso   1.00
H77    H     0.17140   0.83498   0.53668   0.00000  Uiso   1.00
H78    H     0.29704   0.75193   0.50323   0.00000  Uiso   1.00
H79    H     0.09334   0.80498   0.67870   0.00000  Uiso   1.00
H80    H     0.13728   0.96192   0.44730   0.00000  Uiso   1.00
H81    H     0.41505   0.63791   0.43600   0.00000  Uiso   1.00
H82    H     0.98552   0.74979   0.80597   0.00000  Uiso   1.00
H83    H     0.07819   0.08075   0.31801   0.00000  Uiso   1.00
O84    O     0.42457   0.50789   0.31023   0.00000  Uiso   1.00
O85    O     0.86104   0.65468   0.79562   0.00000  Uiso   1.00
O86    O     0.98261   0.08889   0.15542   0.00000  Uiso   1.00
N87    N     0.29050   0.53871   0.28828   0.00000  Uiso   1.00
N88    N     0.88892   0.64330   0.63419   0.00000  Uiso   1.00
N89    N     0.97554   0.95272   0.17799   0.00000  Uiso   1.00
N90    N     0.36602   0.61655   0.39545   0.00000  Uiso   1.00
N91    N     0.96444   0.72114   0.74136   0.00000  Uiso   1.00
N92    N     0.05106   0.03056   0.28516   0.00000  Uiso   1.00
C93    C     0.37456   0.04117   0.68722   0.00000  Uiso   1.00
C94    C     0.37401   0.12851   0.66392   0.00000  Uiso   1.00
C95    C     0.33128   0.15868   0.58478   0.00000  Uiso   1.00
C96    C     0.33875   0.24032   0.57631   0.00000  Uiso   1.00
C97    C     0.33056   0.36839   0.52972   0.00000  Uiso   1.00
C98    C     0.46060   0.01423   0.69404   0.00000  Uiso   1.00
C99    C     0.49067   0.94830   0.64024   0.00000  Uiso   1.00
C100   C     0.57103   0.93374   0.65715   0.00000  Uiso   1.00
C101   C     0.69726   0.88436   0.65738   0.00000  Uiso   1.00
C102   C     0.35025   0.04336   0.78983   0.00000  Uiso   1.00
C103   C     0.28754   0.00191   0.81658   0.00000  Uiso   1.00
C104   C     0.27501   0.01186   0.91414   0.00000  Uiso   1.00
C105   C     0.22989   0.00769   0.06309   0.00000  Uiso   1.00
C106   C     0.46383   0.13253   0.81292   0.00000  Uiso   1.00
C107   C     0.42250   0.17813   0.73219   0.00000  Uiso   1.00
C108   C     0.43004   0.25976   0.72385   0.00000  Uiso   1.00
C109   C     0.38732   0.29004   0.64471   0.00000  Uiso   1.00
C110   C     0.50909   0.06385   0.76231   0.00000  Uiso   1.00
C111   C     0.58943   0.04938   0.77931   0.00000  Uiso   1.00
C112   C     0.61961   0.98345   0.72555   0.00000  Uiso   1.00
C113   C     0.39874   0.09299   0.85811   0.00000  Uiso   1.00
C114   C     0.38630   0.10299   0.95564   0.00000  Uiso   1.00
C115   C     0.32358   0.06157   0.98253   0.00000  Uiso   1.00
H116   H     0.33682   0.00253   0.63406   0.00000  Uiso   1.00
H117   H     0.29377   0.12025   0.53195   0.00000  Uiso   1.00
H118   H     0.45313   0.90991   0.58742   0.00000  Uiso   1.00
H119   H     0.25003   0.96351   0.76372   0.00000  Uiso   1.00
H120   H     0.26744   0.27265   0.44883   0.00000  Uiso   1.00
H121   H     0.60346   0.82911   0.56581   0.00000  Uiso   1.00
H122   H     0.17519   0.94214   0.93758   0.00000  Uiso   1.00
H123   H     0.50158   0.17116   0.86607   0.00000  Uiso   1.00
H124   H     0.46757   0.29814   0.77669   0.00000  Uiso   1.00
H125   H     0.62693   0.08780   0.83216   0.00000  Uiso   1.00
H126   H     0.42384   0.14140   0.00846   0.00000  Uiso   1.00
H127   H     0.40851   0.41703   0.64747   0.00000  Uiso   1.00
H128   H     0.74453   0.97349   0.76445   0.00000  Uiso   1.00
H129   H     0.31626   0.08652   0.13622   0.00000  Uiso   1.00
O130   O     0.31265   0.42532   0.48515   0.00000  Uiso   1.00
O131   O     0.75349   0.84341   0.63863   0.00000  Uiso   1.00
O132   O     0.19161   0.99170   0.12638   0.00000  Uiso   1.00
N133   N     0.30530   0.28920   0.50786   0.00000  Uiso   1.00
N134   N     0.61946   0.87453   0.61721   0.00000  Uiso   1.00
N135   N     0.21908   0.98018   0.96479   0.00000  Uiso   1.00
N136   N     0.38120   0.36690   0.61475   0.00000  Uiso   1.00
N137   N     0.69536   0.95222   0.72410   0.00000  Uiso   1.00
N138   N     0.29498   0.05787   0.07168   0.00000  Uiso   1.00
C139   C     0.29500   0.62559   0.98344   0.00000  Uiso   1.00
C140   C     0.31937   0.62325   0.88084   0.00000  Uiso   1.00
C141   C     0.38200   0.66478   0.85403   0.00000  Uiso   1.00
C142   C     0.39462   0.65465   0.75650   0.00000  Uiso   1.00
C143   C     0.43982   0.65858   0.60756   0.00000  Uiso   1.00
C144   C     0.29579   0.53831   0.00702   0.00000  Uiso   1.00
C145   C     0.33859   0.50842   0.08631   0.00000  Uiso   1.00
C146   C     0.33136   0.42678   0.09501   0.00000  Uiso   1.00
C147   C     0.33992   0.29884   0.14201   0.00000  Uiso   1.00
C148   C     0.20889   0.65226   0.97646   0.00000  Uiso   1.00
C149   C     0.17861   0.71817   0.03007   0.00000  Uiso   1.00
C150   C     0.09820   0.73246   0.01306   0.00000  Uiso   1.00
C151   C     0.97183   0.78146   0.01261   0.00000  Uiso   1.00
C152   C     0.20604   0.53375   0.85794   0.00000  Uiso   1.00
C153   C     0.27105   0.57337   0.81267   0.00000  Uiso   1.00
C154   C     0.28357   0.56318   0.71516   0.00000  Uiso   1.00
C155   C     0.34621   0.60468   0.68821   0.00000  Uiso   1.00
C156   C     0.24747   0.48842   0.93886   0.00000  Uiso   1.00
C157   C     0.24017   0.40681   0.94745   0.00000  Uiso   1.00
C158   C     0.28295   0.37681   0.02672   0.00000  Uiso   1.00
C159   C     0.16056   0.60238   0.90829   0.00000  Uiso   1.00
C160   C     0.08019   0.61657   0.89120   0.00000  Uiso   1.00
C161   C     0.04979   0.68249   0.94476   0.00000  Uiso   1.00
H162   H     0.33262   0.66441   0.03652   0.00000  Uiso   1.00
H163   H     0.41938   0.70337   0.90681   0.00000  Uiso   1.00
H164   H     0.37598   0.54703   0.13906   0.00000  Uiso   1.00
H165   H     0.21602   0.75676   0.08282   0.00000  Uiso   1.00
H166   H     0.49428   0.72454   0.73293   0.00000  Uiso   1.00
H167   H     0.40274   0.39490   0.22266   0.00000  Uiso   1.00
H168   H     0.06544   0.83714   0.10408   0.00000  Uiso   1.00
H169   H     0.16842   0.49491   0.80486   0.00000  Uiso   1.00
H170   H     0.24617   0.52457   0.66242   0.00000  Uiso   1.00
H171   H     0.20277   0.36823   0.89468   0.00000  Uiso   1.00
H172   H     0.04281   0.57796   0.83844   0.00000  Uiso   1.00
H173   H     0.35370   0.57942   0.53458   0.00000  Uiso   1.00
H174   H     0.26215   0.24978   0.02432   0.00000  Uiso   1.00
H175   H     0.92486   0.69202   0.90573   0.00000  Uiso   1.00
O176   O     0.47812   0.67452   0.54425   0.00000  Uiso   1.00
O177   O     0.35800   0.24206   0.18677   0.00000  Uiso   1.00
O178   O     0.91548   0.82227   0.03118   0.00000  Uiso   1.00
N179   N     0.45051   0.68633   0.70580   0.00000  Uiso   1.00
N180   N     0.36494   0.37813   0.16366   0.00000  Uiso   1.00
N181   N     0.04959   0.79158   0.05281   0.00000  Uiso   1.00
N182   N     0.37487   0.60824   0.59907   0.00000  Uiso   1.00
N183   N     0.28929   0.30004   0.05693   0.00000  Uiso   1.00
N184   N     0.97394   0.71349   0.94608   0.00000  Uiso   1.00
C185   C     0.95496   0.29527   0.64265   0.00000  Uiso   1.00
C186   C     0.86886   0.32200   0.63551   0.00000  Uiso   1.00
C187   C     0.83853   0.38783   0.68919   0.00000  Uiso   1.00
C188   C     0.75815   0.40221   0.67197   0.00000  Uiso   1.00
C189   C     0.63180   0.45129   0.67126   0.00000  Uiso   1.00
C190   C     0.97953   0.29318   0.54017   0.00000  Uiso   1.00
C191   C     0.04225   0.33478   0.51369   0.00000  Uiso   1.00
C192   C     0.05505   0.32490   0.41622   0.00000  Uiso   1.00
C193   C     0.10055   0.32920   0.26750   0.00000  Uiso   1.00
C194   C     0.95565   0.20791   0.66590   0.00000  Uiso   1.00
C195   C     0.99831   0.17781   0.74513   0.00000  Uiso   1.00
C196   C     0.99101   0.09612   0.75350   0.00000  Uiso   1.00
C197   C     0.99943   0.96803   0.80001   0.00000  Uiso   1.00
C198   C     0.86616   0.20373   0.51662   0.00000  Uiso   1.00
C199   C     0.82062   0.27228   0.56705   0.00000  Uiso   1.00
C200   C     0.74027   0.28656   0.54975   0.00000  Uiso   1.00
C201   C     0.70983   0.35240   0.60340   0.00000  Uiso   1.00
C202   C     0.93129   0.24347   0.47171   0.00000  Uiso   1.00
C203   C     0.94400   0.23351   0.37425   0.00000  Uiso   1.00
C204   C     0.00673   0.27509   0.34764   0.00000  Uiso   1.00
C205   C     0.90741   0.15819   0.59745   0.00000  Uiso   1.00
C206   C     0.90005   0.07653   0.60569   0.00000  Uiso   1.00
C207   C     0.94269   0.04631   0.68492   0.00000  Uiso   1.00
H208   H     0.99252   0.33398   0.69594   0.00000  Uiso   1.00
H209   H     0.87588   0.42630   0.74215   0.00000  Uiso   1.00
H210   H     0.07958   0.37325   0.56669   0.00000  Uiso   1.00
H211   H     0.03563   0.21630   0.79809   0.00000  Uiso   1.00
H212   H     0.72529   0.50674   0.76317   0.00000  Uiso   1.00
H213   H     0.15482   0.39486   0.39320   0.00000  Uiso   1.00
H214   H     0.06216   0.06390   0.88116   0.00000  Uiso   1.00
H215   H     0.82860   0.16502   0.46332   0.00000  Uiso   1.00
H216   H     0.70296   0.24807   0.49677   0.00000  Uiso   1.00
H217   H     0.90666   0.19502   0.32130   0.00000  Uiso   1.00
H218   H     0.86272   0.03808   0.55270   0.00000  Uiso   1.00
H219   H     0.58495   0.36209   0.56400   0.00000  Uiso   1.00
H220   H     0.01448   0.25021   0.19403   0.00000  Uiso   1.00
H221   H     0.92181   0.91925   0.68199   0.00000  Uiso   1.00
O222   O     0.57543   0.49211   0.68977   0.00000  Uiso   1.00
O223   O     0.13896   0.34532   0.20438   0.00000  Uiso   1.00
O224   O     0.01739   0.91111   0.84458   0.00000  Uiso   1.00
N225   N     0.70950   0.46129   0.71172   0.00000  Uiso   1.00
N226   N     0.11108   0.35670   0.36581   0.00000  Uiso   1.00
N227   N     0.02446   0.04728   0.82200   0.00000  Uiso   1.00
N228   N     0.63398   0.38345   0.60455   0.00000  Uiso   1.00
N229   N     0.03556   0.27887   0.25864   0.00000  Uiso   1.00
N230   N     0.94894   0.96944   0.71484   0.00000  Uiso   1.00
C231   C     0.62544   0.95883   0.31278   0.00000  Uiso   1.00
C232   C     0.62599   0.87149   0.33608   0.00000  Uiso   1.00
C233   C     0.66872   0.84132   0.41522   0.00000  Uiso   1.00
C234   C     0.66125   0.75968   0.42369   0.00000  Uiso   1.00
C235   C     0.66944   0.63161   0.47028   0.00000  Uiso   1.00
C236   C     0.53940   0.98577   0.30596   0.00000  Uiso   1.00
C237   C     0.50933   0.05170   0.35976   0.00000  Uiso   1.00
C238   C     0.42897   0.06626   0.34285   0.00000  Uiso   1.00
C239   C     0.30274   0.11564   0.34262   0.00000  Uiso   1.00
C240   C     0.64975   0.95664   0.21017   0.00000  Uiso   1.00
C241   C     0.71246   0.99809   0.18342   0.00000  Uiso   1.00
C242   C     0.72499   0.98814   0.08586   0.00000  Uiso   1.00
C243   C     0.77011   0.99231   0.93691   0.00000  Uiso   1.00
C244   C     0.53617   0.86747   0.18708   0.00000  Uiso   1.00
C245   C     0.57750   0.82187   0.26781   0.00000  Uiso   1.00
C246   C     0.56996   0.74024   0.27615   0.00000  Uiso   1.00
C247   C     0.61268   0.70996   0.35529   0.00000  Uiso   1.00
C248   C     0.49091   0.93615   0.23769   0.00000  Uiso   1.00
C249   C     0.41057   0.95062   0.22069   0.00000  Uiso   1.00
C250   C     0.38039   0.01655   0.27445   0.00000  Uiso   1.00
C251   C     0.60126   0.90701   0.14189   0.00000  Uiso   1.00
C252   C     0.61370   0.89701   0.04436   0.00000  Uiso   1.00
C253   C     0.67642   0.93843   0.01747   0.00000  Uiso   1.00
H254   H     0.66318   0.99747   0.36594   0.00000  Uiso   1.00
H255   H     0.70623   0.87975   0.46805   0.00000  Uiso   1.00
H256   H     0.54687   0.09009   0.41258   0.00000  Uiso   1.00
H257   H     0.74997   0.03649   0.23628   0.00000  Uiso   1.00
H258   H     0.73256   0.72735   0.55117   0.00000  Uiso   1.00
H259   H     0.39654   0.17089   0.43419   0.00000  Uiso   1.00
H260   H     0.82481   0.05786   0.06242   0.00000  Uiso   1.00
H261   H     0.49842   0.82884   0.13393   0.00000  Uiso   1.00
H262   H     0.53243   0.70186   0.22331   0.00000  Uiso   1.00
H263   H     0.37307   0.91220   0.16784   0.00000  Uiso   1.00
H264   H     0.57616   0.85860   0.99154   0.00000  Uiso   1.00
H265   H     0.59149   0.58297   0.35253   0.00000  Uiso   1.00
H266   H     0.25547   0.02651   0.23555   0.00000  Uiso   1.00
H267   H     0.68374   0.91348   0.86378   0.00000  Uiso   1.00
O268   O     0.68735   0.57468   0.51485   0.00000  Uiso   1.00
O269   O     0.24651   0.15659   0.36137   0.00000  Uiso   1.00
O270   O     0.80839   0.00830   0.87362   0.00000  Uiso   1.00
N271   N     0.69470   0.71080   0.49214   0.00000  Uiso   1.00
N272   N     0.38054   0.12547   0.38279   0.00000  Uiso   1.00
N273   N     0.78092   0.01982   0.03521   0.00000  Uiso   1.00
N274   N     0.61880   0.63311   0.38525   0.00000  Uiso   1.00
N275   N     0.30464   0.04778   0.27590   0.00000  Uiso   1.00
N276   N     0.70502   0.94213   0.92832   0.00000  Uiso   1.00
