data_job_01252
_audit_creation_date              2018-12-19
_audit_creation_method            'Materials Studio'
_symmetry_space_group_name_H-M    'P1'
_symmetry_Int_Tables_number       1
_symmetry_cell_setting            triclinic
loop_
_symmetry_equiv_pos_as_xyz
  x,y,z
_cell_length_a                    21.5068
_cell_length_b                    29.8315
_cell_length_c                    10.0091
_cell_angle_alpha                 90.0000
_cell_angle_beta                  133.2420
_cell_angle_gamma                 90.0000
loop_
_atom_site_label
_atom_site_type_symbol
_atom_site_fract_x
_atom_site_fract_y
_atom_site_fract_z
_atom_site_U_iso_or_equiv
_atom_site_adp_type
_atom_site_occupancy
C1     C     0.81292   0.90382   0.93435   0.00000  Uiso   1.00
C2     C     0.85917   0.86816   0.92074   0.00000  Uiso   1.00
C3     C     0.94666   0.86580   0.02903   0.00000  Uiso   1.00
C4     C     0.97648   0.83060   0.99510   0.00000  Uiso   1.00
C5     C     0.05676   0.78005   0.99480   0.00000  Uiso   1.00
C6     C     0.74737   0.92478   0.74414   0.00000  Uiso   1.00
C7     C     0.74086   0.97003   0.70395   0.00000  Uiso   1.00
C8     C     0.67657   0.98250   0.52136   0.00000  Uiso   1.00
C9     C     0.58325   0.01986   0.24690   0.00000  Uiso   1.00
C10    C     0.76189   0.87857   0.96491   0.00000  Uiso   1.00
C11    C     0.76757   0.88498   0.11032   0.00000  Uiso   1.00
C12    C     0.71548   0.85854   0.11359   0.00000  Uiso   1.00
C13    C     0.64471   0.82416   0.18191   0.00000  Uiso   1.00
C14    C     0.71030   0.84551   0.68155   0.00000  Uiso   1.00
C15    C     0.80342   0.83649   0.78342   0.00000  Uiso   1.00
C16    C     0.83312   0.80128   0.74933   0.00000  Uiso   1.00
C17    C     0.92064   0.79886   0.85755   0.00000  Uiso   1.00
C18    C     0.69163   0.89311   0.60683   0.00000  Uiso   1.00
C19    C     0.62733   0.90551   0.42426   0.00000  Uiso   1.00
C20    C     0.62073   0.95077   0.38380   0.00000  Uiso   1.00
C21    C     0.70615   0.84690   0.82760   0.00000  Uiso   1.00
C22    C     0.65404   0.82046   0.83063   0.00000  Uiso   1.00
C23    C     0.65964   0.82681   0.97602   0.00000  Uiso   1.00
H24    H     0.85631   0.92848   0.04124   0.00000  Uiso   1.00
H25    H     0.98977   0.89032   0.13526   0.00000  Uiso   1.00
H26    H     0.78400   0.99453   0.81024   0.00000  Uiso   1.00
H27    H     0.81071   0.90949   0.21655   0.00000  Uiso   1.00
H28    H     0.11315   0.83404   0.17891   0.00000  Uiso   1.00
H29    H     0.67926   0.05379   0.49358   0.00000  Uiso   1.00
H30    H     0.73558   0.87446   0.35038   0.00000  Uiso   1.00
H31    H     0.66690   0.82085   0.57464   0.00000  Uiso   1.00
H32    H     0.78997   0.77678   0.64306   0.00000  Uiso   1.00
H33    H     0.58420   0.88100   0.31804   0.00000  Uiso   1.00
H34    H     0.61091   0.79595   0.72435   0.00000  Uiso   1.00
H35    H     0.95098   0.74189   0.77941   0.00000  Uiso   1.00
H36    H     0.51709   0.96164   0.09409   0.00000  Uiso   1.00
H37    H     0.57342   0.78231   0.95088   0.00000  Uiso   1.00
O38    O     0.11644   0.76092   0.03255   0.00000  Uiso   1.00
O39    O     0.54719   0.04922   0.13344   0.00000  Uiso   1.00
O40    O     0.62109   0.81394   0.25754   0.00000  Uiso   1.00
N41    N     0.05810   0.81840   0.07552   0.00000  Uiso   1.00
N42    N     0.65244   0.02385   0.43478   0.00000  Uiso   1.00
N43    N     0.70509   0.85620   0.23578   0.00000  Uiso   1.00
N44    N     0.97084   0.76881   0.86056   0.00000  Uiso   1.00
N45    N     0.56518   0.97426   0.21982   0.00000  Uiso   1.00
N46    N     0.61783   0.80661   0.02082   0.00000  Uiso   1.00
C47    C     0.31292   0.40382   0.93435   0.00000  Uiso   1.00
C48    C     0.35917   0.36816   0.92074   0.00000  Uiso   1.00
C49    C     0.44666   0.36580   0.02903   0.00000  Uiso   1.00
C50    C     0.47648   0.33060   0.99510   0.00000  Uiso   1.00
C51    C     0.55676   0.28005   0.99480   0.00000  Uiso   1.00
C52    C     0.24737   0.42478   0.74414   0.00000  Uiso   1.00
C53    C     0.24086   0.47003   0.70395   0.00000  Uiso   1.00
C54    C     0.17657   0.48250   0.52136   0.00000  Uiso   1.00
C55    C     0.08325   0.51986   0.24690   0.00000  Uiso   1.00
C56    C     0.26189   0.37857   0.96491   0.00000  Uiso   1.00
C57    C     0.26757   0.38498   0.11032   0.00000  Uiso   1.00
C58    C     0.21548   0.35854   0.11359   0.00000  Uiso   1.00
C59    C     0.14471   0.32416   0.18191   0.00000  Uiso   1.00
C60    C     0.21030   0.34551   0.68155   0.00000  Uiso   1.00
C61    C     0.30342   0.33649   0.78342   0.00000  Uiso   1.00
C62    C     0.33312   0.30128   0.74933   0.00000  Uiso   1.00
C63    C     0.42064   0.29886   0.85755   0.00000  Uiso   1.00
C64    C     0.19163   0.39311   0.60683   0.00000  Uiso   1.00
C65    C     0.12733   0.40551   0.42426   0.00000  Uiso   1.00
C66    C     0.12073   0.45077   0.38380   0.00000  Uiso   1.00
C67    C     0.20615   0.34690   0.82760   0.00000  Uiso   1.00
C68    C     0.15404   0.32046   0.83063   0.00000  Uiso   1.00
C69    C     0.15964   0.32681   0.97602   0.00000  Uiso   1.00
H70    H     0.35631   0.42848   0.04124   0.00000  Uiso   1.00
H71    H     0.48977   0.39032   0.13526   0.00000  Uiso   1.00
H72    H     0.28400   0.49453   0.81024   0.00000  Uiso   1.00
H73    H     0.31071   0.40949   0.21655   0.00000  Uiso   1.00
H74    H     0.61315   0.33404   0.17891   0.00000  Uiso   1.00
H75    H     0.17926   0.55379   0.49358   0.00000  Uiso   1.00
H76    H     0.23558   0.37446   0.35038   0.00000  Uiso   1.00
H77    H     0.16690   0.32085   0.57464   0.00000  Uiso   1.00
H78    H     0.28997   0.27678   0.64306   0.00000  Uiso   1.00
H79    H     0.08420   0.38100   0.31804   0.00000  Uiso   1.00
H80    H     0.11091   0.29595   0.72435   0.00000  Uiso   1.00
H81    H     0.45098   0.24189   0.77941   0.00000  Uiso   1.00
H82    H     0.01709   0.46164   0.09409   0.00000  Uiso   1.00
H83    H     0.07342   0.28231   0.95088   0.00000  Uiso   1.00
O84    O     0.61644   0.26092   0.03255   0.00000  Uiso   1.00
O85    O     0.04719   0.54922   0.13344   0.00000  Uiso   1.00
O86    O     0.12109   0.31394   0.25754   0.00000  Uiso   1.00
N87    N     0.55810   0.31840   0.07552   0.00000  Uiso   1.00
N88    N     0.15244   0.52385   0.43478   0.00000  Uiso   1.00
N89    N     0.20509   0.35620   0.23578   0.00000  Uiso   1.00
N90    N     0.47084   0.26881   0.86056   0.00000  Uiso   1.00
N91    N     0.06518   0.47426   0.21982   0.00000  Uiso   1.00
N92    N     0.11783   0.30661   0.02082   0.00000  Uiso   1.00
C93    C     0.18708   0.90382   0.56565   0.00000  Uiso   1.00
C94    C     0.14083   0.86816   0.57926   0.00000  Uiso   1.00
C95    C     0.05334   0.86580   0.47097   0.00000  Uiso   1.00
C96    C     0.02352   0.83060   0.50490   0.00000  Uiso   1.00
C97    C     0.94324   0.78005   0.50520   0.00000  Uiso   1.00
C98    C     0.25263   0.92478   0.75586   0.00000  Uiso   1.00
C99    C     0.25914   0.97003   0.79605   0.00000  Uiso   1.00
C100   C     0.32343   0.98250   0.97864   0.00000  Uiso   1.00
C101   C     0.41675   0.01986   0.25310   0.00000  Uiso   1.00
C102   C     0.23811   0.87857   0.53509   0.00000  Uiso   1.00
C103   C     0.23243   0.88498   0.38968   0.00000  Uiso   1.00
C104   C     0.28452   0.85854   0.38641   0.00000  Uiso   1.00
C105   C     0.35529   0.82416   0.31809   0.00000  Uiso   1.00
C106   C     0.28970   0.84551   0.81845   0.00000  Uiso   1.00
C107   C     0.19658   0.83649   0.71658   0.00000  Uiso   1.00
C108   C     0.16688   0.80128   0.75067   0.00000  Uiso   1.00
C109   C     0.07936   0.79886   0.64245   0.00000  Uiso   1.00
C110   C     0.30837   0.89311   0.89317   0.00000  Uiso   1.00
C111   C     0.37267   0.90551   0.07574   0.00000  Uiso   1.00
C112   C     0.37927   0.95077   0.11620   0.00000  Uiso   1.00
C113   C     0.29385   0.84690   0.67240   0.00000  Uiso   1.00
C114   C     0.34596   0.82046   0.66937   0.00000  Uiso   1.00
C115   C     0.34036   0.82681   0.52398   0.00000  Uiso   1.00
H116   H     0.14369   0.92848   0.45876   0.00000  Uiso   1.00
H117   H     0.01023   0.89032   0.36474   0.00000  Uiso   1.00
H118   H     0.21600   0.99453   0.68976   0.00000  Uiso   1.00
H119   H     0.18929   0.90949   0.28345   0.00000  Uiso   1.00
H120   H     0.88685   0.83404   0.32109   0.00000  Uiso   1.00
H121   H     0.32074   0.05379   0.00642   0.00000  Uiso   1.00
H122   H     0.26442   0.87446   0.14962   0.00000  Uiso   1.00
H123   H     0.33310   0.82085   0.92536   0.00000  Uiso   1.00
H124   H     0.21003   0.77678   0.85694   0.00000  Uiso   1.00
H125   H     0.41580   0.88100   0.18196   0.00000  Uiso   1.00
H126   H     0.38909   0.79595   0.77565   0.00000  Uiso   1.00
H127   H     0.04902   0.74189   0.72059   0.00000  Uiso   1.00
H128   H     0.48291   0.96164   0.40591   0.00000  Uiso   1.00
H129   H     0.42658   0.78231   0.54912   0.00000  Uiso   1.00
O130   O     0.88356   0.76092   0.46745   0.00000  Uiso   1.00
O131   O     0.45281   0.04922   0.36656   0.00000  Uiso   1.00
O132   O     0.37891   0.81394   0.24246   0.00000  Uiso   1.00
N133   N     0.94190   0.81840   0.42448   0.00000  Uiso   1.00
N134   N     0.34756   0.02385   0.06522   0.00000  Uiso   1.00
N135   N     0.29491   0.85620   0.26422   0.00000  Uiso   1.00
N136   N     0.02916   0.76881   0.63944   0.00000  Uiso   1.00
N137   N     0.43482   0.97426   0.28018   0.00000  Uiso   1.00
N138   N     0.38217   0.80661   0.47918   0.00000  Uiso   1.00
C139   C     0.68708   0.40382   0.56565   0.00000  Uiso   1.00
C140   C     0.64083   0.36816   0.57926   0.00000  Uiso   1.00
C141   C     0.55334   0.36580   0.47097   0.00000  Uiso   1.00
C142   C     0.52352   0.33060   0.50490   0.00000  Uiso   1.00
C143   C     0.44324   0.28005   0.50520   0.00000  Uiso   1.00
C144   C     0.75263   0.42478   0.75586   0.00000  Uiso   1.00
C145   C     0.75914   0.47003   0.79605   0.00000  Uiso   1.00
C146   C     0.82343   0.48250   0.97864   0.00000  Uiso   1.00
C147   C     0.91675   0.51986   0.25310   0.00000  Uiso   1.00
C148   C     0.73811   0.37857   0.53509   0.00000  Uiso   1.00
C149   C     0.73243   0.38498   0.38968   0.00000  Uiso   1.00
C150   C     0.78452   0.35854   0.38641   0.00000  Uiso   1.00
C151   C     0.85529   0.32416   0.31809   0.00000  Uiso   1.00
C152   C     0.78970   0.34551   0.81845   0.00000  Uiso   1.00
C153   C     0.69658   0.33649   0.71658   0.00000  Uiso   1.00
C154   C     0.66688   0.30128   0.75067   0.00000  Uiso   1.00
C155   C     0.57936   0.29886   0.64245   0.00000  Uiso   1.00
C156   C     0.80837   0.39311   0.89317   0.00000  Uiso   1.00
C157   C     0.87267   0.40551   0.07574   0.00000  Uiso   1.00
C158   C     0.87927   0.45077   0.11620   0.00000  Uiso   1.00
C159   C     0.79385   0.34690   0.67240   0.00000  Uiso   1.00
C160   C     0.84596   0.32046   0.66937   0.00000  Uiso   1.00
C161   C     0.84036   0.32681   0.52398   0.00000  Uiso   1.00
H162   H     0.64369   0.42848   0.45876   0.00000  Uiso   1.00
H163   H     0.51023   0.39032   0.36474   0.00000  Uiso   1.00
H164   H     0.71600   0.49453   0.68976   0.00000  Uiso   1.00
H165   H     0.68929   0.40949   0.28345   0.00000  Uiso   1.00
H166   H     0.38685   0.33404   0.32109   0.00000  Uiso   1.00
H167   H     0.82074   0.55379   0.00642   0.00000  Uiso   1.00
H168   H     0.76442   0.37446   0.14962   0.00000  Uiso   1.00
H169   H     0.83310   0.32085   0.92536   0.00000  Uiso   1.00
H170   H     0.71003   0.27678   0.85694   0.00000  Uiso   1.00
H171   H     0.91580   0.38100   0.18196   0.00000  Uiso   1.00
H172   H     0.88909   0.29595   0.77565   0.00000  Uiso   1.00
H173   H     0.54902   0.24189   0.72059   0.00000  Uiso   1.00
H174   H     0.98291   0.46164   0.40591   0.00000  Uiso   1.00
H175   H     0.92658   0.28231   0.54912   0.00000  Uiso   1.00
O176   O     0.38356   0.26092   0.46745   0.00000  Uiso   1.00
O177   O     0.95281   0.54922   0.36656   0.00000  Uiso   1.00
O178   O     0.87891   0.31394   0.24246   0.00000  Uiso   1.00
N179   N     0.44190   0.31840   0.42448   0.00000  Uiso   1.00
N180   N     0.84756   0.52385   0.06522   0.00000  Uiso   1.00
N181   N     0.79491   0.35620   0.26422   0.00000  Uiso   1.00
N182   N     0.52916   0.26881   0.63944   0.00000  Uiso   1.00
N183   N     0.93482   0.47426   0.28018   0.00000  Uiso   1.00
N184   N     0.88217   0.30661   0.47918   0.00000  Uiso   1.00
C185   C     0.18708   0.09618   0.06565   0.00000  Uiso   1.00
C186   C     0.14083   0.13184   0.07926   0.00000  Uiso   1.00
C187   C     0.05334   0.13420   0.97097   0.00000  Uiso   1.00
C188   C     0.02352   0.16940   0.00490   0.00000  Uiso   1.00
C189   C     0.94324   0.21995   0.00520   0.00000  Uiso   1.00
C190   C     0.25263   0.07522   0.25586   0.00000  Uiso   1.00
C191   C     0.25914   0.02997   0.29605   0.00000  Uiso   1.00
C192   C     0.32343   0.01750   0.47864   0.00000  Uiso   1.00
C193   C     0.41675   0.98014   0.75310   0.00000  Uiso   1.00
C194   C     0.23811   0.12143   0.03509   0.00000  Uiso   1.00
C195   C     0.23243   0.11502   0.88968   0.00000  Uiso   1.00
C196   C     0.28452   0.14146   0.88641   0.00000  Uiso   1.00
C197   C     0.35529   0.17584   0.81809   0.00000  Uiso   1.00
C198   C     0.28970   0.15449   0.31845   0.00000  Uiso   1.00
C199   C     0.19658   0.16351   0.21658   0.00000  Uiso   1.00
C200   C     0.16688   0.19872   0.25067   0.00000  Uiso   1.00
C201   C     0.07936   0.20114   0.14245   0.00000  Uiso   1.00
C202   C     0.30837   0.10689   0.39317   0.00000  Uiso   1.00
C203   C     0.37267   0.09449   0.57574   0.00000  Uiso   1.00
C204   C     0.37927   0.04923   0.61620   0.00000  Uiso   1.00
C205   C     0.29385   0.15310   0.17240   0.00000  Uiso   1.00
C206   C     0.34596   0.17954   0.16937   0.00000  Uiso   1.00
C207   C     0.34036   0.17319   0.02398   0.00000  Uiso   1.00
H208   H     0.14369   0.07152   0.95876   0.00000  Uiso   1.00
H209   H     0.01023   0.10968   0.86474   0.00000  Uiso   1.00
H210   H     0.21600   0.00547   0.18976   0.00000  Uiso   1.00
H211   H     0.18929   0.09051   0.78345   0.00000  Uiso   1.00
H212   H     0.88685   0.16596   0.82109   0.00000  Uiso   1.00
H213   H     0.32074   0.94621   0.50642   0.00000  Uiso   1.00
H214   H     0.26442   0.12554   0.64962   0.00000  Uiso   1.00
H215   H     0.33310   0.17915   0.42536   0.00000  Uiso   1.00
H216   H     0.21003   0.22322   0.35694   0.00000  Uiso   1.00
H217   H     0.41580   0.11900   0.68196   0.00000  Uiso   1.00
H218   H     0.38909   0.20405   0.27565   0.00000  Uiso   1.00
H219   H     0.04902   0.25811   0.22059   0.00000  Uiso   1.00
H220   H     0.48291   0.03836   0.90591   0.00000  Uiso   1.00
H221   H     0.42658   0.21769   0.04912   0.00000  Uiso   1.00
O222   O     0.88356   0.23908   0.96745   0.00000  Uiso   1.00
O223   O     0.45281   0.95078   0.86656   0.00000  Uiso   1.00
O224   O     0.37891   0.18606   0.74246   0.00000  Uiso   1.00
N225   N     0.94190   0.18160   0.92448   0.00000  Uiso   1.00
N226   N     0.34756   0.97615   0.56522   0.00000  Uiso   1.00
N227   N     0.29491   0.14380   0.76422   0.00000  Uiso   1.00
N228   N     0.02916   0.23119   0.13944   0.00000  Uiso   1.00
N229   N     0.43482   0.02574   0.78018   0.00000  Uiso   1.00
N230   N     0.38217   0.19339   0.97918   0.00000  Uiso   1.00
C231   C     0.68708   0.59618   0.06565   0.00000  Uiso   1.00
C232   C     0.64083   0.63184   0.07926   0.00000  Uiso   1.00
C233   C     0.55334   0.63420   0.97097   0.00000  Uiso   1.00
C234   C     0.52352   0.66940   0.00490   0.00000  Uiso   1.00
C235   C     0.44324   0.71995   0.00520   0.00000  Uiso   1.00
C236   C     0.75263   0.57522   0.25586   0.00000  Uiso   1.00
C237   C     0.75914   0.52997   0.29605   0.00000  Uiso   1.00
C238   C     0.82343   0.51750   0.47864   0.00000  Uiso   1.00
C239   C     0.91675   0.48014   0.75310   0.00000  Uiso   1.00
C240   C     0.73811   0.62143   0.03509   0.00000  Uiso   1.00
C241   C     0.73243   0.61502   0.88968   0.00000  Uiso   1.00
C242   C     0.78452   0.64146   0.88641   0.00000  Uiso   1.00
C243   C     0.85529   0.67584   0.81809   0.00000  Uiso   1.00
C244   C     0.78970   0.65449   0.31845   0.00000  Uiso   1.00
C245   C     0.69658   0.66351   0.21658   0.00000  Uiso   1.00
C246   C     0.66688   0.69872   0.25067   0.00000  Uiso   1.00
C247   C     0.57936   0.70114   0.14245   0.00000  Uiso   1.00
C248   C     0.80837   0.60689   0.39317   0.00000  Uiso   1.00
C249   C     0.87267   0.59449   0.57574   0.00000  Uiso   1.00
C250   C     0.87927   0.54923   0.61620   0.00000  Uiso   1.00
C251   C     0.79385   0.65310   0.17240   0.00000  Uiso   1.00
C252   C     0.84596   0.67954   0.16937   0.00000  Uiso   1.00
C253   C     0.84036   0.67319   0.02398   0.00000  Uiso   1.00
H254   H     0.64369   0.57152   0.95876   0.00000  Uiso   1.00
H255   H     0.51023   0.60968   0.86474   0.00000  Uiso   1.00
H256   H     0.71600   0.50547   0.18976   0.00000  Uiso   1.00
H257   H     0.68929   0.59051   0.78345   0.00000  Uiso   1.00
H258   H     0.38685   0.66596   0.82109   0.00000  Uiso   1.00
H259   H     0.82074   0.44621   0.50642   0.00000  Uiso   1.00
H260   H     0.76442   0.62554   0.64962   0.00000  Uiso   1.00
H261   H     0.83310   0.67915   0.42536   0.00000  Uiso   1.00
H262   H     0.71003   0.72322   0.35694   0.00000  Uiso   1.00
H263   H     0.91580   0.61900   0.68196   0.00000  Uiso   1.00
H264   H     0.88909   0.70405   0.27565   0.00000  Uiso   1.00
H265   H     0.54902   0.75811   0.22059   0.00000  Uiso   1.00
H266   H     0.98291   0.53836   0.90591   0.00000  Uiso   1.00
H267   H     0.92658   0.71769   0.04912   0.00000  Uiso   1.00
O268   O     0.38356   0.73908   0.96745   0.00000  Uiso   1.00
O269   O     0.95281   0.45078   0.86656   0.00000  Uiso   1.00
O270   O     0.87891   0.68606   0.74246   0.00000  Uiso   1.00
N271   N     0.44190   0.68160   0.92448   0.00000  Uiso   1.00
N272   N     0.84756   0.47615   0.56522   0.00000  Uiso   1.00
N273   N     0.79491   0.64380   0.76422   0.00000  Uiso   1.00
N274   N     0.52916   0.73119   0.13944   0.00000  Uiso   1.00
N275   N     0.93482   0.52574   0.78018   0.00000  Uiso   1.00
N276   N     0.88217   0.69339   0.97918   0.00000  Uiso   1.00
C277   C     0.81292   0.09618   0.43435   0.00000  Uiso   1.00
C278   C     0.85917   0.13184   0.42074   0.00000  Uiso   1.00
C279   C     0.94666   0.13420   0.52903   0.00000  Uiso   1.00
C280   C     0.97648   0.16940   0.49510   0.00000  Uiso   1.00
C281   C     0.05676   0.21995   0.49480   0.00000  Uiso   1.00
C282   C     0.74737   0.07522   0.24414   0.00000  Uiso   1.00
C283   C     0.74086   0.02997   0.20395   0.00000  Uiso   1.00
C284   C     0.67657   0.01750   0.02136   0.00000  Uiso   1.00
C285   C     0.58325   0.98014   0.74690   0.00000  Uiso   1.00
C286   C     0.76189   0.12143   0.46491   0.00000  Uiso   1.00
C287   C     0.76757   0.11502   0.61032   0.00000  Uiso   1.00
C288   C     0.71548   0.14146   0.61359   0.00000  Uiso   1.00
C289   C     0.64471   0.17584   0.68191   0.00000  Uiso   1.00
C290   C     0.71030   0.15449   0.18155   0.00000  Uiso   1.00
C291   C     0.80342   0.16351   0.28342   0.00000  Uiso   1.00
C292   C     0.83312   0.19872   0.24933   0.00000  Uiso   1.00
C293   C     0.92064   0.20114   0.35755   0.00000  Uiso   1.00
C294   C     0.69163   0.10689   0.10683   0.00000  Uiso   1.00
C295   C     0.62733   0.09449   0.92426   0.00000  Uiso   1.00
C296   C     0.62073   0.04923   0.88380   0.00000  Uiso   1.00
C297   C     0.70615   0.15310   0.32760   0.00000  Uiso   1.00
C298   C     0.65404   0.17954   0.33063   0.00000  Uiso   1.00
C299   C     0.65964   0.17319   0.47602   0.00000  Uiso   1.00
H300   H     0.85631   0.07152   0.54124   0.00000  Uiso   1.00
H301   H     0.98977   0.10968   0.63526   0.00000  Uiso   1.00
H302   H     0.78400   0.00547   0.31024   0.00000  Uiso   1.00
H303   H     0.81071   0.09051   0.71655   0.00000  Uiso   1.00
H304   H     0.11315   0.16596   0.67891   0.00000  Uiso   1.00
H305   H     0.67926   0.94621   0.99358   0.00000  Uiso   1.00
H306   H     0.73558   0.12554   0.85038   0.00000  Uiso   1.00
H307   H     0.66690   0.17915   0.07464   0.00000  Uiso   1.00
H308   H     0.78997   0.22322   0.14306   0.00000  Uiso   1.00
H309   H     0.58420   0.11900   0.81804   0.00000  Uiso   1.00
H310   H     0.61091   0.20405   0.22435   0.00000  Uiso   1.00
H311   H     0.95098   0.25811   0.27941   0.00000  Uiso   1.00
H312   H     0.51709   0.03836   0.59409   0.00000  Uiso   1.00
H313   H     0.57342   0.21769   0.45088   0.00000  Uiso   1.00
O314   O     0.11644   0.23908   0.53255   0.00000  Uiso   1.00
O315   O     0.54719   0.95078   0.63344   0.00000  Uiso   1.00
O316   O     0.62109   0.18606   0.75754   0.00000  Uiso   1.00
N317   N     0.05810   0.18160   0.57552   0.00000  Uiso   1.00
N318   N     0.65244   0.97615   0.93478   0.00000  Uiso   1.00
N319   N     0.70509   0.14380   0.73578   0.00000  Uiso   1.00
N320   N     0.97084   0.23119   0.36056   0.00000  Uiso   1.00
N321   N     0.56518   0.02574   0.71982   0.00000  Uiso   1.00
N322   N     0.61783   0.19339   0.52082   0.00000  Uiso   1.00
C323   C     0.31292   0.59618   0.43435   0.00000  Uiso   1.00
C324   C     0.35917   0.63184   0.42074   0.00000  Uiso   1.00
C325   C     0.44666   0.63420   0.52903   0.00000  Uiso   1.00
C326   C     0.47648   0.66940   0.49510   0.00000  Uiso   1.00
C327   C     0.55676   0.71995   0.49480   0.00000  Uiso   1.00
C328   C     0.24737   0.57522   0.24414   0.00000  Uiso   1.00
C329   C     0.24086   0.52997   0.20395   0.00000  Uiso   1.00
C330   C     0.17657   0.51750   0.02136   0.00000  Uiso   1.00
C331   C     0.08325   0.48014   0.74690   0.00000  Uiso   1.00
C332   C     0.26189   0.62143   0.46491   0.00000  Uiso   1.00
C333   C     0.26757   0.61502   0.61032   0.00000  Uiso   1.00
C334   C     0.21548   0.64146   0.61359   0.00000  Uiso   1.00
C335   C     0.14471   0.67584   0.68191   0.00000  Uiso   1.00
C336   C     0.21030   0.65449   0.18155   0.00000  Uiso   1.00
C337   C     0.30342   0.66351   0.28342   0.00000  Uiso   1.00
C338   C     0.33312   0.69872   0.24933   0.00000  Uiso   1.00
C339   C     0.42064   0.70114   0.35755   0.00000  Uiso   1.00
C340   C     0.19163   0.60689   0.10683   0.00000  Uiso   1.00
C341   C     0.12733   0.59449   0.92426   0.00000  Uiso   1.00
C342   C     0.12073   0.54923   0.88380   0.00000  Uiso   1.00
C343   C     0.20615   0.65310   0.32760   0.00000  Uiso   1.00
C344   C     0.15404   0.67954   0.33063   0.00000  Uiso   1.00
C345   C     0.15964   0.67319   0.47602   0.00000  Uiso   1.00
H346   H     0.35631   0.57152   0.54124   0.00000  Uiso   1.00
H347   H     0.48977   0.60968   0.63526   0.00000  Uiso   1.00
H348   H     0.28400   0.50547   0.31024   0.00000  Uiso   1.00
H349   H     0.31071   0.59051   0.71655   0.00000  Uiso   1.00
H350   H     0.61315   0.66596   0.67891   0.00000  Uiso   1.00
H351   H     0.17926   0.44621   0.99358   0.00000  Uiso   1.00
H352   H     0.23558   0.62554   0.85038   0.00000  Uiso   1.00
H353   H     0.16690   0.67915   0.07464   0.00000  Uiso   1.00
H354   H     0.28997   0.72322   0.14306   0.00000  Uiso   1.00
H355   H     0.08420   0.61900   0.81804   0.00000  Uiso   1.00
H356   H     0.11091   0.70405   0.22435   0.00000  Uiso   1.00
H357   H     0.45098   0.75811   0.27941   0.00000  Uiso   1.00
H358   H     0.01709   0.53836   0.59409   0.00000  Uiso   1.00
H359   H     0.07342   0.71769   0.45088   0.00000  Uiso   1.00
O360   O     0.61644   0.73908   0.53255   0.00000  Uiso   1.00
O361   O     0.04719   0.45078   0.63344   0.00000  Uiso   1.00
O362   O     0.12109   0.68606   0.75754   0.00000  Uiso   1.00
N363   N     0.55810   0.68160   0.57552   0.00000  Uiso   1.00
N364   N     0.15244   0.47615   0.93478   0.00000  Uiso   1.00
N365   N     0.20509   0.64380   0.73578   0.00000  Uiso   1.00
N366   N     0.47084   0.73119   0.36056   0.00000  Uiso   1.00
N367   N     0.06518   0.52574   0.71982   0.00000  Uiso   1.00
N368   N     0.11783   0.69339   0.52082   0.00000  Uiso   1.00
