data_job_00835
_audit_creation_date              2018-12-19
_audit_creation_method            'Materials Studio'
_symmetry_space_group_name_H-M    'P1'
_symmetry_Int_Tables_number       1
_symmetry_cell_setting            triclinic
loop_
_symmetry_equiv_pos_as_xyz
  x,y,z
_cell_length_a                    11.4608
_cell_length_b                    19.6037
_cell_length_c                    9.7300
_cell_angle_alpha                 90.0000
_cell_angle_beta                  90.0000
_cell_angle_gamma                 90.0000
loop_
_atom_site_label
_atom_site_type_symbol
_atom_site_fract_x
_atom_site_fract_y
_atom_site_fract_z
_atom_site_U_iso_or_equiv
_atom_site_adp_type
_atom_site_occupancy
C1     C     0.26421   0.25500   0.49600   0.00000  Uiso   1.00
C2     C     0.18636   0.21291   0.59067   0.00000  Uiso   1.00
C3     C     0.19277   0.14283   0.60940   0.00000  Uiso   1.00
C4     C     0.11375   0.11390   0.70049   0.00000  Uiso   1.00
C5     C     0.00538   0.04248   0.83683   0.00000  Uiso   1.00
C6     C     0.18215   0.29280   0.39894   0.00000  Uiso   1.00
C7     C     0.18503   0.28990   0.25646   0.00000  Uiso   1.00
C8     C     0.10246   0.32823   0.18616   0.00000  Uiso   1.00
C9     C     0.98760   0.38088   0.02483   0.00000  Uiso   1.00
C10    C     0.32013   0.30948   0.58642   0.00000  Uiso   1.00
C11    C     0.43902   0.32062   0.60155   0.00000  Uiso   1.00
C12    C     0.47263   0.37300   0.68907   0.00000  Uiso   1.00
C13    C     0.57200   0.45155   0.81882   0.00000  Uiso   1.00
C14    C     0.11248   0.32823   0.62448   0.00000  Uiso   1.00
C15    C     0.10395   0.25269   0.66045   0.00000  Uiso   1.00
C16    C     0.02490   0.22385   0.75155   0.00000  Uiso   1.00
C17    C     0.03119   0.15374   0.77041   0.00000  Uiso   1.00
C18    C     0.09973   0.33258   0.46872   0.00000  Uiso   1.00
C19    C     0.01715   0.37092   0.39861   0.00000  Uiso   1.00
C20    C     0.01990   0.36807   0.25607   0.00000  Uiso   1.00
C21    C     0.23772   0.34926   0.65621   0.00000  Uiso   1.00
C22    C     0.27114   0.40164   0.74371   0.00000  Uiso   1.00
C23    C     0.39006   0.41285   0.75897   0.00000  Uiso   1.00
H24    H     0.32837   0.22404   0.44166   0.00000  Uiso   1.00
H25    H     0.25656   0.11207   0.55536   0.00000  Uiso   1.00
H26    H     0.24882   0.25912   0.20249   0.00000  Uiso   1.00
H27    H     0.50277   0.28983   0.54753   0.00000  Uiso   1.00
H28    H     0.14057   0.00547   0.71216   0.00000  Uiso   1.00
H29    H     0.12428   0.31555   0.96811   0.00000  Uiso   1.00
H30    H     0.65979   0.38031   0.69568   0.00000  Uiso   1.00
H31    H     0.04831   0.35920   0.67881   0.00000  Uiso   1.00
H32    H     0.96113   0.25465   0.80554   0.00000  Uiso   1.00
H33    H     0.95339   0.40170   0.45265   0.00000  Uiso   1.00
H34    H     0.20734   0.43241   0.79769   0.00000  Uiso   1.00
H35    H     0.90078   0.12119   0.91521   0.00000  Uiso   1.00
H36    H     0.88450   0.43127   0.17114   0.00000  Uiso   1.00
H37    H     0.42001   0.49603   0.89873   0.00000  Uiso   1.00
O38    O     0.96835   0.99210   0.89274   0.00000  Uiso   1.00
O39    O     0.94700   0.39893   0.91656   0.00000  Uiso   1.00
O40    O     0.64957   0.48389   0.87113   0.00000  Uiso   1.00
N41    N     0.09611   0.04705   0.74258   0.00000  Uiso   1.00
N42    N     0.08087   0.33695   0.04693   0.00000  Uiso   1.00
N43    N     0.58153   0.39751   0.72712   0.00000  Uiso   1.00
N44    N     0.96709   0.10932   0.85184   0.00000  Uiso   1.00
N45    N     0.95185   0.39922   0.15619   0.00000  Uiso   1.00
N46    N     0.45251   0.45977   0.83638   0.00000  Uiso   1.00
C47    C     0.23579   0.74500   0.99600   0.00000  Uiso   1.00
C48    C     0.31364   0.78709   0.09067   0.00000  Uiso   1.00
C49    C     0.30723   0.85717   0.10940   0.00000  Uiso   1.00
C50    C     0.38625   0.88610   0.20049   0.00000  Uiso   1.00
C51    C     0.49462   0.95752   0.33683   0.00000  Uiso   1.00
C52    C     0.31785   0.70720   0.89894   0.00000  Uiso   1.00
C53    C     0.31497   0.71010   0.75646   0.00000  Uiso   1.00
C54    C     0.39754   0.67177   0.68616   0.00000  Uiso   1.00
C55    C     0.51240   0.61912   0.52483   0.00000  Uiso   1.00
C56    C     0.17987   0.69052   0.08642   0.00000  Uiso   1.00
C57    C     0.06098   0.67938   0.10155   0.00000  Uiso   1.00
C58    C     0.02737   0.62700   0.18907   0.00000  Uiso   1.00
C59    C     0.92800   0.54845   0.31882   0.00000  Uiso   1.00
C60    C     0.38752   0.67177   0.12448   0.00000  Uiso   1.00
C61    C     0.39605   0.74731   0.16045   0.00000  Uiso   1.00
C62    C     0.47510   0.77615   0.25155   0.00000  Uiso   1.00
C63    C     0.46881   0.84626   0.27041   0.00000  Uiso   1.00
C64    C     0.40027   0.66742   0.96872   0.00000  Uiso   1.00
C65    C     0.48285   0.62908   0.89861   0.00000  Uiso   1.00
C66    C     0.48010   0.63193   0.75607   0.00000  Uiso   1.00
C67    C     0.26228   0.65074   0.15621   0.00000  Uiso   1.00
C68    C     0.22886   0.59836   0.24371   0.00000  Uiso   1.00
C69    C     0.10994   0.58715   0.25897   0.00000  Uiso   1.00
H70    H     0.17163   0.77596   0.94166   0.00000  Uiso   1.00
H71    H     0.24344   0.88793   0.05536   0.00000  Uiso   1.00
H72    H     0.25118   0.74088   0.70249   0.00000  Uiso   1.00
H73    H     0.99723   0.71017   0.04753   0.00000  Uiso   1.00
H74    H     0.35943   0.99453   0.21216   0.00000  Uiso   1.00
H75    H     0.37572   0.68445   0.46811   0.00000  Uiso   1.00
H76    H     0.84021   0.61969   0.19568   0.00000  Uiso   1.00
H77    H     0.45169   0.64080   0.17881   0.00000  Uiso   1.00
H78    H     0.53887   0.74535   0.30554   0.00000  Uiso   1.00
H79    H     0.54661   0.59830   0.95265   0.00000  Uiso   1.00
H80    H     0.29266   0.56759   0.29769   0.00000  Uiso   1.00
H81    H     0.59922   0.87881   0.41521   0.00000  Uiso   1.00
H82    H     0.61550   0.56873   0.67114   0.00000  Uiso   1.00
H83    H     0.07999   0.50397   0.39873   0.00000  Uiso   1.00
O84    O     0.53165   0.00790   0.39274   0.00000  Uiso   1.00
O85    O     0.55300   0.60107   0.41656   0.00000  Uiso   1.00
O86    O     0.85043   0.51611   0.37113   0.00000  Uiso   1.00
N87    N     0.40389   0.95295   0.24258   0.00000  Uiso   1.00
N88    N     0.41913   0.66305   0.54693   0.00000  Uiso   1.00
N89    N     0.91847   0.60249   0.22712   0.00000  Uiso   1.00
N90    N     0.53291   0.89068   0.35184   0.00000  Uiso   1.00
N91    N     0.54815   0.60078   0.65619   0.00000  Uiso   1.00
N92    N     0.04749   0.54023   0.33638   0.00000  Uiso   1.00
C93    C     0.73579   0.75500   0.00400   0.00000  Uiso   1.00
C94    C     0.81364   0.71291   0.90933   0.00000  Uiso   1.00
C95    C     0.80723   0.64283   0.89060   0.00000  Uiso   1.00
C96    C     0.88625   0.61390   0.79951   0.00000  Uiso   1.00
C97    C     0.99462   0.54248   0.66317   0.00000  Uiso   1.00
C98    C     0.81785   0.79280   0.10106   0.00000  Uiso   1.00
C99    C     0.81497   0.78990   0.24354   0.00000  Uiso   1.00
C100   C     0.89754   0.82823   0.31384   0.00000  Uiso   1.00
C101   C     0.01240   0.88088   0.47517   0.00000  Uiso   1.00
C102   C     0.67987   0.80948   0.91358   0.00000  Uiso   1.00
C103   C     0.56098   0.82062   0.89845   0.00000  Uiso   1.00
C104   C     0.52737   0.87300   0.81093   0.00000  Uiso   1.00
C105   C     0.42800   0.95155   0.68118   0.00000  Uiso   1.00
C106   C     0.88752   0.82823   0.87552   0.00000  Uiso   1.00
C107   C     0.89605   0.75269   0.83955   0.00000  Uiso   1.00
C108   C     0.97510   0.72385   0.74845   0.00000  Uiso   1.00
C109   C     0.96881   0.65374   0.72959   0.00000  Uiso   1.00
C110   C     0.90027   0.83258   0.03128   0.00000  Uiso   1.00
C111   C     0.98285   0.87092   0.10139   0.00000  Uiso   1.00
C112   C     0.98010   0.86807   0.24393   0.00000  Uiso   1.00
C113   C     0.76228   0.84926   0.84379   0.00000  Uiso   1.00
C114   C     0.72886   0.90164   0.75629   0.00000  Uiso   1.00
C115   C     0.60994   0.91285   0.74103   0.00000  Uiso   1.00
H116   H     0.67163   0.72404   0.05834   0.00000  Uiso   1.00
H117   H     0.74344   0.61207   0.94464   0.00000  Uiso   1.00
H118   H     0.75118   0.75912   0.29751   0.00000  Uiso   1.00
H119   H     0.49723   0.78983   0.95247   0.00000  Uiso   1.00
H120   H     0.85943   0.50547   0.78784   0.00000  Uiso   1.00
H121   H     0.87572   0.81555   0.53189   0.00000  Uiso   1.00
H122   H     0.34021   0.88031   0.80432   0.00000  Uiso   1.00
H123   H     0.95169   0.85920   0.82119   0.00000  Uiso   1.00
H124   H     0.03887   0.75465   0.69446   0.00000  Uiso   1.00
H125   H     0.04661   0.90170   0.04735   0.00000  Uiso   1.00
H126   H     0.79266   0.93241   0.70231   0.00000  Uiso   1.00
H127   H     0.09922   0.62119   0.58479   0.00000  Uiso   1.00
H128   H     0.11550   0.93127   0.32886   0.00000  Uiso   1.00
H129   H     0.57999   0.99603   0.60127   0.00000  Uiso   1.00
O130   O     0.03165   0.49210   0.60726   0.00000  Uiso   1.00
O131   O     0.05300   0.89893   0.58344   0.00000  Uiso   1.00
O132   O     0.35043   0.98389   0.62887   0.00000  Uiso   1.00
N133   N     0.90389   0.54705   0.75742   0.00000  Uiso   1.00
N134   N     0.91913   0.83695   0.45307   0.00000  Uiso   1.00
N135   N     0.41847   0.89751   0.77288   0.00000  Uiso   1.00
N136   N     0.03291   0.60932   0.64816   0.00000  Uiso   1.00
N137   N     0.04815   0.89922   0.34381   0.00000  Uiso   1.00
N138   N     0.54749   0.95977   0.66362   0.00000  Uiso   1.00
C139   C     0.76421   0.24500   0.50400   0.00000  Uiso   1.00
C140   C     0.68636   0.28709   0.40933   0.00000  Uiso   1.00
C141   C     0.69277   0.35717   0.39060   0.00000  Uiso   1.00
C142   C     0.61375   0.38610   0.29951   0.00000  Uiso   1.00
C143   C     0.50538   0.45752   0.16317   0.00000  Uiso   1.00
C144   C     0.68215   0.20720   0.60106   0.00000  Uiso   1.00
C145   C     0.68503   0.21010   0.74354   0.00000  Uiso   1.00
C146   C     0.60246   0.17177   0.81384   0.00000  Uiso   1.00
C147   C     0.48760   0.11912   0.97517   0.00000  Uiso   1.00
C148   C     0.82013   0.19052   0.41358   0.00000  Uiso   1.00
C149   C     0.93902   0.17938   0.39845   0.00000  Uiso   1.00
C150   C     0.97263   0.12700   0.31093   0.00000  Uiso   1.00
C151   C     0.07200   0.04845   0.18118   0.00000  Uiso   1.00
C152   C     0.61248   0.17177   0.37552   0.00000  Uiso   1.00
C153   C     0.60395   0.24731   0.33955   0.00000  Uiso   1.00
C154   C     0.52490   0.27615   0.24845   0.00000  Uiso   1.00
C155   C     0.53119   0.34626   0.22959   0.00000  Uiso   1.00
C156   C     0.59973   0.16742   0.53128   0.00000  Uiso   1.00
C157   C     0.51715   0.12908   0.60139   0.00000  Uiso   1.00
C158   C     0.51990   0.13193   0.74393   0.00000  Uiso   1.00
C159   C     0.73772   0.15074   0.34379   0.00000  Uiso   1.00
C160   C     0.77114   0.09836   0.25629   0.00000  Uiso   1.00
C161   C     0.89006   0.08715   0.24103   0.00000  Uiso   1.00
H162   H     0.82837   0.27596   0.55834   0.00000  Uiso   1.00
H163   H     0.75656   0.38793   0.44464   0.00000  Uiso   1.00
H164   H     0.74882   0.24088   0.79751   0.00000  Uiso   1.00
H165   H     0.00277   0.21017   0.45247   0.00000  Uiso   1.00
H166   H     0.64057   0.49453   0.28784   0.00000  Uiso   1.00
H167   H     0.62428   0.18445   0.03189   0.00000  Uiso   1.00
H168   H     0.15979   0.11969   0.30432   0.00000  Uiso   1.00
H169   H     0.54831   0.14080   0.32119   0.00000  Uiso   1.00
H170   H     0.46113   0.24535   0.19446   0.00000  Uiso   1.00
H171   H     0.45339   0.09830   0.54735   0.00000  Uiso   1.00
H172   H     0.70734   0.06759   0.20231   0.00000  Uiso   1.00
H173   H     0.40078   0.37881   0.08479   0.00000  Uiso   1.00
H174   H     0.38450   0.06873   0.82886   0.00000  Uiso   1.00
H175   H     0.92001   0.00397   0.10127   0.00000  Uiso   1.00
O176   O     0.46835   0.50790   0.10726   0.00000  Uiso   1.00
O177   O     0.44700   0.10107   0.08344   0.00000  Uiso   1.00
O178   O     0.14957   0.01611   0.12887   0.00000  Uiso   1.00
N179   N     0.59611   0.45295   0.25742   0.00000  Uiso   1.00
N180   N     0.58087   0.16305   0.95307   0.00000  Uiso   1.00
N181   N     0.08153   0.10249   0.27288   0.00000  Uiso   1.00
N182   N     0.46709   0.39068   0.14816   0.00000  Uiso   1.00
N183   N     0.45185   0.10078   0.84381   0.00000  Uiso   1.00
N184   N     0.95251   0.04023   0.16362   0.00000  Uiso   1.00
