data_job_06398
_audit_creation_date              2018-12-19
_audit_creation_method            'Materials Studio'
_symmetry_space_group_name_H-M    'P1'
_symmetry_Int_Tables_number       1
_symmetry_cell_setting            triclinic
loop_
_symmetry_equiv_pos_as_xyz
  x,y,z
_cell_length_a                    11.9473
_cell_length_b                    22.5135
_cell_length_c                    22.6363
_cell_angle_alpha                 116.9060
_cell_angle_beta                  79.8497
_cell_angle_gamma                 80.6179
loop_
_atom_site_label
_atom_site_type_symbol
_atom_site_fract_x
_atom_site_fract_y
_atom_site_fract_z
_atom_site_U_iso_or_equiv
_atom_site_adp_type
_atom_site_occupancy
C1     C     0.06242   0.61084   0.16627   0.00000  Uiso   1.00
C2     C     0.01315   0.65856   0.24421   0.00000  Uiso   1.00
C3     C     0.96631   0.63946   0.29146   0.00000  Uiso   1.00
C4     C     0.92582   0.69074   0.36049   0.00000  Uiso   1.00
C5     C     0.84832   0.75452   0.47832   0.00000  Uiso   1.00
C6     C     0.99313   0.64470   0.13375   0.00000  Uiso   1.00
C7     C     0.92947   0.61393   0.08812   0.00000  Uiso   1.00
C8     C     0.87215   0.65355   0.06416   0.00000  Uiso   1.00
C9     C     0.76364   0.69578   0.01045   0.00000  Uiso   1.00
C10    C     0.18878   0.61495   0.14730   0.00000  Uiso   1.00
C11    C     0.28963   0.55917   0.11305   0.00000  Uiso   1.00
C12    C     0.39703   0.57374   0.10049   0.00000  Uiso   1.00
C13    C     0.59230   0.56978   0.06782   0.00000  Uiso   1.00
C14    C     0.07382   0.73588   0.20485   0.00000  Uiso   1.00
C15    C     0.01934   0.72648   0.26516   0.00000  Uiso   1.00
C16    C     0.97892   0.77780   0.33414   0.00000  Uiso   1.00
C17    C     0.93203   0.75878   0.38149   0.00000  Uiso   1.00
C18    C     0.99932   0.71261   0.15470   0.00000  Uiso   1.00
C19    C     0.94208   0.75228   0.13080   0.00000  Uiso   1.00
C20    C     0.87835   0.72158   0.08516   0.00000  Uiso   1.00
C21    C     0.19498   0.68287   0.16826   0.00000  Uiso   1.00
C22    C     0.30224   0.69751   0.15574   0.00000  Uiso   1.00
C23    C     0.40324   0.64177   0.12148   0.00000  Uiso   1.00
H24    H     0.05760   0.55796   0.14995   0.00000  Uiso   1.00
H25    H     0.96152   0.58690   0.27522   0.00000  Uiso   1.00
H26    H     0.92471   0.56138   0.07191   0.00000  Uiso   1.00
H27    H     0.28481   0.50662   0.09684   0.00000  Uiso   1.00
H28    H     0.85770   0.64893   0.42334   0.00000  Uiso   1.00
H29    H     0.78010   0.59511   0.99462   0.00000  Uiso   1.00
H30    H     0.53944   0.47965   0.04719   0.00000  Uiso   1.00
H31    H     0.07864   0.78875   0.22117   0.00000  Uiso   1.00
H32    H     0.98372   0.83035   0.35035   0.00000  Uiso   1.00
H33    H     0.94690   0.80483   0.14703   0.00000  Uiso   1.00
H34    H     0.30700   0.75008   0.17196   0.00000  Uiso   1.00
H35    H     0.87571   0.84653   0.48431   0.00000  Uiso   1.00
H36    H     0.79811   0.79270   0.05559   0.00000  Uiso   1.00
H37    H     0.55746   0.67725   0.10817   0.00000  Uiso   1.00
O38    O     0.80385   0.77094   0.53752   0.00000  Uiso   1.00
O39    O     0.70206   0.70031   0.97505   0.00000  Uiso   1.00
O40    O     0.69830   0.54884   0.04402   0.00000  Uiso   1.00
N41    N     0.87499   0.68972   0.41996   0.00000  Uiso   1.00
N42    N     0.80242   0.63940   0.01915   0.00000  Uiso   1.00
N43    N     0.51234   0.53146   0.06828   0.00000  Uiso   1.00
N44    N     0.88468   0.79605   0.45277   0.00000  Uiso   1.00
N45    N     0.81211   0.74573   0.05196   0.00000  Uiso   1.00
N46    N     0.52203   0.63779   0.10109   0.00000  Uiso   1.00
C47    C     0.22971   0.83416   0.44500   0.00000  Uiso   1.00
C48    C     0.25777   0.75584   0.41497   0.00000  Uiso   1.00
C49    C     0.25802   0.70826   0.34902   0.00000  Uiso   1.00
C50    C     0.28600   0.63891   0.33137   0.00000  Uiso   1.00
C51    C     0.32545   0.52049   0.27765   0.00000  Uiso   1.00
C52    C     0.12833   0.86568   0.51101   0.00000  Uiso   1.00
C53    C     0.01974   0.91046   0.52581   0.00000  Uiso   1.00
C54    C     0.93877   0.93357   0.58901   0.00000  Uiso   1.00
C55    C     0.77728   0.98571   0.68442   0.00000  Uiso   1.00
C56    C     0.33677   0.85453   0.46791   0.00000  Uiso   1.00
C57    C     0.40344   0.88995   0.44649   0.00000  Uiso   1.00
C58    C     0.49794   0.90368   0.47342   0.00000  Uiso   1.00
C59    C     0.66010   0.93851   0.50190   0.00000  Uiso   1.00
C60    C     0.27897   0.79559   0.53091   0.00000  Uiso   1.00
C61    C     0.28453   0.73490   0.46163   0.00000  Uiso   1.00
C62    C     0.31252   0.66559   0.44407   0.00000  Uiso   1.00
C63    C     0.31281   0.61792   0.37812   0.00000  Uiso   1.00
C64    C     0.15508   0.84473   0.55767   0.00000  Uiso   1.00
C65    C     0.07425   0.86778   0.62087   0.00000  Uiso   1.00
C66    C     0.96557   0.91258   0.63576   0.00000  Uiso   1.00
C67    C     0.36354   0.83358   0.51457   0.00000  Uiso   1.00
C68    C     0.45795   0.84727   0.54154   0.00000  Uiso   1.00
C69    C     0.52475   0.88270   0.52017   0.00000  Uiso   1.00
H70    H     0.20887   0.85047   0.40867   0.00000  Uiso   1.00
H71    H     0.23729   0.72450   0.31293   0.00000  Uiso   1.00
H72    H     0.99907   0.92666   0.48969   0.00000  Uiso   1.00
H73    H     0.38270   0.90615   0.41038   0.00000  Uiso   1.00
H74    H     0.28056   0.57559   0.22736   0.00000  Uiso   1.00
H75    H     0.77827   0.00189   0.60009   0.00000  Uiso   1.00
H76    H     0.58723   0.95864   0.43285   0.00000  Uiso   1.00
H77    H     0.29981   0.77928   0.56725   0.00000  Uiso   1.00
H78    H     0.33323   0.64940   0.48020   0.00000  Uiso   1.00
H79    H     0.09499   0.85156   0.65697   0.00000  Uiso   1.00
H80    H     0.47863   0.83105   0.57765   0.00000  Uiso   1.00
H81    H     0.35842   0.51464   0.36312   0.00000  Uiso   1.00
H82    H     0.85612   0.94094   0.73586   0.00000  Uiso   1.00
H83    H     0.66509   0.89769   0.56862   0.00000  Uiso   1.00
O84    O     0.33980   0.46096   0.23513   0.00000  Uiso   1.00
O85    O     0.68081   0.02026   0.72414   0.00000  Uiso   1.00
O86    O     0.74216   0.96351   0.50472   0.00000  Uiso   1.00
N87    N     0.29433   0.57907   0.27125   0.00000  Uiso   1.00
N88    N     0.82470   0.97763   0.61973   0.00000  Uiso   1.00
N89    N     0.58100   0.93720   0.46339   0.00000  Uiso   1.00
N90    N     0.33622   0.54627   0.34431   0.00000  Uiso   1.00
N91    N     0.86659   0.94483   0.69279   0.00000  Uiso   1.00
N92    N     0.62289   0.90441   0.53644   0.00000  Uiso   1.00
C93    C     0.67505   0.55423   0.38836   0.00000  Uiso   1.00
C94    C     0.67345   0.58465   0.34037   0.00000  Uiso   1.00
C95    C     0.60843   0.65044   0.35864   0.00000  Uiso   1.00
C96    C     0.61900   0.66850   0.30725   0.00000  Uiso   1.00
C97    C     0.60536   0.72274   0.24296   0.00000  Uiso   1.00
C98    C     0.63942   0.48723   0.35410   0.00000  Uiso   1.00
C99    C     0.54580   0.47111   0.38392   0.00000  Uiso   1.00
C100   C     0.52773   0.40715   0.34408   0.00000  Uiso   1.00
C101   C     0.46131   0.31012   0.30111   0.00000  Uiso   1.00
C102   C     0.80438   0.53262   0.38580   0.00000  Uiso   1.00
C103   C     0.84946   0.55466   0.44227   0.00000  Uiso   1.00
C104   C     0.97028   0.52891   0.42912   0.00000  Uiso   1.00
C105   C     0.15998   0.50235   0.43537   0.00000  Uiso   1.00
C106   C     0.80944   0.46930   0.26460   0.00000  Uiso   1.00
C107   C     0.74644   0.53851   0.27315   0.00000  Uiso   1.00
C108   C     0.75712   0.55648   0.22172   0.00000  Uiso   1.00
C109   C     0.69213   0.62229   0.23991   0.00000  Uiso   1.00
C110   C     0.71241   0.44110   0.28688   0.00000  Uiso   1.00
C111   C     0.69448   0.37715   0.24699   0.00000  Uiso   1.00
C112   C     0.60086   0.36094   0.27674   0.00000  Uiso   1.00
C113   C     0.87738   0.48649   0.31858   0.00000  Uiso   1.00
C114   C     0.99814   0.46069   0.30534   0.00000  Uiso   1.00
C115   C     0.04340   0.48269   0.36178   0.00000  Uiso   1.00
H116   H     0.61822   0.59014   0.44069   0.00000  Uiso   1.00
H117   H     0.55194   0.68613   0.41067   0.00000  Uiso   1.00
H118   H     0.48933   0.50682   0.43594   0.00000  Uiso   1.00
H119   H     0.79295   0.59035   0.49428   0.00000  Uiso   1.00
H120   H     0.51062   0.77219   0.34773   0.00000  Uiso   1.00
H121   H     0.37862   0.39410   0.40102   0.00000  Uiso   1.00
H122   H     0.01885   0.57025   0.52405   0.00000  Uiso   1.00
H123   H     0.86627   0.43339   0.21227   0.00000  Uiso   1.00
H124   H     0.81361   0.52077   0.16971   0.00000  Uiso   1.00
H125   H     0.75099   0.34146   0.19498   0.00000  Uiso   1.00
H126   H     0.05460   0.42500   0.25332   0.00000  Uiso   1.00
H127   H     0.72299   0.63798   0.15215   0.00000  Uiso   1.00
H128   H     0.59100   0.25988   0.20545   0.00000  Uiso   1.00
H129   H     0.23122   0.43604   0.32847   0.00000  Uiso   1.00
O130   O     0.57766   0.76539   0.22606   0.00000  Uiso   1.00
O131   O     0.40450   0.26934   0.29598   0.00000  Uiso   1.00
O132   O     0.24445   0.50045   0.45739   0.00000  Uiso   1.00
N133   N     0.56785   0.72862   0.30754   0.00000  Uiso   1.00
N134   N     0.44443   0.37513   0.35737   0.00000  Uiso   1.00
N135   N     0.04298   0.53980   0.47239   0.00000  Uiso   1.00
N136   N     0.68213   0.65640   0.20231   0.00000  Uiso   1.00
N137   N     0.55870   0.30291   0.25213   0.00000  Uiso   1.00
N138   N     0.15726   0.46758   0.36715   0.00000  Uiso   1.00
C139   C     0.72914   0.44445   0.83388   0.00000  Uiso   1.00
C140   C     0.75737   0.41442   0.75585   0.00000  Uiso   1.00
C141   C     0.75755   0.34815   0.70849   0.00000  Uiso   1.00
C142   C     0.78571   0.33057   0.63938   0.00000  Uiso   1.00
C143   C     0.82539   0.27679   0.52141   0.00000  Uiso   1.00
C144   C     0.62788   0.51038   0.86569   0.00000  Uiso   1.00
C145   C     0.51919   0.52479   0.91068   0.00000  Uiso   1.00
C146   C     0.43835   0.58799   0.93404   0.00000  Uiso   1.00
C147   C     0.27702   0.68321   0.98662   0.00000  Uiso   1.00
C148   C     0.83621   0.46791   0.85372   0.00000  Uiso   1.00
C149   C     0.90268   0.44663   0.88866   0.00000  Uiso   1.00
C150   C     0.99723   0.47408   0.90196   0.00000  Uiso   1.00
C151   C     0.15937   0.50336   0.93596   0.00000  Uiso   1.00
C152   C     0.77884   0.53106   0.79538   0.00000  Uiso   1.00
C153   C     0.78436   0.46147   0.73494   0.00000  Uiso   1.00
C154   C     0.81254   0.44398   0.66589   0.00000  Uiso   1.00
C155   C     0.81276   0.37769   0.61843   0.00000  Uiso   1.00
C156   C     0.65487   0.55742   0.84478   0.00000  Uiso   1.00
C157   C     0.57418   0.62062   0.86808   0.00000  Uiso   1.00
C158   C     0.46540   0.63512   0.91309   0.00000  Uiso   1.00
C159   C     0.86321   0.51495   0.83280   0.00000  Uiso   1.00
C160   C     0.95767   0.54245   0.84606   0.00000  Uiso   1.00
C161   C     0.02427   0.52121   0.88100   0.00000  Uiso   1.00
H162   H     0.70811   0.40783   0.85017   0.00000  Uiso   1.00
H163   H     0.73664   0.31176   0.72469   0.00000  Uiso   1.00
H164   H     0.49832   0.48838   0.92686   0.00000  Uiso   1.00
H165   H     0.88176   0.41022   0.90484   0.00000  Uiso   1.00
H166   H     0.78013   0.22601   0.57636   0.00000  Uiso   1.00
H167   H     0.27765   0.59842   0.00265   0.00000  Uiso   1.00
H168   H     0.08619   0.43362   0.95622   0.00000  Uiso   1.00
H169   H     0.79986   0.56769   0.77910   0.00000  Uiso   1.00
H170   H     0.83343   0.48039   0.64972   0.00000  Uiso   1.00
H171   H     0.59511   0.65701   0.85189   0.00000  Uiso   1.00
H172   H     0.97854   0.57885   0.82986   0.00000  Uiso   1.00
H173   H     0.85869   0.36288   0.51551   0.00000  Uiso   1.00
H174   H     0.35620   0.73529   0.94181   0.00000  Uiso   1.00
H175   H     0.16474   0.57048   0.89537   0.00000  Uiso   1.00
O176   O     0.83980   0.23414   0.46212   0.00000  Uiso   1.00
O177   O     0.18056   0.72274   0.02140   0.00000  Uiso   1.00
O178   O     0.24135   0.50651   0.96048   0.00000  Uiso   1.00
N179   N     0.79404   0.27020   0.57980   0.00000  Uiso   1.00
N180   N     0.32423   0.61838   0.97834   0.00000  Uiso   1.00
N181   N     0.08013   0.46431   0.93495   0.00000  Uiso   1.00
N182   N     0.83631   0.34384   0.54705   0.00000  Uiso   1.00
N183   N     0.36650   0.69202   0.94560   0.00000  Uiso   1.00
N184   N     0.12240   0.53796   0.90221   0.00000  Uiso   1.00
C185   C     0.17542   0.38864   0.55436   0.00000  Uiso   1.00
C186   C     0.17354   0.34036   0.58459   0.00000  Uiso   1.00
C187   C     0.10835   0.35842   0.65030   0.00000  Uiso   1.00
C188   C     0.11867   0.30678   0.66819   0.00000  Uiso   1.00
C189   C     0.10461   0.24204   0.72214   0.00000  Uiso   1.00
C190   C     0.13989   0.35409   0.48784   0.00000  Uiso   1.00
C191   C     0.04644   0.38369   0.47221   0.00000  Uiso   1.00
C192   C     0.02845   0.34361   0.40865   0.00000  Uiso   1.00
C193   C     0.96222   0.30020   0.31238   0.00000  Uiso   1.00
C194   C     0.30481   0.38660   0.53234   0.00000  Uiso   1.00
C195   C     0.35001   0.44355   0.55411   0.00000  Uiso   1.00
C196   C     0.47088   0.43085   0.52799   0.00000  Uiso   1.00
C197   C     0.66070   0.43793   0.50081   0.00000  Uiso   1.00
C198   C     0.30967   0.26481   0.46926   0.00000  Uiso   1.00
C199   C     0.24645   0.27311   0.53836   0.00000  Uiso   1.00
C200   C     0.25688   0.22142   0.55615   0.00000  Uiso   1.00
C201   C     0.19173   0.23940   0.62189   0.00000  Uiso   1.00
C202   C     0.21281   0.28683   0.44162   0.00000  Uiso   1.00
C203   C     0.19497   0.24670   0.37806   0.00000  Uiso   1.00
C204   C     0.10150   0.27623   0.36234   0.00000  Uiso   1.00
C205   C     0.37773   0.31935   0.48611   0.00000  Uiso   1.00
C206   C     0.49854   0.30656   0.45996   0.00000  Uiso   1.00
C207   C     0.54392   0.36347   0.48169   0.00000  Uiso   1.00
H208   H     0.11864   0.44100   0.59034   0.00000  Uiso   1.00
H209   H     0.05192   0.41047   0.68606   0.00000  Uiso   1.00
H210   H     0.99003   0.43574   0.50799   0.00000  Uiso   1.00
H211   H     0.29356   0.49559   0.58988   0.00000  Uiso   1.00
H212   H     0.01007   0.34696   0.77178   0.00000  Uiso   1.00
H213   H     0.87959   0.40026   0.39631   0.00000  Uiso   1.00
H214   H     0.51964   0.52646   0.56898   0.00000  Uiso   1.00
H215   H     0.36644   0.21245   0.43327   0.00000  Uiso   1.00
H216   H     0.31332   0.16938   0.52037   0.00000  Uiso   1.00
H217   H     0.25142   0.19466   0.34230   0.00000  Uiso   1.00
H218   H     0.55495   0.25450   0.42419   0.00000  Uiso   1.00
H219   H     0.22223   0.15128   0.63730   0.00000  Uiso   1.00
H220   H     0.09175   0.20458   0.26182   0.00000  Uiso   1.00
H221   H     0.73180   0.33078   0.43450   0.00000  Uiso   1.00
O222   O     0.07670   0.22491   0.76467   0.00000  Uiso   1.00
O223   O     0.90553   0.29484   0.27205   0.00000  Uiso   1.00
O224   O     0.74526   0.46041   0.49860   0.00000  Uiso   1.00
N225   N     0.06731   0.30682   0.72819   0.00000  Uiso   1.00
N226   N     0.94531   0.35665   0.37714   0.00000  Uiso   1.00
N227   N     0.54369   0.47464   0.53856   0.00000  Uiso   1.00
N228   N     0.18147   0.20153   0.65582   0.00000  Uiso   1.00
N229   N     0.05947   0.25136   0.30478   0.00000  Uiso   1.00
N230   N     0.65785   0.36935   0.46620   0.00000  Uiso   1.00
C231   C     0.56263   0.16614   0.61139   0.00000  Uiso   1.00
C232   C     0.51347   0.24427   0.65911   0.00000  Uiso   1.00
C233   C     0.46686   0.29160   0.64033   0.00000  Uiso   1.00
C234   C     0.42644   0.36081   0.69155   0.00000  Uiso   1.00
C235   C     0.34913   0.47891   0.75537   0.00000  Uiso   1.00
C236   C     0.49311   0.13313   0.64532   0.00000  Uiso   1.00
C237   C     0.42939   0.08701   0.61496   0.00000  Uiso   1.00
C238   C     0.37184   0.06267   0.65457   0.00000  Uiso   1.00
C239   C     0.26300   0.00819   0.69698   0.00000  Uiso   1.00
C240   C     0.68891   0.14758   0.61495   0.00000  Uiso   1.00
C241   C     0.78984   0.11359   0.55904   0.00000  Uiso   1.00
C242   C     0.89715   0.10140   0.57308   0.00000  Uiso   1.00
C243   C     0.09232   0.06935   0.56832   0.00000  Uiso   1.00
C244   C     0.57373   0.20489   0.73573   0.00000  Uiso   1.00
C245   C     0.51949   0.26531   0.72664   0.00000  Uiso   1.00
C246   C     0.47914   0.33447   0.77790   0.00000  Uiso   1.00
C247   C     0.43248   0.38190   0.75921   0.00000  Uiso   1.00
C248   C     0.49913   0.15418   0.71286   0.00000  Uiso   1.00
C249   C     0.44167   0.12989   0.75253   0.00000  Uiso   1.00
C250   C     0.37788   0.08375   0.72223   0.00000  Uiso   1.00
C251   C     0.69494   0.16863   0.68249   0.00000  Uiso   1.00
C252   C     0.80211   0.15648   0.69661   0.00000  Uiso   1.00
C253   C     0.90318   0.12248   0.64074   0.00000  Uiso   1.00
H254   H     0.55794   0.14975   0.55881   0.00000  Uiso   1.00
H255   H     0.46220   0.27528   0.58806   0.00000  Uiso   1.00
H256   H     0.42476   0.07073   0.56269   0.00000  Uiso   1.00
H257   H     0.78514   0.09731   0.50678   0.00000  Uiso   1.00
H258   H     0.35868   0.42374   0.65028   0.00000  Uiso   1.00
H259   H     0.27975   0.99241   0.59678   0.00000  Uiso   1.00
H260   H     0.03970   0.04846   0.47888   0.00000  Uiso   1.00
H261   H     0.57842   0.22128   0.78831   0.00000  Uiso   1.00
H262   H     0.48381   0.35075   0.83016   0.00000  Uiso   1.00
H263   H     0.44636   0.14619   0.80479   0.00000  Uiso   1.00
H264   H     0.80675   0.17277   0.74888   0.00000  Uiso   1.00
H265   H     0.37621   0.48499   0.84678   0.00000  Uiso   1.00
H266   H     0.29729   0.05365   0.79327   0.00000  Uiso   1.00
H267   H     0.05724   0.10971   0.67538   0.00000  Uiso   1.00
O268   O     0.30480   0.53824   0.77192   0.00000  Uiso   1.00
O269   O     0.20128   0.97234   0.70172   0.00000  Uiso   1.00
O270   O     0.19831   0.04588   0.54705   0.00000  Uiso   1.00
N271   N     0.37581   0.42039   0.69078   0.00000  Uiso   1.00
N272   N     0.30200   0.01713   0.64076   0.00000  Uiso   1.00
N273   N     0.01249   0.06952   0.53054   0.00000  Uiso   1.00
N274   N     0.38525   0.45335   0.79652   0.00000  Uiso   1.00
N275   N     0.31144   0.05008   0.74649   0.00000  Uiso   1.00
N276   N     0.02193   0.10247   0.63627   0.00000  Uiso   1.00
