data_job_06504
_audit_creation_date              2018-12-19
_audit_creation_method            'Materials Studio'
_symmetry_space_group_name_H-M    'P1'
_symmetry_Int_Tables_number       1
_symmetry_cell_setting            triclinic
loop_
_symmetry_equiv_pos_as_xyz
  x,y,z
_cell_length_a                    19.9485
_cell_length_b                    19.9901
_cell_length_c                    22.0219
_cell_angle_alpha                 103.1193
_cell_angle_beta                  77.7413
_cell_angle_gamma                 71.4208
loop_
_atom_site_label
_atom_site_type_symbol
_atom_site_fract_x
_atom_site_fract_y
_atom_site_fract_z
_atom_site_U_iso_or_equiv
_atom_site_adp_type
_atom_site_occupancy
C1     C     0.68672   0.49337   0.50227   0.00000  Uiso   1.00
C2     C     0.66858   0.42828   0.46969   0.00000  Uiso   1.00
C3     C     0.63391   0.42580   0.42132   0.00000  Uiso   1.00
C4     C     0.62226   0.36122   0.39783   0.00000  Uiso   1.00
C5     C     0.59067   0.26928   0.34360   0.00000  Uiso   1.00
C6     C     0.64946   0.51435   0.57568   0.00000  Uiso   1.00
C7     C     0.59873   0.58425   0.61644   0.00000  Uiso   1.00
C8     C     0.57099   0.59212   0.68218   0.00000  Uiso   1.00
C9     C     0.50976   0.63383   0.79252   0.00000  Uiso   1.00
C10    C     0.77020   0.46188   0.49179   0.00000  Uiso   1.00
C11    C     0.82098   0.48767   0.46203   0.00000  Uiso   1.00
C12    C     0.89490   0.45138   0.45715   0.00000  Uiso   1.00
C13    C     0.02113   0.41161   0.43724   0.00000  Uiso   1.00
C14    C     0.72769   0.38306   0.54656   0.00000  Uiso   1.00
C15    C     0.69083   0.36836   0.49374   0.00000  Uiso   1.00
C16    C     0.67923   0.30376   0.47032   0.00000  Uiso   1.00
C17    C     0.64455   0.30119   0.42193   0.00000  Uiso   1.00
C18    C     0.67171   0.45444   0.59974   0.00000  Uiso   1.00
C19    C     0.64405   0.46221   0.66544   0.00000  Uiso   1.00
C20    C     0.59328   0.53210   0.70628   0.00000  Uiso   1.00
C21    C     0.79245   0.40196   0.51585   0.00000  Uiso   1.00
C22    C     0.86630   0.36563   0.51102   0.00000  Uiso   1.00
C23    C     0.91719   0.39135   0.48125   0.00000  Uiso   1.00
H24    H     0.66940   0.54001   0.48355   0.00000  Uiso   1.00
H25    H     0.61669   0.47219   0.40272   0.00000  Uiso   1.00
H26    H     0.58152   0.63061   0.59781   0.00000  Uiso   1.00
H27    H     0.80374   0.53404   0.44342   0.00000  Uiso   1.00
H28    H     0.56804   0.37057   0.32374   0.00000  Uiso   1.00
H29    H     0.49391   0.70462   0.73510   0.00000  Uiso   1.00
H30    H     0.96250   0.50099   0.40953   0.00000  Uiso   1.00
H31    H     0.74501   0.33641   0.56529   0.00000  Uiso   1.00
H32    H     0.69646   0.25741   0.48894   0.00000  Uiso   1.00
H33    H     0.66129   0.41583   0.68403   0.00000  Uiso   1.00
H34    H     0.88350   0.31926   0.52964   0.00000  Uiso   1.00
H35    H     0.63278   0.19625   0.39372   0.00000  Uiso   1.00
H36    H     0.55865   0.53031   0.80508   0.00000  Uiso   1.00
H37    H     0.02723   0.32667   0.47951   0.00000  Uiso   1.00
O38    O     0.56708   0.23513   0.30705   0.00000  Uiso   1.00
O39    O     0.46983   0.67339   0.84674   0.00000  Uiso   1.00
O40    O     0.08461   0.40623   0.41960   0.00000  Uiso   1.00
N41    N     0.58996   0.34038   0.35068   0.00000  Uiso   1.00
N42    N     0.52064   0.65270   0.73527   0.00000  Uiso   1.00
N43    N     0.95872   0.46233   0.43091   0.00000  Uiso   1.00
N44    N     0.62479   0.24658   0.38833   0.00000  Uiso   1.00
N45    N     0.55547   0.55890   0.77293   0.00000  Uiso   1.00
N46    N     0.99356   0.36853   0.46857   0.00000  Uiso   1.00
C47    C     0.83422   0.91019   0.73757   0.00000  Uiso   1.00
C48    C     0.86976   0.93047   0.79013   0.00000  Uiso   1.00
C49    C     0.94132   0.92932   0.77883   0.00000  Uiso   1.00
C50    C     0.96343   0.94979   0.83348   0.00000  Uiso   1.00
C51    C     0.02589   0.97807   0.90542   0.00000  Uiso   1.00
C52    C     0.80946   0.84864   0.75051   0.00000  Uiso   1.00
C53    C     0.83033   0.77869   0.70588   0.00000  Uiso   1.00
C54    C     0.80167   0.73029   0.72718   0.00000  Uiso   1.00
C55    C     0.77048   0.63155   0.73758   0.00000  Uiso   1.00
C56    C     0.76315   0.97778   0.75236   0.00000  Uiso   1.00
C57    C     0.74505   0.01639   0.70929   0.00000  Uiso   1.00
C58    C     0.67738   0.07670   0.73215   0.00000  Uiso   1.00
C59    C     0.57427   0.17846   0.74544   0.00000  Uiso   1.00
C60    C     0.74622   0.94861   0.85474   0.00000  Uiso   1.00
C61    C     0.82196   0.95134   0.85378   0.00000  Uiso   1.00
C62    C     0.84396   0.97183   0.90847   0.00000  Uiso   1.00
C63    C     0.91555   0.97070   0.89724   0.00000  Uiso   1.00
C64    C     0.76167   0.86951   0.81415   0.00000  Uiso   1.00
C65    C     0.73297   0.82120   0.83552   0.00000  Uiso   1.00
C66    C     0.75378   0.75119   0.79094   0.00000  Uiso   1.00
C67    C     0.71535   0.99865   0.81601   0.00000  Uiso   1.00
C68    C     0.64769   0.05891   0.83894   0.00000  Uiso   1.00
C69    C     0.62950   0.09761   0.79591   0.00000  Uiso   1.00
H70    H     0.87143   0.89394   0.68802   0.00000  Uiso   1.00
H71    H     0.97830   0.91316   0.72956   0.00000  Uiso   1.00
H72    H     0.86731   0.76256   0.65663   0.00000  Uiso   1.00
H73    H     0.78205   0.00023   0.66005   0.00000  Uiso   1.00
H74    H     0.07570   0.94364   0.80369   0.00000  Uiso   1.00
H75    H     0.84166   0.62611   0.64989   0.00000  Uiso   1.00
H76    H     0.66187   0.12727   0.65710   0.00000  Uiso   1.00
H77    H     0.70901   0.96486   0.90430   0.00000  Uiso   1.00
H78    H     0.80696   0.98798   0.95771   0.00000  Uiso   1.00
H79    H     0.69598   0.83737   0.88477   0.00000  Uiso   1.00
H80    H     0.61072   0.07504   0.88819   0.00000  Uiso   1.00
H81    H     0.93665   0.00436   0.98887   0.00000  Uiso   1.00
H82    H     0.70260   0.68683   0.83506   0.00000  Uiso   1.00
H83    H     0.52281   0.18799   0.84228   0.00000  Uiso   1.00
O84    O     0.07355   0.98790   0.92752   0.00000  Uiso   1.00
O85    O     0.76649   0.57132   0.72573   0.00000  Uiso   1.00
O86    O     0.53061   0.22883   0.73519   0.00000  Uiso   1.00
N87    N     0.02953   0.95477   0.83994   0.00000  Uiso   1.00
N88    N     0.81072   0.65789   0.69615   0.00000  Uiso   1.00
N89    N     0.64263   0.12643   0.70289   0.00000  Uiso   1.00
N90    N     0.95470   0.98745   0.93959   0.00000  Uiso   1.00
N91    N     0.73590   0.69057   0.79579   0.00000  Uiso   1.00
N92    N     0.56780   0.15911   0.80253   0.00000  Uiso   1.00
C93    C     0.37826   0.08864   0.91016   0.00000  Uiso   1.00
C94    C     0.29688   0.11248   0.94894   0.00000  Uiso   1.00
C95    C     0.25711   0.17326   0.00520   0.00000  Uiso   1.00
C96    C     0.18323   0.18569   0.03343   0.00000  Uiso   1.00
C97    C     0.06188   0.22979   0.09780   0.00000  Uiso   1.00
C98    C     0.41683   0.00815   0.90712   0.00000  Uiso   1.00
C99    C     0.47792   0.98123   0.92821   0.00000  Uiso   1.00
C100   C     0.50502   0.90583   0.92122   0.00000  Uiso   1.00
C101   C     0.56993   0.78796   0.92061   0.00000  Uiso   1.00
C102   C     0.37963   0.08632   0.84020   0.00000  Uiso   1.00
C103   C     0.40945   0.12510   0.80502   0.00000  Uiso   1.00
C104   C     0.40524   0.11550   0.74168   0.00000  Uiso   1.00
C105   C     0.41239   0.11900   0.63717   0.00000  Uiso   1.00
C106   C     0.31779   0.00261   0.86023   0.00000  Uiso   1.00
C107   C     0.26404   0.06575   0.92183   0.00000  Uiso   1.00
C108   C     0.19020   0.07809   0.94997   0.00000  Uiso   1.00
C109   C     0.15032   0.13888   0.00627   0.00000  Uiso   1.00
C110   C     0.38399   0.96143   0.88000   0.00000  Uiso   1.00
C111   C     0.41102   0.88605   0.87298   0.00000  Uiso   1.00
C112   C     0.47212   0.85902   0.89406   0.00000  Uiso   1.00
C113   C     0.34678   0.03960   0.81308   0.00000  Uiso   1.00
C114   C     0.34254   0.02993   0.74978   0.00000  Uiso   1.00
C115   C     0.37234   0.06869   0.71451   0.00000  Uiso   1.00
H116   H     0.40384   0.12501   0.93127   0.00000  Uiso   1.00
H117   H     0.28255   0.20941   0.02618   0.00000  Uiso   1.00
H118   H     0.50333   0.01740   0.94919   0.00000  Uiso   1.00
H119   H     0.43486   0.16126   0.82602   0.00000  Uiso   1.00
H120   H     0.13360   0.28235   0.11946   0.00000  Uiso   1.00
H121   H     0.59914   0.87749   0.95710   0.00000  Uiso   1.00
H122   H     0.45477   0.18084   0.69737   0.00000  Uiso   1.00
H123   H     0.29222   0.96623   0.83912   0.00000  Uiso   1.00
H124   H     0.16480   0.04192   0.92898   0.00000  Uiso   1.00
H125   H     0.38559   0.84991   0.85199   0.00000  Uiso   1.00
H126   H     0.31712   0.99377   0.72882   0.00000  Uiso   1.00
H127   H     0.03803   0.14641   0.04057   0.00000  Uiso   1.00
H128   H     0.50358   0.74155   0.87821   0.00000  Uiso   1.00
H129   H     0.35921   0.04490   0.61848   0.00000  Uiso   1.00
O130   O     0.00402   0.26702   0.14080   0.00000  Uiso   1.00
O131   O     0.61480   0.73586   0.92778   0.00000  Uiso   1.00
O132   O     0.42539   0.13385   0.58702   0.00000  Uiso   1.00
N133   N     0.12859   0.23998   0.08855   0.00000  Uiso   1.00
N134   N     0.56384   0.86146   0.93677   0.00000  Uiso   1.00
N135   N     0.42888   0.14505   0.69393   0.00000  Uiso   1.00
N136   N     0.07717   0.16683   0.04610   0.00000  Uiso   1.00
N137   N     0.51242   0.78831   0.89432   0.00000  Uiso   1.00
N138   N     0.37746   0.07191   0.65148   0.00000  Uiso   1.00
C139   C     0.32114   0.56429   0.75617   0.00000  Uiso   1.00
C140   C     0.36166   0.48420   0.71060   0.00000  Uiso   1.00
C141   C     0.43412   0.45362   0.66884   0.00000  Uiso   1.00
C142   C     0.46104   0.37930   0.63113   0.00000  Uiso   1.00
C143   C     0.53068   0.26133   0.55979   0.00000  Uiso   1.00
C144   C     0.29564   0.55940   0.82481   0.00000  Uiso   1.00
C145   C     0.31258   0.59206   0.87907   0.00000  Uiso   1.00
C146   C     0.28392   0.58105   0.93751   0.00000  Uiso   1.00
C147   C     0.25101   0.57988   0.04349   0.00000  Uiso   1.00
C148   C     0.25058   0.59608   0.73811   0.00000  Uiso   1.00
C149   C     0.22962   0.65959   0.71949   0.00000  Uiso   1.00
C150   C     0.16302   0.67947   0.70494   0.00000  Uiso   1.00
C151   C     0.06015   0.73525   0.67632   0.00000  Uiso   1.00
C152   C     0.24012   0.48666   0.76347   0.00000  Uiso   1.00
C153   C     0.31765   0.44203   0.71457   0.00000  Uiso   1.00
C154   C     0.34448   0.36773   0.67691   0.00000  Uiso   1.00
C155   C     0.41696   0.33705   0.63510   0.00000  Uiso   1.00
C156   C     0.25164   0.51723   0.82878   0.00000  Uiso   1.00
C157   C     0.22294   0.50617   0.88715   0.00000  Uiso   1.00
C158   C     0.23983   0.53880   0.94148   0.00000  Uiso   1.00
C159   C     0.20658   0.55391   0.74208   0.00000  Uiso   1.00
C160   C     0.13999   0.57369   0.72756   0.00000  Uiso   1.00
C161   C     0.11893   0.63723   0.70892   0.00000  Uiso   1.00
H162   H     0.35539   0.59712   0.75309   0.00000  Uiso   1.00
H163   H     0.46816   0.48627   0.66579   0.00000  Uiso   1.00
H164   H     0.34663   0.62470   0.87599   0.00000  Uiso   1.00
H165   H     0.26369   0.69221   0.71643   0.00000  Uiso   1.00
H166   H     0.57378   0.34477   0.57076   0.00000  Uiso   1.00
H167   H     0.31751   0.63667   0.01399   0.00000  Uiso   1.00
H168   H     0.14262   0.77904   0.67753   0.00000  Uiso   1.00
H169   H     0.20585   0.45383   0.76656   0.00000  Uiso   1.00
H170   H     0.31041   0.33511   0.67999   0.00000  Uiso   1.00
H171   H     0.18888   0.47354   0.89020   0.00000  Uiso   1.00
H172   H     0.10595   0.54105   0.73064   0.00000  Uiso   1.00
H173   H     0.44575   0.22209   0.58230   0.00000  Uiso   1.00
H174   H     0.18947   0.51398   0.02552   0.00000  Uiso   1.00
H175   H     0.01459   0.65635   0.68906   0.00000  Uiso   1.00
O176   O     0.58125   0.20791   0.51936   0.00000  Uiso   1.00
O177   O     0.24502   0.59088   0.10085   0.00000  Uiso   1.00
O178   O     0.01557   0.77766   0.65942   0.00000  Uiso   1.00
N179   N     0.52929   0.33220   0.58535   0.00000  Uiso   1.00
N180   N     0.28970   0.60509   0.99973   0.00000  Uiso   1.00
N181   N     0.12619   0.73821   0.68519   0.00000  Uiso   1.00
N182   N     0.46040   0.26618   0.59155   0.00000  Uiso   1.00
N183   N     0.22081   0.53907   0.00594   0.00000  Uiso   1.00
N184   N     0.05729   0.67219   0.69139   0.00000  Uiso   1.00
C185   C     0.87348   0.69097   0.09157   0.00000  Uiso   1.00
C186   C     0.79676   0.68758   0.10142   0.00000  Uiso   1.00
C187   C     0.76199   0.67984   0.05346   0.00000  Uiso   1.00
C188   C     0.69184   0.67790   0.07229   0.00000  Uiso   1.00
C189   C     0.57791   0.67175   0.07776   0.00000  Uiso   1.00
C190   C     0.91841   0.62874   0.11339   0.00000  Uiso   1.00
C191   C     0.98592   0.57153   0.07549   0.00000  Uiso   1.00
C192   C     0.01817   0.52006   0.10441   0.00000  Uiso   1.00
C193   C     0.09314   0.42259   0.12849   0.00000  Uiso   1.00
C194   C     0.86226   0.76364   0.14126   0.00000  Uiso   1.00
C195   C     0.88258   0.81985   0.12681   0.00000  Uiso   1.00
C196   C     0.86758   0.88194   0.17920   0.00000  Uiso   1.00
C197   C     0.85537   0.99392   0.24655   0.00000  Uiso   1.00
C198   C     0.81072   0.70128   0.21030   0.00000  Uiso   1.00
C199   C     0.76267   0.69318   0.16591   0.00000  Uiso   1.00
C200   C     0.69255   0.69125   0.18482   0.00000  Uiso   1.00
C201   C     0.65768   0.68351   0.13690   0.00000  Uiso   1.00
C202   C     0.88432   0.63434   0.17788   0.00000  Uiso   1.00
C203   C     0.91648   0.58294   0.20686   0.00000  Uiso   1.00
C204   C     0.98402   0.52567   0.16902   0.00000  Uiso   1.00
C205   C     0.82817   0.76924   0.20575   0.00000  Uiso   1.00
C206   C     0.81314   0.83126   0.25817   0.00000  Uiso   1.00
C207   C     0.83343   0.88755   0.24380   0.00000  Uiso   1.00
H208   H     0.90002   0.68660   0.04136   0.00000  Uiso   1.00
H209   H     0.78839   0.67550   0.00355   0.00000  Uiso   1.00
H210   H     0.01229   0.56721   0.02559   0.00000  Uiso   1.00
H211   H     0.90896   0.81549   0.07690   0.00000  Uiso   1.00
H212   H     0.64961   0.66564   0.99007   0.00000  Uiso   1.00
H213   H     0.12172   0.43732   0.03654   0.00000  Uiso   1.00
H214   H     0.90384   0.96086   0.14474   0.00000  Uiso   1.00
H215   H     0.78418   0.70564   0.26051   0.00000  Uiso   1.00
H216   H     0.66618   0.69559   0.23473   0.00000  Uiso   1.00
H217   H     0.89009   0.58730   0.25677   0.00000  Uiso   1.00
H218   H     0.78676   0.83558   0.30807   0.00000  Uiso   1.00
H219   H     0.55042   0.68194   0.17770   0.00000  Uiso   1.00
H220   H     0.02254   0.45362   0.22418   0.00000  Uiso   1.00
H221   H     0.80465   0.97716   0.33237   0.00000  Uiso   1.00
O222   O     0.52450   0.66681   0.06297   0.00000  Uiso   1.00
O223   O     0.14390   0.36727   0.12394   0.00000  Uiso   1.00
O224   O     0.85804   0.05415   0.26589   0.00000  Uiso   1.00
N225   N     0.64245   0.67087   0.03777   0.00000  Uiso   1.00
N226   N     0.08385   0.45740   0.08122   0.00000  Uiso   1.00
N227   N     0.88016   0.94686   0.18237   0.00000  Uiso   1.00
N228   N     0.58908   0.67964   0.13873   0.00000  Uiso   1.00
N229   N     0.03047   0.46617   0.18218   0.00000  Uiso   1.00
N230   N     0.82679   0.95563   0.28333   0.00000  Uiso   1.00
C231   C     0.13198   0.83547   0.30894   0.00000  Uiso   1.00
C232   C     0.16950   0.85230   0.36078   0.00000  Uiso   1.00
C233   C     0.14273   0.91752   0.41311   0.00000  Uiso   1.00
C234   C     0.18524   0.92210   0.45512   0.00000  Uiso   1.00
C235   C     0.23331   0.95711   0.53715   0.00000  Uiso   1.00
C236   C     0.12168   0.76340   0.31035   0.00000  Uiso   1.00
C237   C     0.05470   0.75388   0.32028   0.00000  Uiso   1.00
C238   C     0.05696   0.68362   0.31983   0.00000  Uiso   1.00
C239   C     0.03079   0.58061   0.32354   0.00000  Uiso   1.00
C240   C     0.18912   0.81682   0.24304   0.00000  Uiso   1.00
C241   C     0.17885   0.85220   0.19636   0.00000  Uiso   1.00
C242   C     0.23789   0.82691   0.13924   0.00000  Uiso   1.00
C243   C     0.31643   0.80685   0.03843   0.00000  Uiso   1.00
C244   C     0.25508   0.72764   0.29049   0.00000  Uiso   1.00
C245   C     0.23636   0.79372   0.35075   0.00000  Uiso   1.00
C246   C     0.27893   0.79821   0.39269   0.00000  Uiso   1.00
C247   C     0.25223   0.86342   0.44508   0.00000  Uiso   1.00
C248   C     0.18854   0.70483   0.30033   0.00000  Uiso   1.00
C249   C     0.19090   0.63457   0.29987   0.00000  Uiso   1.00
C250   C     0.12394   0.62494   0.30979   0.00000  Uiso   1.00
C251   C     0.25599   0.75825   0.23302   0.00000  Uiso   1.00
C252   C     0.31505   0.73290   0.17595   0.00000  Uiso   1.00
C253   C     0.30487   0.76823   0.12920   0.00000  Uiso   1.00
H254   H     0.07993   0.88107   0.31674   0.00000  Uiso   1.00
H255   H     0.09098   0.96283   0.42085   0.00000  Uiso   1.00
H256   H     0.00297   0.79921   0.32803   0.00000  Uiso   1.00
H257   H     0.12710   0.89753   0.20414   0.00000  Uiso   1.00
H258   H     0.13272   0.02763   0.53187   0.00000  Uiso   1.00
H259   H     0.94714   0.68263   0.33613   0.00000  Uiso   1.00
H260   H     0.20889   0.88994   0.07487   0.00000  Uiso   1.00
H261   H     0.30714   0.68204   0.28268   0.00000  Uiso   1.00
H262   H     0.33067   0.75287   0.38493   0.00000  Uiso   1.00
H263   H     0.24265   0.58926   0.29211   0.00000  Uiso   1.00
H264   H     0.36678   0.68757   0.16821   0.00000  Uiso   1.00
H265   H     0.32725   0.85722   0.50271   0.00000  Uiso   1.00
H266   H     0.14167   0.51222   0.30697   0.00000  Uiso   1.00
H267   H     0.40342   0.71953   0.04572   0.00000  Uiso   1.00
O268   O     0.24135   0.99260   0.58518   0.00000  Uiso   1.00
O269   O     0.99788   0.53997   0.32836   0.00000  Uiso   1.00
O270   O     0.34129   0.81197   0.98561   0.00000  Uiso   1.00
N271   N     0.17528   0.97781   0.51097   0.00000  Uiso   1.00
N272   N     0.00177   0.65526   0.32797   0.00000  Uiso   1.00
N273   N     0.24648   0.84906   0.08372   0.00000  Uiso   1.00
N274   N     0.27996   0.88611   0.49528   0.00000  Uiso   1.00
N275   N     0.10645   0.56356   0.31228   0.00000  Uiso   1.00
N276   N     0.35116   0.75737   0.06803   0.00000  Uiso   1.00
C277   C     0.31328   0.50663   0.49773   0.00000  Uiso   1.00
C278   C     0.33142   0.57172   0.53031   0.00000  Uiso   1.00
C279   C     0.36609   0.57420   0.57868   0.00000  Uiso   1.00
C280   C     0.37774   0.63878   0.60217   0.00000  Uiso   1.00
C281   C     0.40933   0.73072   0.65640   0.00000  Uiso   1.00
C282   C     0.35054   0.48565   0.42432   0.00000  Uiso   1.00
C283   C     0.40127   0.41575   0.38356   0.00000  Uiso   1.00
C284   C     0.42901   0.40788   0.31782   0.00000  Uiso   1.00
C285   C     0.49024   0.36617   0.20748   0.00000  Uiso   1.00
C286   C     0.22980   0.53812   0.50821   0.00000  Uiso   1.00
C287   C     0.17902   0.51233   0.53797   0.00000  Uiso   1.00
C288   C     0.10510   0.54862   0.54285   0.00000  Uiso   1.00
C289   C     0.97887   0.58839   0.56276   0.00000  Uiso   1.00
C290   C     0.27231   0.61694   0.45344   0.00000  Uiso   1.00
C291   C     0.30917   0.63164   0.50626   0.00000  Uiso   1.00
C292   C     0.32077   0.69624   0.52968   0.00000  Uiso   1.00
C293   C     0.35545   0.69881   0.57807   0.00000  Uiso   1.00
C294   C     0.32829   0.54556   0.40026   0.00000  Uiso   1.00
C295   C     0.35595   0.53779   0.33456   0.00000  Uiso   1.00
C296   C     0.40672   0.46790   0.29372   0.00000  Uiso   1.00
C297   C     0.20755   0.59804   0.48415   0.00000  Uiso   1.00
C298   C     0.13370   0.63437   0.48898   0.00000  Uiso   1.00
C299   C     0.08281   0.60865   0.51875   0.00000  Uiso   1.00
H300   H     0.33060   0.45999   0.51645   0.00000  Uiso   1.00
H301   H     0.38331   0.52781   0.59728   0.00000  Uiso   1.00
H302   H     0.41848   0.36939   0.40219   0.00000  Uiso   1.00
H303   H     0.19626   0.46596   0.55658   0.00000  Uiso   1.00
H304   H     0.43196   0.62943   0.67626   0.00000  Uiso   1.00
H305   H     0.50609   0.29538   0.26490   0.00000  Uiso   1.00
H306   H     0.03750   0.49901   0.59047   0.00000  Uiso   1.00
H307   H     0.25499   0.66359   0.43471   0.00000  Uiso   1.00
H308   H     0.30354   0.74259   0.51106   0.00000  Uiso   1.00
H309   H     0.33871   0.58417   0.31597   0.00000  Uiso   1.00
H310   H     0.11650   0.68074   0.47036   0.00000  Uiso   1.00
H311   H     0.36722   0.80375   0.60628   0.00000  Uiso   1.00
H312   H     0.44135   0.46969   0.19492   0.00000  Uiso   1.00
H313   H     0.97277   0.67333   0.52049   0.00000  Uiso   1.00
O314   O     0.43292   0.76487   0.69295   0.00000  Uiso   1.00
O315   O     0.53017   0.32661   0.15326   0.00000  Uiso   1.00
O316   O     0.91539   0.59377   0.58040   0.00000  Uiso   1.00
N317   N     0.41004   0.65962   0.64932   0.00000  Uiso   1.00
N318   N     0.47936   0.34730   0.26473   0.00000  Uiso   1.00
N319   N     0.04128   0.53767   0.56909   0.00000  Uiso   1.00
N320   N     0.37521   0.75342   0.61167   0.00000  Uiso   1.00
N321   N     0.44453   0.44110   0.22707   0.00000  Uiso   1.00
N322   N     0.00644   0.63147   0.53143   0.00000  Uiso   1.00
C323   C     0.16578   0.08981   0.26243   0.00000  Uiso   1.00
C324   C     0.13024   0.06953   0.20987   0.00000  Uiso   1.00
C325   C     0.05868   0.07068   0.22117   0.00000  Uiso   1.00
C326   C     0.03657   0.05021   0.16652   0.00000  Uiso   1.00
C327   C     0.97411   0.02193   0.09458   0.00000  Uiso   1.00
C328   C     0.19054   0.15136   0.24949   0.00000  Uiso   1.00
C329   C     0.16967   0.22131   0.29412   0.00000  Uiso   1.00
C330   C     0.19833   0.26971   0.27282   0.00000  Uiso   1.00
C331   C     0.22952   0.36845   0.26242   0.00000  Uiso   1.00
C332   C     0.23685   0.02222   0.24764   0.00000  Uiso   1.00
C333   C     0.25495   0.98361   0.29071   0.00000  Uiso   1.00
C334   C     0.32262   0.92330   0.26785   0.00000  Uiso   1.00
C335   C     0.42573   0.82154   0.25456   0.00000  Uiso   1.00
C336   C     0.25378   0.05139   0.14526   0.00000  Uiso   1.00
C337   C     0.17804   0.04866   0.14622   0.00000  Uiso   1.00
C338   C     0.15604   0.02817   0.09153   0.00000  Uiso   1.00
C339   C     0.08445   0.02930   0.10276   0.00000  Uiso   1.00
C340   C     0.23833   0.13049   0.18585   0.00000  Uiso   1.00
C341   C     0.26703   0.17880   0.16448   0.00000  Uiso   1.00
C342   C     0.24622   0.24881   0.20906   0.00000  Uiso   1.00
C343   C     0.28465   0.00135   0.18399   0.00000  Uiso   1.00
C344   C     0.35231   0.94109   0.16106   0.00000  Uiso   1.00
C345   C     0.37050   0.90239   0.20409   0.00000  Uiso   1.00
H346   H     0.12857   0.10606   0.31198   0.00000  Uiso   1.00
H347   H     0.02170   0.08684   0.27044   0.00000  Uiso   1.00
H348   H     0.13269   0.23744   0.34337   0.00000  Uiso   1.00
H349   H     0.21795   0.99977   0.33995   0.00000  Uiso   1.00
H350   H     0.92430   0.05636   0.19631   0.00000  Uiso   1.00
H351   H     0.15834   0.37389   0.35011   0.00000  Uiso   1.00
H352   H     0.33813   0.87273   0.34290   0.00000  Uiso   1.00
H353   H     0.29099   0.03514   0.09570   0.00000  Uiso   1.00
H354   H     0.19304   0.01202   0.04229   0.00000  Uiso   1.00
H355   H     0.30402   0.16263   0.11523   0.00000  Uiso   1.00
H356   H     0.38928   0.92496   0.11181   0.00000  Uiso   1.00
H357   H     0.06335   0.99564   0.01113   0.00000  Uiso   1.00
H358   H     0.29740   0.31317   0.16494   0.00000  Uiso   1.00
H359   H     0.47719   0.81201   0.15772   0.00000  Uiso   1.00
O360   O     0.92645   0.01210   0.07248   0.00000  Uiso   1.00
O361   O     0.23351   0.42868   0.27427   0.00000  Uiso   1.00
O362   O     0.46939   0.77117   0.26481   0.00000  Uiso   1.00
N363   N     0.97047   0.04523   0.16006   0.00000  Uiso   1.00
N364   N     0.18928   0.34211   0.30385   0.00000  Uiso   1.00
N365   N     0.35737   0.87357   0.29711   0.00000  Uiso   1.00
N366   N     0.04530   0.01255   0.06041   0.00000  Uiso   1.00
N367   N     0.26410   0.30943   0.20421   0.00000  Uiso   1.00
N368   N     0.43220   0.84089   0.19747   0.00000  Uiso   1.00
C369   C     0.62174   0.91136   0.08984   0.00000  Uiso   1.00
C370   C     0.70312   0.88752   0.05106   0.00000  Uiso   1.00
C371   C     0.74289   0.82674   0.99480   0.00000  Uiso   1.00
C372   C     0.81677   0.81431   0.96657   0.00000  Uiso   1.00
C373   C     0.93812   0.77021   0.90220   0.00000  Uiso   1.00
C374   C     0.58317   0.99185   0.09288   0.00000  Uiso   1.00
C375   C     0.52208   0.01877   0.07179   0.00000  Uiso   1.00
C376   C     0.49498   0.09417   0.07878   0.00000  Uiso   1.00
C377   C     0.43007   0.21204   0.07939   0.00000  Uiso   1.00
C378   C     0.62037   0.91368   0.15980   0.00000  Uiso   1.00
C379   C     0.59055   0.87490   0.19498   0.00000  Uiso   1.00
C380   C     0.59476   0.88450   0.25832   0.00000  Uiso   1.00
C381   C     0.58761   0.88100   0.36283   0.00000  Uiso   1.00
C382   C     0.68221   0.99739   0.13977   0.00000  Uiso   1.00
C383   C     0.73596   0.93425   0.07817   0.00000  Uiso   1.00
C384   C     0.80980   0.92191   0.05003   0.00000  Uiso   1.00
C385   C     0.84968   0.86112   0.99373   0.00000  Uiso   1.00
C386   C     0.61601   0.03857   0.12000   0.00000  Uiso   1.00
C387   C     0.58898   0.11395   0.12702   0.00000  Uiso   1.00
C388   C     0.52788   0.14098   0.10594   0.00000  Uiso   1.00
C389   C     0.65322   0.96040   0.18692   0.00000  Uiso   1.00
C390   C     0.65746   0.97007   0.25022   0.00000  Uiso   1.00
C391   C     0.62766   0.93131   0.28549   0.00000  Uiso   1.00
H392   H     0.59616   0.87499   0.06873   0.00000  Uiso   1.00
H393   H     0.71745   0.79059   0.97382   0.00000  Uiso   1.00
H394   H     0.49667   0.98260   0.05081   0.00000  Uiso   1.00
H395   H     0.56514   0.83874   0.17398   0.00000  Uiso   1.00
H396   H     0.86640   0.71765   0.88054   0.00000  Uiso   1.00
H397   H     0.40086   0.12251   0.04290   0.00000  Uiso   1.00
H398   H     0.54523   0.81916   0.30263   0.00000  Uiso   1.00
H399   H     0.70778   0.03377   0.16088   0.00000  Uiso   1.00
H400   H     0.83520   0.95808   0.07102   0.00000  Uiso   1.00
H401   H     0.61441   0.15009   0.14801   0.00000  Uiso   1.00
H402   H     0.68288   0.00623   0.27118   0.00000  Uiso   1.00
H403   H     0.96197   0.85359   0.95943   0.00000  Uiso   1.00
H404   H     0.49642   0.25845   0.12179   0.00000  Uiso   1.00
H405   H     0.64079   0.95510   0.38152   0.00000  Uiso   1.00
O406   O     0.99598   0.73298   0.85920   0.00000  Uiso   1.00
O407   O     0.38520   0.26414   0.07222   0.00000  Uiso   1.00
O408   O     0.57461   0.86615   0.41298   0.00000  Uiso   1.00
N409   N     0.87141   0.76002   0.91145   0.00000  Uiso   1.00
N410   N     0.43616   0.13854   0.06323   0.00000  Uiso   1.00
N411   N     0.57112   0.85495   0.30607   0.00000  Uiso   1.00
N412   N     0.92283   0.83317   0.95390   0.00000  Uiso   1.00
N413   N     0.48758   0.21169   0.10568   0.00000  Uiso   1.00
N414   N     0.62254   0.92809   0.34852   0.00000  Uiso   1.00
C415   C     0.67886   0.43571   0.24383   0.00000  Uiso   1.00
C416   C     0.63834   0.51580   0.28940   0.00000  Uiso   1.00
C417   C     0.56588   0.54638   0.33116   0.00000  Uiso   1.00
C418   C     0.53896   0.62070   0.36887   0.00000  Uiso   1.00
C419   C     0.46932   0.73867   0.44021   0.00000  Uiso   1.00
C420   C     0.70436   0.44060   0.17519   0.00000  Uiso   1.00
C421   C     0.68742   0.40794   0.12093   0.00000  Uiso   1.00
C422   C     0.71608   0.41895   0.06249   0.00000  Uiso   1.00
C423   C     0.74899   0.42012   0.95651   0.00000  Uiso   1.00
C424   C     0.74942   0.40392   0.26189   0.00000  Uiso   1.00
C425   C     0.77038   0.34041   0.28051   0.00000  Uiso   1.00
C426   C     0.83698   0.32053   0.29506   0.00000  Uiso   1.00
C427   C     0.93985   0.26475   0.32368   0.00000  Uiso   1.00
C428   C     0.75988   0.51334   0.23653   0.00000  Uiso   1.00
C429   C     0.68235   0.55797   0.28543   0.00000  Uiso   1.00
C430   C     0.65552   0.63227   0.32309   0.00000  Uiso   1.00
C431   C     0.58304   0.66295   0.36490   0.00000  Uiso   1.00
C432   C     0.74836   0.48277   0.17122   0.00000  Uiso   1.00
C433   C     0.77706   0.49383   0.11285   0.00000  Uiso   1.00
C434   C     0.76017   0.46120   0.05852   0.00000  Uiso   1.00
C435   C     0.79342   0.44609   0.25792   0.00000  Uiso   1.00
C436   C     0.86001   0.42631   0.27244   0.00000  Uiso   1.00
C437   C     0.88107   0.36277   0.29108   0.00000  Uiso   1.00
H438   H     0.64461   0.40288   0.24691   0.00000  Uiso   1.00
H439   H     0.53184   0.51373   0.33421   0.00000  Uiso   1.00
H440   H     0.65337   0.37530   0.12401   0.00000  Uiso   1.00
H441   H     0.73631   0.30779   0.28357   0.00000  Uiso   1.00
H442   H     0.42622   0.65523   0.42924   0.00000  Uiso   1.00
H443   H     0.68249   0.36333   0.98601   0.00000  Uiso   1.00
H444   H     0.85738   0.22096   0.32247   0.00000  Uiso   1.00
H445   H     0.79415   0.54617   0.23344   0.00000  Uiso   1.00
H446   H     0.68959   0.66489   0.32001   0.00000  Uiso   1.00
H447   H     0.81112   0.52646   0.10980   0.00000  Uiso   1.00
H448   H     0.89405   0.45895   0.26936   0.00000  Uiso   1.00
H449   H     0.55425   0.77791   0.41770   0.00000  Uiso   1.00
H450   H     0.81053   0.48602   0.97448   0.00000  Uiso   1.00
H451   H     0.98541   0.34365   0.31094   0.00000  Uiso   1.00
O452   O     0.41875   0.79209   0.48064   0.00000  Uiso   1.00
O453   O     0.75498   0.40912   0.89915   0.00000  Uiso   1.00
O454   O     0.98443   0.22234   0.34058   0.00000  Uiso   1.00
N455   N     0.47071   0.66780   0.41465   0.00000  Uiso   1.00
N456   N     0.71030   0.39491   0.00027   0.00000  Uiso   1.00
N457   N     0.87381   0.26179   0.31481   0.00000  Uiso   1.00
N458   N     0.53960   0.73382   0.40845   0.00000  Uiso   1.00
N459   N     0.77919   0.46093   0.99406   0.00000  Uiso   1.00
N460   N     0.94271   0.32781   0.30861   0.00000  Uiso   1.00
C461   C     0.12652   0.30903   0.90843   0.00000  Uiso   1.00
C462   C     0.20324   0.31242   0.89858   0.00000  Uiso   1.00
C463   C     0.23801   0.32016   0.94654   0.00000  Uiso   1.00
C464   C     0.30816   0.32210   0.92771   0.00000  Uiso   1.00
C465   C     0.42209   0.32825   0.92224   0.00000  Uiso   1.00
C466   C     0.08159   0.37126   0.88661   0.00000  Uiso   1.00
C467   C     0.01408   0.42847   0.92451   0.00000  Uiso   1.00
C468   C     0.98183   0.47994   0.89559   0.00000  Uiso   1.00
C469   C     0.90686   0.57741   0.87151   0.00000  Uiso   1.00
C470   C     0.13774   0.23636   0.85874   0.00000  Uiso   1.00
C471   C     0.11742   0.18015   0.87319   0.00000  Uiso   1.00
C472   C     0.13242   0.11806   0.82080   0.00000  Uiso   1.00
C473   C     0.14463   0.00608   0.75345   0.00000  Uiso   1.00
C474   C     0.18928   0.29872   0.78970   0.00000  Uiso   1.00
C475   C     0.23733   0.30682   0.83409   0.00000  Uiso   1.00
C476   C     0.30745   0.30875   0.81518   0.00000  Uiso   1.00
C477   C     0.34232   0.31649   0.86310   0.00000  Uiso   1.00
C478   C     0.11568   0.36566   0.82212   0.00000  Uiso   1.00
C479   C     0.08352   0.41706   0.79314   0.00000  Uiso   1.00
C480   C     0.01598   0.47433   0.83098   0.00000  Uiso   1.00
C481   C     0.17183   0.23076   0.79425   0.00000  Uiso   1.00
C482   C     0.18686   0.16874   0.74183   0.00000  Uiso   1.00
C483   C     0.16657   0.11245   0.75620   0.00000  Uiso   1.00
H484   H     0.09998   0.31340   0.95864   0.00000  Uiso   1.00
H485   H     0.21161   0.32450   0.99645   0.00000  Uiso   1.00
H486   H     0.98771   0.43279   0.97441   0.00000  Uiso   1.00
H487   H     0.09104   0.18451   0.92310   0.00000  Uiso   1.00
H488   H     0.35039   0.33436   0.00993   0.00000  Uiso   1.00
H489   H     0.87828   0.56268   0.96346   0.00000  Uiso   1.00
H490   H     0.09616   0.03914   0.85526   0.00000  Uiso   1.00
H491   H     0.21582   0.29436   0.73949   0.00000  Uiso   1.00
H492   H     0.33382   0.30441   0.76527   0.00000  Uiso   1.00
H493   H     0.10991   0.41270   0.74323   0.00000  Uiso   1.00
H494   H     0.21324   0.16442   0.69193   0.00000  Uiso   1.00
H495   H     0.44958   0.31806   0.82230   0.00000  Uiso   1.00
H496   H     0.97746   0.54638   0.77582   0.00000  Uiso   1.00
H497   H     0.19535   0.02284   0.66763   0.00000  Uiso   1.00
O498   O     0.47550   0.33319   0.93703   0.00000  Uiso   1.00
O499   O     0.85610   0.63273   0.87606   0.00000  Uiso   1.00
O500   O     0.14196   0.94585   0.73411   0.00000  Uiso   1.00
N501   N     0.35755   0.32913   0.96223   0.00000  Uiso   1.00
N502   N     0.91615   0.54260   0.91878   0.00000  Uiso   1.00
N503   N     0.11984   0.05314   0.81763   0.00000  Uiso   1.00
N504   N     0.41092   0.32036   0.86127   0.00000  Uiso   1.00
N505   N     0.96953   0.53383   0.81782   0.00000  Uiso   1.00
N506   N     0.17321   0.04437   0.71667   0.00000  Uiso   1.00
C507   C     0.86802   0.16453   0.69106   0.00000  Uiso   1.00
C508   C     0.83050   0.14770   0.63922   0.00000  Uiso   1.00
C509   C     0.85727   0.08248   0.58689   0.00000  Uiso   1.00
C510   C     0.81476   0.07790   0.54488   0.00000  Uiso   1.00
C511   C     0.76669   0.04289   0.46285   0.00000  Uiso   1.00
C512   C     0.87832   0.23660   0.68965   0.00000  Uiso   1.00
C513   C     0.94530   0.24612   0.67972   0.00000  Uiso   1.00
C514   C     0.94304   0.31638   0.68017   0.00000  Uiso   1.00
C515   C     0.96921   0.41939   0.67646   0.00000  Uiso   1.00
C516   C     0.81088   0.18318   0.75696   0.00000  Uiso   1.00
C517   C     0.82115   0.14780   0.80364   0.00000  Uiso   1.00
C518   C     0.76211   0.17309   0.86076   0.00000  Uiso   1.00
C519   C     0.68357   0.19315   0.96157   0.00000  Uiso   1.00
C520   C     0.74492   0.27236   0.70951   0.00000  Uiso   1.00
C521   C     0.76364   0.20628   0.64925   0.00000  Uiso   1.00
C522   C     0.72107   0.20179   0.60731   0.00000  Uiso   1.00
C523   C     0.74777   0.13658   0.55492   0.00000  Uiso   1.00
C524   C     0.81146   0.29517   0.69967   0.00000  Uiso   1.00
C525   C     0.80910   0.36543   0.70013   0.00000  Uiso   1.00
C526   C     0.87606   0.37506   0.69021   0.00000  Uiso   1.00
C527   C     0.74401   0.24175   0.76698   0.00000  Uiso   1.00
C528   C     0.68495   0.26710   0.82405   0.00000  Uiso   1.00
C529   C     0.69513   0.23177   0.87080   0.00000  Uiso   1.00
H530   H     0.92007   0.11893   0.68326   0.00000  Uiso   1.00
H531   H     0.90902   0.03717   0.57915   0.00000  Uiso   1.00
H532   H     0.99703   0.20079   0.67197   0.00000  Uiso   1.00
H533   H     0.87290   0.10247   0.79586   0.00000  Uiso   1.00
H534   H     0.86728   0.97237   0.46813   0.00000  Uiso   1.00
H535   H     0.05286   0.31737   0.66387   0.00000  Uiso   1.00
H536   H     0.79111   0.11006   0.92513   0.00000  Uiso   1.00
H537   H     0.69286   0.31796   0.71732   0.00000  Uiso   1.00
H538   H     0.66933   0.24713   0.61507   0.00000  Uiso   1.00
H539   H     0.75735   0.41074   0.70789   0.00000  Uiso   1.00
H540   H     0.63322   0.31243   0.83179   0.00000  Uiso   1.00
H541   H     0.67275   0.14278   0.49729   0.00000  Uiso   1.00
H542   H     0.85833   0.48778   0.69303   0.00000  Uiso   1.00
H543   H     0.59658   0.28047   0.95428   0.00000  Uiso   1.00
O544   O     0.75865   0.00740   0.41482   0.00000  Uiso   1.00
O545   O     0.00212   0.46003   0.67164   0.00000  Uiso   1.00
O546   O     0.65871   0.18803   0.01439   0.00000  Uiso   1.00
N547   N     0.82472   0.02219   0.48903   0.00000  Uiso   1.00
N548   N     0.99823   0.34474   0.67203   0.00000  Uiso   1.00
N549   N     0.75352   0.15094   0.91628   0.00000  Uiso   1.00
N550   N     0.72004   0.11389   0.50472   0.00000  Uiso   1.00
N551   N     0.89355   0.43644   0.68772   0.00000  Uiso   1.00
N552   N     0.64884   0.24263   0.93197   0.00000  Uiso   1.00
