data_job_01092
_audit_creation_date              2018-12-19
_audit_creation_method            'Materials Studio'
_symmetry_space_group_name_H-M    'P1'
_symmetry_Int_Tables_number       1
_symmetry_cell_setting            triclinic
loop_
_symmetry_equiv_pos_as_xyz
  x,y,z
_cell_length_a                    31.1187
_cell_length_b                    9.2731
_cell_length_c                    23.3697
_cell_angle_alpha                 90.0000
_cell_angle_beta                  90.0000
_cell_angle_gamma                 90.0000
loop_
_atom_site_label
_atom_site_type_symbol
_atom_site_fract_x
_atom_site_fract_y
_atom_site_fract_z
_atom_site_U_iso_or_equiv
_atom_site_adp_type
_atom_site_occupancy
C1     C     0.61484   0.88491   0.46096   0.00000  Uiso   1.00
C2     C     0.63283   0.85152   0.40172   0.00000  Uiso   1.00
C3     C     0.61455   0.75903   0.36188   0.00000  Uiso   1.00
C4     C     0.63596   0.74297   0.31015   0.00000  Uiso   1.00
C5     C     0.65807   0.67983   0.21993   0.00000  Uiso   1.00
C6     C     0.65049   0.84812   0.50327   0.00000  Uiso   1.00
C7     C     0.64706   0.75278   0.54882   0.00000  Uiso   1.00
C8     C     0.68335   0.73388   0.58258   0.00000  Uiso   1.00
C9     C     0.73288   0.66554   0.65004   0.00000  Uiso   1.00
C10    C     0.60953   0.04826   0.46346   0.00000  Uiso   1.00
C11    C     0.57166   0.12121   0.47555   0.00000  Uiso   1.00
C12    C     0.57346   0.27082   0.47580   0.00000  Uiso   1.00
C13    C     0.55939   0.51323   0.48145   0.00000  Uiso   1.00
C14    C     0.68536   0.02088   0.43992   0.00000  Uiso   1.00
C15    C     0.67113   0.92537   0.39030   0.00000  Uiso   1.00
C16    C     0.69257   0.90946   0.33861   0.00000  Uiso   1.00
C17    C     0.67433   0.81696   0.29871   0.00000  Uiso   1.00
C18    C     0.68880   0.92197   0.49185   0.00000  Uiso   1.00
C19    C     0.72509   0.90321   0.52555   0.00000  Uiso   1.00
C20    C     0.72172   0.80786   0.57114   0.00000  Uiso   1.00
C21    C     0.64783   0.12212   0.45204   0.00000  Uiso   1.00
C22    C     0.64969   0.27164   0.45228   0.00000  Uiso   1.00
C23    C     0.61183   0.34481   0.46436   0.00000  Uiso   1.00
H24    H     0.58502   0.82742   0.46985   0.00000  Uiso   1.00
H25    H     0.58490   0.70188   0.37074   0.00000  Uiso   1.00
H26    H     0.61742   0.69566   0.55766   0.00000  Uiso   1.00
H27    H     0.54203   0.06403   0.48439   0.00000  Uiso   1.00
H28    H     0.60168   0.59524   0.25583   0.00000  Uiso   1.00
H29    H     0.67023   0.58214   0.64996   0.00000  Uiso   1.00
H30    H     0.51125   0.35893   0.49547   0.00000  Uiso   1.00
H31    H     0.71519   0.07838   0.43103   0.00000  Uiso   1.00
H32    H     0.72222   0.96662   0.32978   0.00000  Uiso   1.00
H33    H     0.75473   0.96039   0.51670   0.00000  Uiso   1.00
H34    H     0.67934   0.32876   0.44343   0.00000  Uiso   1.00
H35    H     0.71313   0.81010   0.22259   0.00000  Uiso   1.00
H36    H     0.78168   0.79701   0.61672   0.00000  Uiso   1.00
H37    H     0.62270   0.57379   0.46222   0.00000  Uiso   1.00
O38    O     0.65969   0.62459   0.17332   0.00000  Uiso   1.00
O39    O     0.74962   0.60743   0.69040   0.00000  Uiso   1.00
O40    O     0.54104   0.62654   0.48771   0.00000  Uiso   1.00
N41    N     0.62694   0.66117   0.26190   0.00000  Uiso   1.00
N42    N     0.69103   0.64890   0.63038   0.00000  Uiso   1.00
N43    N     0.54240   0.37513   0.48596   0.00000  Uiso   1.00
N44    N     0.68691   0.77678   0.24401   0.00000  Uiso   1.00
N45    N     0.75100   0.76452   0.61249   0.00000  Uiso   1.00
N46    N     0.60237   0.49075   0.46807   0.00000  Uiso   1.00
C47    C     0.88516   0.61509   0.96096   0.00000  Uiso   1.00
C48    C     0.86717   0.64848   0.90172   0.00000  Uiso   1.00
C49    C     0.88545   0.74097   0.86188   0.00000  Uiso   1.00
C50    C     0.86404   0.75703   0.81015   0.00000  Uiso   1.00
C51    C     0.84193   0.82017   0.71993   0.00000  Uiso   1.00
C52    C     0.84951   0.65188   0.00327   0.00000  Uiso   1.00
C53    C     0.85294   0.74722   0.04882   0.00000  Uiso   1.00
C54    C     0.81665   0.76612   0.08258   0.00000  Uiso   1.00
C55    C     0.76712   0.83446   0.15004   0.00000  Uiso   1.00
C56    C     0.89047   0.45174   0.96346   0.00000  Uiso   1.00
C57    C     0.92834   0.37879   0.97555   0.00000  Uiso   1.00
C58    C     0.92654   0.22918   0.97580   0.00000  Uiso   1.00
C59    C     0.94061   0.98677   0.98145   0.00000  Uiso   1.00
C60    C     0.81464   0.47912   0.93992   0.00000  Uiso   1.00
C61    C     0.82887   0.57463   0.89030   0.00000  Uiso   1.00
C62    C     0.80743   0.59054   0.83861   0.00000  Uiso   1.00
C63    C     0.82567   0.68304   0.79871   0.00000  Uiso   1.00
C64    C     0.81120   0.57803   0.99185   0.00000  Uiso   1.00
C65    C     0.77491   0.59679   0.02555   0.00000  Uiso   1.00
C66    C     0.77828   0.69214   0.07114   0.00000  Uiso   1.00
C67    C     0.85217   0.37788   0.95204   0.00000  Uiso   1.00
C68    C     0.85031   0.22836   0.95228   0.00000  Uiso   1.00
C69    C     0.88817   0.15519   0.96436   0.00000  Uiso   1.00
H70    H     0.91498   0.67258   0.96985   0.00000  Uiso   1.00
H71    H     0.91510   0.79812   0.87074   0.00000  Uiso   1.00
H72    H     0.88258   0.80434   0.05766   0.00000  Uiso   1.00
H73    H     0.95797   0.43597   0.98439   0.00000  Uiso   1.00
H74    H     0.89832   0.90476   0.75583   0.00000  Uiso   1.00
H75    H     0.82977   0.91786   0.14996   0.00000  Uiso   1.00
H76    H     0.98875   0.14107   0.99547   0.00000  Uiso   1.00
H77    H     0.78481   0.42162   0.93103   0.00000  Uiso   1.00
H78    H     0.77778   0.53338   0.82978   0.00000  Uiso   1.00
H79    H     0.74527   0.53961   0.01670   0.00000  Uiso   1.00
H80    H     0.82066   0.17124   0.94343   0.00000  Uiso   1.00
H81    H     0.78687   0.68990   0.72259   0.00000  Uiso   1.00
H82    H     0.71832   0.70299   0.11672   0.00000  Uiso   1.00
H83    H     0.87730   0.92621   0.96222   0.00000  Uiso   1.00
O84    O     0.84031   0.87541   0.67332   0.00000  Uiso   1.00
O85    O     0.75038   0.89257   0.19040   0.00000  Uiso   1.00
O86    O     0.95896   0.87346   0.98771   0.00000  Uiso   1.00
N87    N     0.87306   0.83883   0.76190   0.00000  Uiso   1.00
N88    N     0.80897   0.85110   0.13038   0.00000  Uiso   1.00
N89    N     0.95760   0.12487   0.98596   0.00000  Uiso   1.00
N90    N     0.81309   0.72322   0.74401   0.00000  Uiso   1.00
N91    N     0.74900   0.73548   0.11249   0.00000  Uiso   1.00
N92    N     0.89763   0.00925   0.96807   0.00000  Uiso   1.00
C93    C     0.38516   0.88491   0.03904   0.00000  Uiso   1.00
C94    C     0.36717   0.85152   0.09828   0.00000  Uiso   1.00
C95    C     0.38545   0.75903   0.13812   0.00000  Uiso   1.00
C96    C     0.36404   0.74297   0.18985   0.00000  Uiso   1.00
C97    C     0.34193   0.67983   0.28007   0.00000  Uiso   1.00
C98    C     0.34951   0.84812   0.99673   0.00000  Uiso   1.00
C99    C     0.35294   0.75278   0.95118   0.00000  Uiso   1.00
C100   C     0.31665   0.73388   0.91742   0.00000  Uiso   1.00
C101   C     0.26712   0.66554   0.84996   0.00000  Uiso   1.00
C102   C     0.39047   0.04826   0.03654   0.00000  Uiso   1.00
C103   C     0.42834   0.12121   0.02445   0.00000  Uiso   1.00
C104   C     0.42654   0.27082   0.02420   0.00000  Uiso   1.00
C105   C     0.44061   0.51323   0.01855   0.00000  Uiso   1.00
C106   C     0.31464   0.02088   0.06008   0.00000  Uiso   1.00
C107   C     0.32887   0.92537   0.10970   0.00000  Uiso   1.00
C108   C     0.30743   0.90946   0.16139   0.00000  Uiso   1.00
C109   C     0.32567   0.81696   0.20129   0.00000  Uiso   1.00
C110   C     0.31120   0.92197   0.00815   0.00000  Uiso   1.00
C111   C     0.27491   0.90321   0.97445   0.00000  Uiso   1.00
C112   C     0.27828   0.80786   0.92886   0.00000  Uiso   1.00
C113   C     0.35217   0.12212   0.04796   0.00000  Uiso   1.00
C114   C     0.35031   0.27164   0.04772   0.00000  Uiso   1.00
C115   C     0.38817   0.34481   0.03564   0.00000  Uiso   1.00
H116   H     0.41498   0.82742   0.03015   0.00000  Uiso   1.00
H117   H     0.41510   0.70188   0.12926   0.00000  Uiso   1.00
H118   H     0.38258   0.69566   0.94234   0.00000  Uiso   1.00
H119   H     0.45797   0.06403   0.01561   0.00000  Uiso   1.00
H120   H     0.39832   0.59524   0.24417   0.00000  Uiso   1.00
H121   H     0.32977   0.58214   0.85004   0.00000  Uiso   1.00
H122   H     0.48875   0.35893   0.00453   0.00000  Uiso   1.00
H123   H     0.28481   0.07838   0.06897   0.00000  Uiso   1.00
H124   H     0.27778   0.96662   0.17022   0.00000  Uiso   1.00
H125   H     0.24527   0.96039   0.98330   0.00000  Uiso   1.00
H126   H     0.32066   0.32876   0.05657   0.00000  Uiso   1.00
H127   H     0.28687   0.81010   0.27741   0.00000  Uiso   1.00
H128   H     0.21832   0.79701   0.88328   0.00000  Uiso   1.00
H129   H     0.37730   0.57379   0.03778   0.00000  Uiso   1.00
O130   O     0.34031   0.62459   0.32668   0.00000  Uiso   1.00
O131   O     0.25038   0.60743   0.80960   0.00000  Uiso   1.00
O132   O     0.45896   0.62654   0.01229   0.00000  Uiso   1.00
N133   N     0.37306   0.66117   0.23810   0.00000  Uiso   1.00
N134   N     0.30897   0.64890   0.86962   0.00000  Uiso   1.00
N135   N     0.45760   0.37513   0.01404   0.00000  Uiso   1.00
N136   N     0.31309   0.77678   0.25599   0.00000  Uiso   1.00
N137   N     0.24900   0.76452   0.88751   0.00000  Uiso   1.00
N138   N     0.39763   0.49075   0.03193   0.00000  Uiso   1.00
C139   C     0.11484   0.61509   0.53904   0.00000  Uiso   1.00
C140   C     0.13283   0.64848   0.59828   0.00000  Uiso   1.00
C141   C     0.11455   0.74097   0.63812   0.00000  Uiso   1.00
C142   C     0.13596   0.75703   0.68985   0.00000  Uiso   1.00
C143   C     0.15807   0.82017   0.78007   0.00000  Uiso   1.00
C144   C     0.15049   0.65188   0.49673   0.00000  Uiso   1.00
C145   C     0.14706   0.74722   0.45118   0.00000  Uiso   1.00
C146   C     0.18335   0.76612   0.41742   0.00000  Uiso   1.00
C147   C     0.23288   0.83446   0.34996   0.00000  Uiso   1.00
C148   C     0.10953   0.45174   0.53654   0.00000  Uiso   1.00
C149   C     0.07166   0.37879   0.52445   0.00000  Uiso   1.00
C150   C     0.07346   0.22918   0.52420   0.00000  Uiso   1.00
C151   C     0.05939   0.98677   0.51855   0.00000  Uiso   1.00
C152   C     0.18536   0.47912   0.56008   0.00000  Uiso   1.00
C153   C     0.17113   0.57463   0.60970   0.00000  Uiso   1.00
C154   C     0.19257   0.59054   0.66139   0.00000  Uiso   1.00
C155   C     0.17433   0.68304   0.70129   0.00000  Uiso   1.00
C156   C     0.18880   0.57803   0.50815   0.00000  Uiso   1.00
C157   C     0.22509   0.59679   0.47445   0.00000  Uiso   1.00
C158   C     0.22172   0.69214   0.42886   0.00000  Uiso   1.00
C159   C     0.14783   0.37788   0.54796   0.00000  Uiso   1.00
C160   C     0.14969   0.22836   0.54772   0.00000  Uiso   1.00
C161   C     0.11183   0.15519   0.53564   0.00000  Uiso   1.00
H162   H     0.08502   0.67258   0.53015   0.00000  Uiso   1.00
H163   H     0.08490   0.79812   0.62926   0.00000  Uiso   1.00
H164   H     0.11742   0.80434   0.44234   0.00000  Uiso   1.00
H165   H     0.04203   0.43597   0.51561   0.00000  Uiso   1.00
H166   H     0.10168   0.90476   0.74417   0.00000  Uiso   1.00
H167   H     0.17023   0.91786   0.35004   0.00000  Uiso   1.00
H168   H     0.01125   0.14107   0.50453   0.00000  Uiso   1.00
H169   H     0.21519   0.42162   0.56897   0.00000  Uiso   1.00
H170   H     0.22222   0.53338   0.67022   0.00000  Uiso   1.00
H171   H     0.25473   0.53961   0.48330   0.00000  Uiso   1.00
H172   H     0.17934   0.17124   0.55657   0.00000  Uiso   1.00
H173   H     0.21313   0.68990   0.77741   0.00000  Uiso   1.00
H174   H     0.28168   0.70299   0.38328   0.00000  Uiso   1.00
H175   H     0.12270   0.92621   0.53778   0.00000  Uiso   1.00
O176   O     0.15969   0.87541   0.82668   0.00000  Uiso   1.00
O177   O     0.24962   0.89257   0.30960   0.00000  Uiso   1.00
O178   O     0.04104   0.87346   0.51229   0.00000  Uiso   1.00
N179   N     0.12694   0.83883   0.73810   0.00000  Uiso   1.00
N180   N     0.19103   0.85110   0.36962   0.00000  Uiso   1.00
N181   N     0.04240   0.12487   0.51404   0.00000  Uiso   1.00
N182   N     0.18691   0.72322   0.75599   0.00000  Uiso   1.00
N183   N     0.25100   0.73548   0.38751   0.00000  Uiso   1.00
N184   N     0.10237   0.00925   0.53193   0.00000  Uiso   1.00
C185   C     0.38516   0.11509   0.53904   0.00000  Uiso   1.00
C186   C     0.36717   0.14848   0.59828   0.00000  Uiso   1.00
C187   C     0.38545   0.24097   0.63812   0.00000  Uiso   1.00
C188   C     0.36404   0.25703   0.68985   0.00000  Uiso   1.00
C189   C     0.34193   0.32017   0.78007   0.00000  Uiso   1.00
C190   C     0.34951   0.15188   0.49673   0.00000  Uiso   1.00
C191   C     0.35294   0.24722   0.45118   0.00000  Uiso   1.00
C192   C     0.31665   0.26612   0.41742   0.00000  Uiso   1.00
C193   C     0.26712   0.33446   0.34996   0.00000  Uiso   1.00
C194   C     0.39047   0.95174   0.53654   0.00000  Uiso   1.00
C195   C     0.42834   0.87879   0.52445   0.00000  Uiso   1.00
C196   C     0.42654   0.72918   0.52420   0.00000  Uiso   1.00
C197   C     0.44061   0.48677   0.51855   0.00000  Uiso   1.00
C198   C     0.31464   0.97912   0.56008   0.00000  Uiso   1.00
C199   C     0.32887   0.07463   0.60970   0.00000  Uiso   1.00
C200   C     0.30743   0.09054   0.66139   0.00000  Uiso   1.00
C201   C     0.32567   0.18304   0.70129   0.00000  Uiso   1.00
C202   C     0.31120   0.07803   0.50815   0.00000  Uiso   1.00
C203   C     0.27491   0.09679   0.47445   0.00000  Uiso   1.00
C204   C     0.27828   0.19214   0.42886   0.00000  Uiso   1.00
C205   C     0.35217   0.87788   0.54796   0.00000  Uiso   1.00
C206   C     0.35031   0.72836   0.54772   0.00000  Uiso   1.00
C207   C     0.38817   0.65519   0.53564   0.00000  Uiso   1.00
H208   H     0.41498   0.17258   0.53015   0.00000  Uiso   1.00
H209   H     0.41510   0.29812   0.62926   0.00000  Uiso   1.00
H210   H     0.38258   0.30434   0.44234   0.00000  Uiso   1.00
H211   H     0.45797   0.93597   0.51561   0.00000  Uiso   1.00
H212   H     0.39832   0.40476   0.74417   0.00000  Uiso   1.00
H213   H     0.32977   0.41786   0.35004   0.00000  Uiso   1.00
H214   H     0.48875   0.64107   0.50453   0.00000  Uiso   1.00
H215   H     0.28481   0.92162   0.56897   0.00000  Uiso   1.00
H216   H     0.27778   0.03338   0.67022   0.00000  Uiso   1.00
H217   H     0.24527   0.03961   0.48330   0.00000  Uiso   1.00
H218   H     0.32066   0.67124   0.55657   0.00000  Uiso   1.00
H219   H     0.28687   0.18990   0.77741   0.00000  Uiso   1.00
H220   H     0.21832   0.20299   0.38328   0.00000  Uiso   1.00
H221   H     0.37730   0.42621   0.53778   0.00000  Uiso   1.00
O222   O     0.34031   0.37541   0.82668   0.00000  Uiso   1.00
O223   O     0.25038   0.39257   0.30960   0.00000  Uiso   1.00
O224   O     0.45896   0.37346   0.51229   0.00000  Uiso   1.00
N225   N     0.37306   0.33883   0.73810   0.00000  Uiso   1.00
N226   N     0.30897   0.35110   0.36962   0.00000  Uiso   1.00
N227   N     0.45760   0.62487   0.51404   0.00000  Uiso   1.00
N228   N     0.31309   0.22322   0.75599   0.00000  Uiso   1.00
N229   N     0.24900   0.23548   0.38751   0.00000  Uiso   1.00
N230   N     0.39763   0.50925   0.53193   0.00000  Uiso   1.00
C231   C     0.11484   0.38491   0.03904   0.00000  Uiso   1.00
C232   C     0.13283   0.35152   0.09828   0.00000  Uiso   1.00
C233   C     0.11455   0.25903   0.13812   0.00000  Uiso   1.00
C234   C     0.13596   0.24297   0.18985   0.00000  Uiso   1.00
C235   C     0.15807   0.17983   0.28007   0.00000  Uiso   1.00
C236   C     0.15049   0.34812   0.99673   0.00000  Uiso   1.00
C237   C     0.14706   0.25278   0.95118   0.00000  Uiso   1.00
C238   C     0.18335   0.23388   0.91742   0.00000  Uiso   1.00
C239   C     0.23288   0.16554   0.84996   0.00000  Uiso   1.00
C240   C     0.10953   0.54826   0.03654   0.00000  Uiso   1.00
C241   C     0.07166   0.62121   0.02445   0.00000  Uiso   1.00
C242   C     0.07346   0.77082   0.02420   0.00000  Uiso   1.00
C243   C     0.05939   0.01323   0.01855   0.00000  Uiso   1.00
C244   C     0.18536   0.52088   0.06008   0.00000  Uiso   1.00
C245   C     0.17113   0.42537   0.10970   0.00000  Uiso   1.00
C246   C     0.19257   0.40946   0.16139   0.00000  Uiso   1.00
C247   C     0.17433   0.31696   0.20129   0.00000  Uiso   1.00
C248   C     0.18880   0.42197   0.00815   0.00000  Uiso   1.00
C249   C     0.22509   0.40321   0.97445   0.00000  Uiso   1.00
C250   C     0.22172   0.30786   0.92886   0.00000  Uiso   1.00
C251   C     0.14783   0.62212   0.04796   0.00000  Uiso   1.00
C252   C     0.14969   0.77164   0.04772   0.00000  Uiso   1.00
C253   C     0.11183   0.84481   0.03564   0.00000  Uiso   1.00
H254   H     0.08502   0.32742   0.03015   0.00000  Uiso   1.00
H255   H     0.08490   0.20188   0.12926   0.00000  Uiso   1.00
H256   H     0.11742   0.19566   0.94234   0.00000  Uiso   1.00
H257   H     0.04203   0.56403   0.01561   0.00000  Uiso   1.00
H258   H     0.10168   0.09524   0.24417   0.00000  Uiso   1.00
H259   H     0.17023   0.08214   0.85004   0.00000  Uiso   1.00
H260   H     0.01125   0.85893   0.00453   0.00000  Uiso   1.00
H261   H     0.21519   0.57838   0.06897   0.00000  Uiso   1.00
H262   H     0.22222   0.46662   0.17022   0.00000  Uiso   1.00
H263   H     0.25473   0.46039   0.98330   0.00000  Uiso   1.00
H264   H     0.17934   0.82876   0.05657   0.00000  Uiso   1.00
H265   H     0.21313   0.31010   0.27741   0.00000  Uiso   1.00
H266   H     0.28168   0.29701   0.88328   0.00000  Uiso   1.00
H267   H     0.12270   0.07379   0.03778   0.00000  Uiso   1.00
O268   O     0.15969   0.12459   0.32668   0.00000  Uiso   1.00
O269   O     0.24962   0.10743   0.80960   0.00000  Uiso   1.00
O270   O     0.04104   0.12654   0.01229   0.00000  Uiso   1.00
N271   N     0.12694   0.16117   0.23810   0.00000  Uiso   1.00
N272   N     0.19103   0.14890   0.86962   0.00000  Uiso   1.00
N273   N     0.04240   0.87513   0.01404   0.00000  Uiso   1.00
N274   N     0.18691   0.27678   0.25599   0.00000  Uiso   1.00
N275   N     0.25100   0.26452   0.88751   0.00000  Uiso   1.00
N276   N     0.10237   0.99075   0.03193   0.00000  Uiso   1.00
C277   C     0.61484   0.11509   0.96096   0.00000  Uiso   1.00
C278   C     0.63283   0.14848   0.90172   0.00000  Uiso   1.00
C279   C     0.61455   0.24097   0.86188   0.00000  Uiso   1.00
C280   C     0.63596   0.25703   0.81015   0.00000  Uiso   1.00
C281   C     0.65807   0.32017   0.71993   0.00000  Uiso   1.00
C282   C     0.65049   0.15188   0.00327   0.00000  Uiso   1.00
C283   C     0.64706   0.24722   0.04882   0.00000  Uiso   1.00
C284   C     0.68335   0.26612   0.08258   0.00000  Uiso   1.00
C285   C     0.73288   0.33446   0.15004   0.00000  Uiso   1.00
C286   C     0.60953   0.95174   0.96346   0.00000  Uiso   1.00
C287   C     0.57166   0.87879   0.97555   0.00000  Uiso   1.00
C288   C     0.57346   0.72918   0.97580   0.00000  Uiso   1.00
C289   C     0.55939   0.48677   0.98145   0.00000  Uiso   1.00
C290   C     0.68536   0.97912   0.93992   0.00000  Uiso   1.00
C291   C     0.67113   0.07463   0.89030   0.00000  Uiso   1.00
C292   C     0.69257   0.09054   0.83861   0.00000  Uiso   1.00
C293   C     0.67433   0.18304   0.79871   0.00000  Uiso   1.00
C294   C     0.68880   0.07803   0.99185   0.00000  Uiso   1.00
C295   C     0.72509   0.09679   0.02555   0.00000  Uiso   1.00
C296   C     0.72172   0.19214   0.07114   0.00000  Uiso   1.00
C297   C     0.64783   0.87788   0.95204   0.00000  Uiso   1.00
C298   C     0.64969   0.72836   0.95228   0.00000  Uiso   1.00
C299   C     0.61183   0.65519   0.96436   0.00000  Uiso   1.00
H300   H     0.58502   0.17258   0.96985   0.00000  Uiso   1.00
H301   H     0.58490   0.29812   0.87074   0.00000  Uiso   1.00
H302   H     0.61742   0.30434   0.05766   0.00000  Uiso   1.00
H303   H     0.54203   0.93597   0.98439   0.00000  Uiso   1.00
H304   H     0.60168   0.40476   0.75583   0.00000  Uiso   1.00
H305   H     0.67023   0.41786   0.14996   0.00000  Uiso   1.00
H306   H     0.51125   0.64107   0.99547   0.00000  Uiso   1.00
H307   H     0.71519   0.92162   0.93103   0.00000  Uiso   1.00
H308   H     0.72222   0.03338   0.82978   0.00000  Uiso   1.00
H309   H     0.75473   0.03961   0.01670   0.00000  Uiso   1.00
H310   H     0.67934   0.67124   0.94343   0.00000  Uiso   1.00
H311   H     0.71313   0.18990   0.72259   0.00000  Uiso   1.00
H312   H     0.78168   0.20299   0.11672   0.00000  Uiso   1.00
H313   H     0.62270   0.42621   0.96222   0.00000  Uiso   1.00
O314   O     0.65969   0.37541   0.67332   0.00000  Uiso   1.00
O315   O     0.74962   0.39257   0.19040   0.00000  Uiso   1.00
O316   O     0.54104   0.37346   0.98771   0.00000  Uiso   1.00
N317   N     0.62694   0.33883   0.76190   0.00000  Uiso   1.00
N318   N     0.69103   0.35110   0.13038   0.00000  Uiso   1.00
N319   N     0.54240   0.62487   0.98596   0.00000  Uiso   1.00
N320   N     0.68691   0.22322   0.74401   0.00000  Uiso   1.00
N321   N     0.75100   0.23548   0.11249   0.00000  Uiso   1.00
N322   N     0.60237   0.50925   0.96807   0.00000  Uiso   1.00
C323   C     0.88516   0.38491   0.46096   0.00000  Uiso   1.00
C324   C     0.86717   0.35152   0.40172   0.00000  Uiso   1.00
C325   C     0.88545   0.25903   0.36188   0.00000  Uiso   1.00
C326   C     0.86404   0.24297   0.31015   0.00000  Uiso   1.00
C327   C     0.84193   0.17983   0.21993   0.00000  Uiso   1.00
C328   C     0.84951   0.34812   0.50327   0.00000  Uiso   1.00
C329   C     0.85294   0.25278   0.54882   0.00000  Uiso   1.00
C330   C     0.81665   0.23388   0.58258   0.00000  Uiso   1.00
C331   C     0.76712   0.16554   0.65004   0.00000  Uiso   1.00
C332   C     0.89047   0.54826   0.46346   0.00000  Uiso   1.00
C333   C     0.92834   0.62121   0.47555   0.00000  Uiso   1.00
C334   C     0.92654   0.77082   0.47580   0.00000  Uiso   1.00
C335   C     0.94061   0.01323   0.48145   0.00000  Uiso   1.00
C336   C     0.81464   0.52088   0.43992   0.00000  Uiso   1.00
C337   C     0.82887   0.42537   0.39030   0.00000  Uiso   1.00
C338   C     0.80743   0.40946   0.33861   0.00000  Uiso   1.00
C339   C     0.82567   0.31696   0.29871   0.00000  Uiso   1.00
C340   C     0.81120   0.42197   0.49185   0.00000  Uiso   1.00
C341   C     0.77491   0.40321   0.52555   0.00000  Uiso   1.00
C342   C     0.77828   0.30786   0.57114   0.00000  Uiso   1.00
C343   C     0.85217   0.62212   0.45204   0.00000  Uiso   1.00
C344   C     0.85031   0.77164   0.45228   0.00000  Uiso   1.00
C345   C     0.88817   0.84481   0.46436   0.00000  Uiso   1.00
H346   H     0.91498   0.32742   0.46985   0.00000  Uiso   1.00
H347   H     0.91510   0.20188   0.37074   0.00000  Uiso   1.00
H348   H     0.88258   0.19566   0.55766   0.00000  Uiso   1.00
H349   H     0.95797   0.56403   0.48439   0.00000  Uiso   1.00
H350   H     0.89832   0.09524   0.25583   0.00000  Uiso   1.00
H351   H     0.82977   0.08214   0.64996   0.00000  Uiso   1.00
H352   H     0.98875   0.85893   0.49547   0.00000  Uiso   1.00
H353   H     0.78481   0.57838   0.43103   0.00000  Uiso   1.00
H354   H     0.77778   0.46662   0.32978   0.00000  Uiso   1.00
H355   H     0.74527   0.46039   0.51670   0.00000  Uiso   1.00
H356   H     0.82066   0.82876   0.44343   0.00000  Uiso   1.00
H357   H     0.78687   0.31010   0.22259   0.00000  Uiso   1.00
H358   H     0.71832   0.29701   0.61672   0.00000  Uiso   1.00
H359   H     0.87730   0.07379   0.46222   0.00000  Uiso   1.00
O360   O     0.84031   0.12459   0.17332   0.00000  Uiso   1.00
O361   O     0.75038   0.10743   0.69040   0.00000  Uiso   1.00
O362   O     0.95896   0.12654   0.48771   0.00000  Uiso   1.00
N363   N     0.87306   0.16117   0.26190   0.00000  Uiso   1.00
N364   N     0.80897   0.14890   0.63038   0.00000  Uiso   1.00
N365   N     0.95760   0.87513   0.48596   0.00000  Uiso   1.00
N366   N     0.81309   0.27678   0.24401   0.00000  Uiso   1.00
N367   N     0.74900   0.26452   0.61249   0.00000  Uiso   1.00
N368   N     0.89763   0.99075   0.46807   0.00000  Uiso   1.00
