data_job_05405
_audit_creation_date              2018-12-19
_audit_creation_method            'Materials Studio'
_symmetry_space_group_name_H-M    'P1'
_symmetry_Int_Tables_number       1
_symmetry_cell_setting            triclinic
loop_
_symmetry_equiv_pos_as_xyz
  x,y,z
_cell_length_a                    12.7385
_cell_length_b                    25.0074
_cell_length_c                    16.3775
_cell_angle_alpha                 90.0000
_cell_angle_beta                  96.6577
_cell_angle_gamma                 90.0000
loop_
_atom_site_label
_atom_site_type_symbol
_atom_site_fract_x
_atom_site_fract_y
_atom_site_fract_z
_atom_site_U_iso_or_equiv
_atom_site_adp_type
_atom_site_occupancy
C1     C     0.84259   0.11775   0.80731   0.00000  Uiso   1.00
C2     C     0.85787   0.06087   0.84010   0.00000  Uiso   1.00
C3     C     0.85267   0.04498   0.92072   0.00000  Uiso   1.00
C4     C     0.86894   0.99111   0.93838   0.00000  Uiso   1.00
C5     C     0.88956   0.90836   0.99856   0.00000  Uiso   1.00
C6     C     0.94243   0.13134   0.76845   0.00000  Uiso   1.00
C7     C     0.00831   0.17469   0.78882   0.00000  Uiso   1.00
C8     C     0.09575   0.18014   0.74616   0.00000  Uiso   1.00
C9     C     0.24761   0.20681   0.69506   0.00000  Uiso   1.00
C10    C     0.75362   0.11486   0.73664   0.00000  Uiso   1.00
C11    C     0.66077   0.14437   0.73024   0.00000  Uiso   1.00
C12    C     0.58925   0.13596   0.66078   0.00000  Uiso   1.00
C13    C     0.44796   0.13705   0.56028   0.00000  Uiso   1.00
C14    C     0.88072   0.05035   0.69532   0.00000  Uiso   1.00
C15    C     0.87859   0.02426   0.77927   0.00000  Uiso   1.00
C16    C     0.89486   0.97040   0.79682   0.00000  Uiso   1.00
C17    C     0.88968   0.95443   0.87745   0.00000  Uiso   1.00
C18    C     0.96314   0.09473   0.70763   0.00000  Uiso   1.00
C19    C     0.05050   0.10012   0.66492   0.00000  Uiso   1.00
C20    C     0.11650   0.14346   0.68522   0.00000  Uiso   1.00
C21    C     0.77433   0.07825   0.67581   0.00000  Uiso   1.00
C22    C     0.70295   0.06979   0.60634   0.00000  Uiso   1.00
C23    C     0.61000   0.09928   0.59985   0.00000  Uiso   1.00
H24    H     0.82647   0.14626   0.85466   0.00000  Uiso   1.00
H25    H     0.83665   0.07332   0.96778   0.00000  Uiso   1.00
H26    H     0.99226   0.20302   0.83589   0.00000  Uiso   1.00
H27    H     0.64477   0.17270   0.77732   0.00000  Uiso   1.00
H28    H     0.85710   0.97632   0.06636   0.00000  Uiso   1.00
H29    H     0.18519   0.24980   0.78825   0.00000  Uiso   1.00
H30    H     0.45244   0.18587   0.66475   0.00000  Uiso   1.00
H31    H     0.89685   0.02185   0.64796   0.00000  Uiso   1.00
H32    H     0.91088   0.94208   0.74973   0.00000  Uiso   1.00
H33    H     0.06650   0.07178   0.61785   0.00000  Uiso   1.00
H34    H     0.71901   0.04146   0.55928   0.00000  Uiso   1.00
H35    H     0.91736   0.86979   0.88939   0.00000  Uiso   1.00
H36    H     0.24545   0.14328   0.61128   0.00000  Uiso   1.00
H37    H     0.51270   0.07935   0.48778   0.00000  Uiso   1.00
O38    O     0.89523   0.87283   0.04856   0.00000  Uiso   1.00
O39    O     0.32565   0.23164   0.68368   0.00000  Uiso   1.00
O40    O     0.36430   0.14776   0.52166   0.00000  Uiso   1.00
N41    N     0.86934   0.96219   0.01074   0.00000  Uiso   1.00
N42    N     0.17609   0.21788   0.75074   0.00000  Uiso   1.00
N43    N     0.49104   0.15812   0.63526   0.00000  Uiso   1.00
N44    N     0.90176   0.90487   0.91552   0.00000  Uiso   1.00
N45    N     0.20851   0.16056   0.65551   0.00000  Uiso   1.00
N46    N     0.52346   0.10080   0.54004   0.00000  Uiso   1.00
C47    C     0.34391   0.56779   0.30609   0.00000  Uiso   1.00
C48    C     0.35838   0.51067   0.33801   0.00000  Uiso   1.00
C49    C     0.35286   0.49429   0.41836   0.00000  Uiso   1.00
C50    C     0.36838   0.44027   0.43520   0.00000  Uiso   1.00
C51    C     0.38781   0.35710   0.49411   0.00000  Uiso   1.00
C52    C     0.44399   0.58132   0.26752   0.00000  Uiso   1.00
C53    C     0.51044   0.62435   0.28860   0.00000  Uiso   1.00
C54    C     0.59801   0.62981   0.24610   0.00000  Uiso   1.00
C55    C     0.75031   0.65635   0.19553   0.00000  Uiso   1.00
C56    C     0.25499   0.56558   0.23531   0.00000  Uiso   1.00
C57    C     0.16253   0.59540   0.22931   0.00000  Uiso   1.00
C58    C     0.09098   0.58762   0.15968   0.00000  Uiso   1.00
C59    C     0.94983   0.58973   0.05911   0.00000  Uiso   1.00
C60    C     0.38129   0.50096   0.19311   0.00000  Uiso   1.00
C61    C     0.37868   0.47437   0.27664   0.00000  Uiso   1.00
C62    C     0.39421   0.42036   0.29336   0.00000  Uiso   1.00
C63    C     0.38871   0.40391   0.37373   0.00000  Uiso   1.00
C64    C     0.46429   0.54502   0.20615   0.00000  Uiso   1.00
C65    C     0.55179   0.55042   0.16360   0.00000  Uiso   1.00
C66    C     0.61835   0.59345   0.18462   0.00000  Uiso   1.00
C67    C     0.27528   0.52928   0.17395   0.00000  Uiso   1.00
C68    C     0.20388   0.52146   0.10431   0.00000  Uiso   1.00
C69    C     0.11132   0.55126   0.09820   0.00000  Uiso   1.00
H70    H     0.32811   0.59605   0.35386   0.00000  Uiso   1.00
H71    H     0.33716   0.52240   0.46584   0.00000  Uiso   1.00
H72    H     0.49470   0.65244   0.33609   0.00000  Uiso   1.00
H73    H     0.14684   0.62349   0.27681   0.00000  Uiso   1.00
H74    H     0.35618   0.42474   0.56292   0.00000  Uiso   1.00
H75    H     0.68834   0.69895   0.28933   0.00000  Uiso   1.00
H76    H     0.95482   0.63790   0.16431   0.00000  Uiso   1.00
H77    H     0.39709   0.47270   0.14533   0.00000  Uiso   1.00
H78    H     0.40992   0.39228   0.24586   0.00000  Uiso   1.00
H79    H     0.56747   0.52232   0.11612   0.00000  Uiso   1.00
H80    H     0.21961   0.49337   0.05683   0.00000  Uiso   1.00
H81    H     0.41524   0.31913   0.38438   0.00000  Uiso   1.00
H82    H     0.74741   0.59334   0.11079   0.00000  Uiso   1.00
H83    H     0.01388   0.53229   0.98578   0.00000  Uiso   1.00
O84    O     0.39294   0.32126   0.54356   0.00000  Uiso   1.00
O85    O     0.82871   0.68102   0.18460   0.00000  Uiso   1.00
O86    O     0.86635   0.60092   0.02059   0.00000  Uiso   1.00
N87    N     0.36830   0.41092   0.50710   0.00000  Uiso   1.00
N88    N     0.67886   0.66728   0.25132   0.00000  Uiso   1.00
N89    N     0.99309   0.61022   0.13443   0.00000  Uiso   1.00
N90    N     0.40007   0.35409   0.41103   0.00000  Uiso   1.00
N91    N     0.71064   0.61045   0.15525   0.00000  Uiso   1.00
N92    N     0.02487   0.55339   0.03836   0.00000  Uiso   1.00
C93    C     0.15741   0.61775   0.69269   0.00000  Uiso   1.00
C94    C     0.14213   0.56087   0.65990   0.00000  Uiso   1.00
C95    C     0.14733   0.54498   0.57928   0.00000  Uiso   1.00
C96    C     0.13106   0.49111   0.56162   0.00000  Uiso   1.00
C97    C     0.11044   0.40836   0.50144   0.00000  Uiso   1.00
C98    C     0.05757   0.63134   0.73155   0.00000  Uiso   1.00
C99    C     0.99169   0.67469   0.71118   0.00000  Uiso   1.00
C100   C     0.90425   0.68014   0.75384   0.00000  Uiso   1.00
C101   C     0.75239   0.70681   0.80494   0.00000  Uiso   1.00
C102   C     0.24638   0.61486   0.76336   0.00000  Uiso   1.00
C103   C     0.33923   0.64437   0.76976   0.00000  Uiso   1.00
C104   C     0.41075   0.63596   0.83922   0.00000  Uiso   1.00
C105   C     0.55204   0.63705   0.93972   0.00000  Uiso   1.00
C106   C     0.11928   0.55035   0.80468   0.00000  Uiso   1.00
C107   C     0.12141   0.52426   0.72073   0.00000  Uiso   1.00
C108   C     0.10514   0.47040   0.70318   0.00000  Uiso   1.00
C109   C     0.11032   0.45443   0.62255   0.00000  Uiso   1.00
C110   C     0.03686   0.59473   0.79237   0.00000  Uiso   1.00
C111   C     0.94950   0.60012   0.83508   0.00000  Uiso   1.00
C112   C     0.88350   0.64346   0.81478   0.00000  Uiso   1.00
C113   C     0.22567   0.57825   0.82419   0.00000  Uiso   1.00
C114   C     0.29705   0.56979   0.89366   0.00000  Uiso   1.00
C115   C     0.39000   0.59928   0.90015   0.00000  Uiso   1.00
H116   H     0.17353   0.64626   0.64534   0.00000  Uiso   1.00
H117   H     0.16335   0.57332   0.53222   0.00000  Uiso   1.00
H118   H     0.00774   0.70302   0.66411   0.00000  Uiso   1.00
H119   H     0.35523   0.67270   0.72268   0.00000  Uiso   1.00
H120   H     0.14290   0.47632   0.43364   0.00000  Uiso   1.00
H121   H     0.81481   0.74980   0.71175   0.00000  Uiso   1.00
H122   H     0.54756   0.68587   0.83525   0.00000  Uiso   1.00
H123   H     0.10315   0.52185   0.85204   0.00000  Uiso   1.00
H124   H     0.08912   0.44208   0.75027   0.00000  Uiso   1.00
H125   H     0.93350   0.57178   0.88215   0.00000  Uiso   1.00
H126   H     0.28099   0.54146   0.94072   0.00000  Uiso   1.00
H127   H     0.08264   0.36979   0.61061   0.00000  Uiso   1.00
H128   H     0.75455   0.64328   0.88872   0.00000  Uiso   1.00
H129   H     0.48730   0.57935   0.01222   0.00000  Uiso   1.00
O130   O     0.10477   0.37283   0.45144   0.00000  Uiso   1.00
O131   O     0.67435   0.73164   0.81632   0.00000  Uiso   1.00
O132   O     0.63570   0.64776   0.97834   0.00000  Uiso   1.00
N133   N     0.13066   0.46219   0.48926   0.00000  Uiso   1.00
N134   N     0.82391   0.71788   0.74926   0.00000  Uiso   1.00
N135   N     0.50896   0.65812   0.86474   0.00000  Uiso   1.00
N136   N     0.09824   0.40487   0.58448   0.00000  Uiso   1.00
N137   N     0.79149   0.66056   0.84449   0.00000  Uiso   1.00
N138   N     0.47654   0.60080   0.95996   0.00000  Uiso   1.00
C139   C     0.65609   0.06779   0.19391   0.00000  Uiso   1.00
C140   C     0.64162   0.01067   0.16199   0.00000  Uiso   1.00
C141   C     0.64714   0.99429   0.08164   0.00000  Uiso   1.00
C142   C     0.63162   0.94027   0.06480   0.00000  Uiso   1.00
C143   C     0.61219   0.85710   0.00589   0.00000  Uiso   1.00
C144   C     0.55601   0.08132   0.23248   0.00000  Uiso   1.00
C145   C     0.48956   0.12435   0.21140   0.00000  Uiso   1.00
C146   C     0.40199   0.12981   0.25390   0.00000  Uiso   1.00
C147   C     0.24969   0.15635   0.30447   0.00000  Uiso   1.00
C148   C     0.74501   0.06558   0.26469   0.00000  Uiso   1.00
C149   C     0.83747   0.09540   0.27069   0.00000  Uiso   1.00
C150   C     0.90902   0.08762   0.34032   0.00000  Uiso   1.00
C151   C     0.05017   0.08973   0.44089   0.00000  Uiso   1.00
C152   C     0.61871   0.00096   0.30689   0.00000  Uiso   1.00
C153   C     0.62132   0.97437   0.22336   0.00000  Uiso   1.00
C154   C     0.60579   0.92036   0.20664   0.00000  Uiso   1.00
C155   C     0.61129   0.90391   0.12627   0.00000  Uiso   1.00
C156   C     0.53571   0.04502   0.29385   0.00000  Uiso   1.00
C157   C     0.44821   0.05042   0.33640   0.00000  Uiso   1.00
C158   C     0.38165   0.09345   0.31538   0.00000  Uiso   1.00
C159   C     0.72472   0.02928   0.32605   0.00000  Uiso   1.00
C160   C     0.79612   0.02146   0.39569   0.00000  Uiso   1.00
C161   C     0.88868   0.05126   0.40180   0.00000  Uiso   1.00
H162   H     0.67189   0.09605   0.14614   0.00000  Uiso   1.00
H163   H     0.66284   0.02240   0.03416   0.00000  Uiso   1.00
H164   H     0.50530   0.15244   0.16391   0.00000  Uiso   1.00
H165   H     0.85316   0.12349   0.22319   0.00000  Uiso   1.00
H166   H     0.64382   0.92474   0.93708   0.00000  Uiso   1.00
H167   H     0.31166   0.19895   0.21067   0.00000  Uiso   1.00
H168   H     0.04518   0.13790   0.33569   0.00000  Uiso   1.00
H169   H     0.60291   0.97270   0.35467   0.00000  Uiso   1.00
H170   H     0.59008   0.89228   0.25414   0.00000  Uiso   1.00
H171   H     0.43253   0.02232   0.38388   0.00000  Uiso   1.00
H172   H     0.78039   0.99337   0.44317   0.00000  Uiso   1.00
H173   H     0.58476   0.81913   0.11562   0.00000  Uiso   1.00
H174   H     0.25259   0.09334   0.38921   0.00000  Uiso   1.00
H175   H     0.98612   0.03229   0.51422   0.00000  Uiso   1.00
O176   O     0.60706   0.82126   0.95644   0.00000  Uiso   1.00
O177   O     0.17129   0.18102   0.31540   0.00000  Uiso   1.00
O178   O     0.13365   0.10092   0.47941   0.00000  Uiso   1.00
N179   N     0.63170   0.91092   0.99290   0.00000  Uiso   1.00
N180   N     0.32114   0.16728   0.24868   0.00000  Uiso   1.00
N181   N     0.00691   0.11022   0.36557   0.00000  Uiso   1.00
N182   N     0.59993   0.85409   0.08897   0.00000  Uiso   1.00
N183   N     0.28936   0.11045   0.34475   0.00000  Uiso   1.00
N184   N     0.97513   0.05339   0.46164   0.00000  Uiso   1.00
C185   C     0.15741   0.88225   0.19269   0.00000  Uiso   1.00
C186   C     0.14213   0.93913   0.15990   0.00000  Uiso   1.00
C187   C     0.14733   0.95502   0.07928   0.00000  Uiso   1.00
C188   C     0.13106   0.00889   0.06162   0.00000  Uiso   1.00
C189   C     0.11044   0.09164   0.00144   0.00000  Uiso   1.00
C190   C     0.05757   0.86866   0.23155   0.00000  Uiso   1.00
C191   C     0.99169   0.82531   0.21118   0.00000  Uiso   1.00
C192   C     0.90425   0.81986   0.25384   0.00000  Uiso   1.00
C193   C     0.75239   0.79319   0.30494   0.00000  Uiso   1.00
C194   C     0.24638   0.88514   0.26336   0.00000  Uiso   1.00
C195   C     0.33923   0.85563   0.26976   0.00000  Uiso   1.00
C196   C     0.41075   0.86404   0.33922   0.00000  Uiso   1.00
C197   C     0.55204   0.86295   0.43972   0.00000  Uiso   1.00
C198   C     0.11928   0.94965   0.30468   0.00000  Uiso   1.00
C199   C     0.12141   0.97574   0.22073   0.00000  Uiso   1.00
C200   C     0.10514   0.02960   0.20318   0.00000  Uiso   1.00
C201   C     0.11032   0.04557   0.12255   0.00000  Uiso   1.00
C202   C     0.03686   0.90527   0.29237   0.00000  Uiso   1.00
C203   C     0.94950   0.89988   0.33508   0.00000  Uiso   1.00
C204   C     0.88350   0.85654   0.31478   0.00000  Uiso   1.00
C205   C     0.22567   0.92175   0.32419   0.00000  Uiso   1.00
C206   C     0.29705   0.93021   0.39366   0.00000  Uiso   1.00
C207   C     0.39000   0.90072   0.40015   0.00000  Uiso   1.00
H208   H     0.17353   0.85374   0.14534   0.00000  Uiso   1.00
H209   H     0.16335   0.92668   0.03222   0.00000  Uiso   1.00
H210   H     0.00774   0.79698   0.16411   0.00000  Uiso   1.00
H211   H     0.35523   0.82730   0.22268   0.00000  Uiso   1.00
H212   H     0.14290   0.02368   0.93364   0.00000  Uiso   1.00
H213   H     0.81481   0.75020   0.21175   0.00000  Uiso   1.00
H214   H     0.54756   0.81413   0.33525   0.00000  Uiso   1.00
H215   H     0.10315   0.97815   0.35204   0.00000  Uiso   1.00
H216   H     0.08912   0.05792   0.25027   0.00000  Uiso   1.00
H217   H     0.93350   0.92822   0.38215   0.00000  Uiso   1.00
H218   H     0.28099   0.95854   0.44072   0.00000  Uiso   1.00
H219   H     0.08264   0.13021   0.11061   0.00000  Uiso   1.00
H220   H     0.75455   0.85672   0.38872   0.00000  Uiso   1.00
H221   H     0.48730   0.92065   0.51222   0.00000  Uiso   1.00
O222   O     0.10477   0.12717   0.95144   0.00000  Uiso   1.00
O223   O     0.67435   0.76836   0.31632   0.00000  Uiso   1.00
O224   O     0.63570   0.85224   0.47834   0.00000  Uiso   1.00
N225   N     0.13066   0.03781   0.98926   0.00000  Uiso   1.00
N226   N     0.82391   0.78212   0.24926   0.00000  Uiso   1.00
N227   N     0.50896   0.84188   0.36474   0.00000  Uiso   1.00
N228   N     0.09824   0.09513   0.08448   0.00000  Uiso   1.00
N229   N     0.79149   0.83944   0.34449   0.00000  Uiso   1.00
N230   N     0.47654   0.89920   0.45996   0.00000  Uiso   1.00
C231   C     0.65609   0.43221   0.69391   0.00000  Uiso   1.00
C232   C     0.64162   0.48933   0.66199   0.00000  Uiso   1.00
C233   C     0.64714   0.50571   0.58164   0.00000  Uiso   1.00
C234   C     0.63162   0.55973   0.56480   0.00000  Uiso   1.00
C235   C     0.61219   0.64290   0.50589   0.00000  Uiso   1.00
C236   C     0.55601   0.41868   0.73248   0.00000  Uiso   1.00
C237   C     0.48956   0.37565   0.71140   0.00000  Uiso   1.00
C238   C     0.40199   0.37019   0.75390   0.00000  Uiso   1.00
C239   C     0.24969   0.34365   0.80447   0.00000  Uiso   1.00
C240   C     0.74501   0.43442   0.76469   0.00000  Uiso   1.00
C241   C     0.83747   0.40460   0.77069   0.00000  Uiso   1.00
C242   C     0.90902   0.41238   0.84032   0.00000  Uiso   1.00
C243   C     0.05017   0.41027   0.94089   0.00000  Uiso   1.00
C244   C     0.61871   0.49904   0.80689   0.00000  Uiso   1.00
C245   C     0.62132   0.52563   0.72336   0.00000  Uiso   1.00
C246   C     0.60579   0.57964   0.70664   0.00000  Uiso   1.00
C247   C     0.61129   0.59609   0.62627   0.00000  Uiso   1.00
C248   C     0.53571   0.45498   0.79385   0.00000  Uiso   1.00
C249   C     0.44821   0.44958   0.83640   0.00000  Uiso   1.00
C250   C     0.38165   0.40655   0.81538   0.00000  Uiso   1.00
C251   C     0.72472   0.47072   0.82605   0.00000  Uiso   1.00
C252   C     0.79612   0.47854   0.89569   0.00000  Uiso   1.00
C253   C     0.88868   0.44874   0.90180   0.00000  Uiso   1.00
H254   H     0.67189   0.40395   0.64614   0.00000  Uiso   1.00
H255   H     0.66284   0.47760   0.53416   0.00000  Uiso   1.00
H256   H     0.50530   0.34756   0.66391   0.00000  Uiso   1.00
H257   H     0.85316   0.37651   0.72319   0.00000  Uiso   1.00
H258   H     0.64382   0.57526   0.43708   0.00000  Uiso   1.00
H259   H     0.31166   0.30105   0.71067   0.00000  Uiso   1.00
H260   H     0.04518   0.36210   0.83569   0.00000  Uiso   1.00
H261   H     0.60291   0.52730   0.85467   0.00000  Uiso   1.00
H262   H     0.59008   0.60772   0.75414   0.00000  Uiso   1.00
H263   H     0.43253   0.47768   0.88388   0.00000  Uiso   1.00
H264   H     0.78039   0.50663   0.94317   0.00000  Uiso   1.00
H265   H     0.58476   0.68087   0.61562   0.00000  Uiso   1.00
H266   H     0.25259   0.40666   0.88921   0.00000  Uiso   1.00
H267   H     0.98612   0.46771   0.01422   0.00000  Uiso   1.00
O268   O     0.60706   0.67874   0.45644   0.00000  Uiso   1.00
O269   O     0.17129   0.31898   0.81540   0.00000  Uiso   1.00
O270   O     0.13365   0.39908   0.97941   0.00000  Uiso   1.00
N271   N     0.63170   0.58908   0.49290   0.00000  Uiso   1.00
N272   N     0.32114   0.33272   0.74868   0.00000  Uiso   1.00
N273   N     0.00691   0.38978   0.86557   0.00000  Uiso   1.00
N274   N     0.59993   0.64591   0.58897   0.00000  Uiso   1.00
N275   N     0.28936   0.38955   0.84475   0.00000  Uiso   1.00
N276   N     0.97513   0.44661   0.96164   0.00000  Uiso   1.00
C277   C     0.84259   0.38225   0.30731   0.00000  Uiso   1.00
C278   C     0.85787   0.43913   0.34010   0.00000  Uiso   1.00
C279   C     0.85267   0.45502   0.42072   0.00000  Uiso   1.00
C280   C     0.86894   0.50889   0.43838   0.00000  Uiso   1.00
C281   C     0.88956   0.59164   0.49856   0.00000  Uiso   1.00
C282   C     0.94243   0.36866   0.26845   0.00000  Uiso   1.00
C283   C     0.00831   0.32531   0.28882   0.00000  Uiso   1.00
C284   C     0.09575   0.31986   0.24616   0.00000  Uiso   1.00
C285   C     0.24761   0.29319   0.19506   0.00000  Uiso   1.00
C286   C     0.75362   0.38514   0.23664   0.00000  Uiso   1.00
C287   C     0.66077   0.35563   0.23024   0.00000  Uiso   1.00
C288   C     0.58925   0.36404   0.16078   0.00000  Uiso   1.00
C289   C     0.44796   0.36295   0.06028   0.00000  Uiso   1.00
C290   C     0.88072   0.44965   0.19532   0.00000  Uiso   1.00
C291   C     0.87859   0.47574   0.27927   0.00000  Uiso   1.00
C292   C     0.89486   0.52960   0.29682   0.00000  Uiso   1.00
C293   C     0.88968   0.54557   0.37745   0.00000  Uiso   1.00
C294   C     0.96314   0.40527   0.20763   0.00000  Uiso   1.00
C295   C     0.05050   0.39988   0.16492   0.00000  Uiso   1.00
C296   C     0.11650   0.35654   0.18522   0.00000  Uiso   1.00
C297   C     0.77433   0.42175   0.17581   0.00000  Uiso   1.00
C298   C     0.70295   0.43021   0.10634   0.00000  Uiso   1.00
C299   C     0.61000   0.40072   0.09985   0.00000  Uiso   1.00
H300   H     0.82647   0.35374   0.35466   0.00000  Uiso   1.00
H301   H     0.83665   0.42668   0.46778   0.00000  Uiso   1.00
H302   H     0.99226   0.29698   0.33589   0.00000  Uiso   1.00
H303   H     0.64477   0.32730   0.27732   0.00000  Uiso   1.00
H304   H     0.85710   0.52368   0.56636   0.00000  Uiso   1.00
H305   H     0.18519   0.25020   0.28825   0.00000  Uiso   1.00
H306   H     0.45244   0.31413   0.16475   0.00000  Uiso   1.00
H307   H     0.89685   0.47815   0.14796   0.00000  Uiso   1.00
H308   H     0.91088   0.55792   0.24973   0.00000  Uiso   1.00
H309   H     0.06650   0.42822   0.11785   0.00000  Uiso   1.00
H310   H     0.71901   0.45854   0.05928   0.00000  Uiso   1.00
H311   H     0.91736   0.63021   0.38939   0.00000  Uiso   1.00
H312   H     0.24545   0.35672   0.11128   0.00000  Uiso   1.00
H313   H     0.51270   0.42065   0.98778   0.00000  Uiso   1.00
O314   O     0.89523   0.62717   0.54856   0.00000  Uiso   1.00
O315   O     0.32565   0.26836   0.18368   0.00000  Uiso   1.00
O316   O     0.36430   0.35224   0.02166   0.00000  Uiso   1.00
N317   N     0.86934   0.53781   0.51074   0.00000  Uiso   1.00
N318   N     0.17609   0.28212   0.25074   0.00000  Uiso   1.00
N319   N     0.49104   0.34188   0.13526   0.00000  Uiso   1.00
N320   N     0.90176   0.59513   0.41552   0.00000  Uiso   1.00
N321   N     0.20851   0.33944   0.15551   0.00000  Uiso   1.00
N322   N     0.52346   0.39920   0.04004   0.00000  Uiso   1.00
C323   C     0.34391   0.93221   0.80609   0.00000  Uiso   1.00
C324   C     0.35838   0.98933   0.83801   0.00000  Uiso   1.00
C325   C     0.35286   0.00571   0.91836   0.00000  Uiso   1.00
C326   C     0.36838   0.05973   0.93520   0.00000  Uiso   1.00
C327   C     0.38781   0.14290   0.99411   0.00000  Uiso   1.00
C328   C     0.44399   0.91868   0.76752   0.00000  Uiso   1.00
C329   C     0.51044   0.87565   0.78860   0.00000  Uiso   1.00
C330   C     0.59801   0.87019   0.74610   0.00000  Uiso   1.00
C331   C     0.75031   0.84365   0.69553   0.00000  Uiso   1.00
C332   C     0.25499   0.93442   0.73531   0.00000  Uiso   1.00
C333   C     0.16253   0.90460   0.72931   0.00000  Uiso   1.00
C334   C     0.09098   0.91238   0.65968   0.00000  Uiso   1.00
C335   C     0.94983   0.91027   0.55911   0.00000  Uiso   1.00
C336   C     0.38129   0.99904   0.69311   0.00000  Uiso   1.00
C337   C     0.37868   0.02563   0.77664   0.00000  Uiso   1.00
C338   C     0.39421   0.07964   0.79336   0.00000  Uiso   1.00
C339   C     0.38871   0.09609   0.87373   0.00000  Uiso   1.00
C340   C     0.46429   0.95498   0.70615   0.00000  Uiso   1.00
C341   C     0.55179   0.94958   0.66360   0.00000  Uiso   1.00
C342   C     0.61835   0.90655   0.68462   0.00000  Uiso   1.00
C343   C     0.27528   0.97072   0.67395   0.00000  Uiso   1.00
C344   C     0.20388   0.97854   0.60431   0.00000  Uiso   1.00
C345   C     0.11132   0.94874   0.59820   0.00000  Uiso   1.00
H346   H     0.32811   0.90395   0.85386   0.00000  Uiso   1.00
H347   H     0.33716   0.97760   0.96584   0.00000  Uiso   1.00
H348   H     0.49470   0.84756   0.83609   0.00000  Uiso   1.00
H349   H     0.14684   0.87651   0.77681   0.00000  Uiso   1.00
H350   H     0.35618   0.07526   0.06292   0.00000  Uiso   1.00
H351   H     0.68834   0.80105   0.78933   0.00000  Uiso   1.00
H352   H     0.95482   0.86210   0.66431   0.00000  Uiso   1.00
H353   H     0.39709   0.02730   0.64533   0.00000  Uiso   1.00
H354   H     0.40992   0.10772   0.74586   0.00000  Uiso   1.00
H355   H     0.56747   0.97768   0.61612   0.00000  Uiso   1.00
H356   H     0.21961   0.00663   0.55683   0.00000  Uiso   1.00
H357   H     0.41524   0.18087   0.88438   0.00000  Uiso   1.00
H358   H     0.74741   0.90666   0.61079   0.00000  Uiso   1.00
H359   H     0.01388   0.96771   0.48578   0.00000  Uiso   1.00
O360   O     0.39294   0.17874   0.04356   0.00000  Uiso   1.00
O361   O     0.82871   0.81898   0.68460   0.00000  Uiso   1.00
O362   O     0.86635   0.89908   0.52059   0.00000  Uiso   1.00
N363   N     0.36830   0.08908   0.00710   0.00000  Uiso   1.00
N364   N     0.67886   0.83272   0.75132   0.00000  Uiso   1.00
N365   N     0.99309   0.88978   0.63443   0.00000  Uiso   1.00
N366   N     0.40007   0.14591   0.91103   0.00000  Uiso   1.00
N367   N     0.71064   0.88955   0.65525   0.00000  Uiso   1.00
N368   N     0.02487   0.94661   0.53836   0.00000  Uiso   1.00
