data_job_05109
_audit_creation_date              2018-12-19
_audit_creation_method            'Materials Studio'
_symmetry_space_group_name_H-M    'P1'
_symmetry_Int_Tables_number       1
_symmetry_cell_setting            triclinic
loop_
_symmetry_equiv_pos_as_xyz
  x,y,z
_cell_length_a                    28.8094
_cell_length_b                    10.1367
_cell_length_c                    29.6799
_cell_angle_alpha                 90.0000
_cell_angle_beta                  164.3491
_cell_angle_gamma                 90.0000
loop_
_atom_site_label
_atom_site_type_symbol
_atom_site_fract_x
_atom_site_fract_y
_atom_site_fract_z
_atom_site_U_iso_or_equiv
_atom_site_adp_type
_atom_site_occupancy
C1     C     0.02445   0.60907   0.39467   0.00000  Uiso   1.00
C2     C     0.03525   0.75924   0.40593   0.00000  Uiso   1.00
C3     C     0.93478   0.84524   0.28690   0.00000  Uiso   1.00
C4     C     0.96443   0.97922   0.32047   0.00000  Uiso   1.00
C5     C     0.96215   0.20537   0.31557   0.00000  Uiso   1.00
C6     C     0.20459   0.56061   0.55119   0.00000  Uiso   1.00
C7     C     0.24649   0.47960   0.55429   0.00000  Uiso   1.00
C8     C     0.41870   0.44635   0.71015   0.00000  Uiso   1.00
C9     C     0.67930   0.36405   0.93078   0.00000  Uiso   1.00
C10    C     0.99204   0.56559   0.41283   0.00000  Uiso   1.00
C11    C     0.85525   0.48873   0.29961   0.00000  Uiso   1.00
C12    C     0.84853   0.45965   0.33901   0.00000  Uiso   1.00
C13    C     0.77911   0.38508   0.34481   0.00000  Uiso   1.00
C14    C     0.25577   0.69404   0.66598   0.00000  Uiso   1.00
C15    C     0.16090   0.80539   0.55330   0.00000  Uiso   1.00
C16    C     0.19071   0.93927   0.58706   0.00000  Uiso   1.00
C17    C     0.09030   0.02546   0.46810   0.00000  Uiso   1.00
C18    C     0.33024   0.60676   0.69855   0.00000  Uiso   1.00
C19    C     0.50242   0.57362   0.85445   0.00000  Uiso   1.00
C20    C     0.54457   0.49259   0.85778   0.00000  Uiso   1.00
C21    C     0.11769   0.61175   0.56019   0.00000  Uiso   1.00
C22    C     0.11118   0.58276   0.59978   0.00000  Uiso   1.00
C23    C     0.97440   0.50589   0.48664   0.00000  Uiso   1.00
H24    H     0.92664   0.57313   0.27995   0.00000  Uiso   1.00
H25    H     0.83756   0.80948   0.17288   0.00000  Uiso   1.00
H26    H     0.14923   0.44389   0.44023   0.00000  Uiso   1.00
H27    H     0.75804   0.45303   0.18559   0.00000  Uiso   1.00
H28    H     0.79427   0.09189   0.11918   0.00000  Uiso   1.00
H29    H     0.45141   0.32097   0.68290   0.00000  Uiso   1.00
H30    H     0.62653   0.34024   0.14595   0.00000  Uiso   1.00
H31    H     0.35360   0.72998   0.78071   0.00000  Uiso   1.00
H32    H     0.28795   0.97495   0.70111   0.00000  Uiso   1.00
H33    H     0.59962   0.60935   0.96846   0.00000  Uiso   1.00
H34    H     0.20844   0.61850   0.71383   0.00000  Uiso   1.00
H35    H     0.15983   0.22619   0.54791   0.00000  Uiso   1.00
H36    H     0.81697   0.45526   0.11164   0.00000  Uiso   1.00
H37    H     0.99209   0.47454   0.57469   0.00000  Uiso   1.00
O38    O     0.92620   0.31736   0.27217   0.00000  Uiso   1.00
O39    O     0.78834   0.30592   0.01175   0.00000  Uiso   1.00
O40    O     0.70611   0.33122   0.30729   0.00000  Uiso   1.00
N41    N     0.88929   0.08988   0.23099   0.00000  Uiso   1.00
N42    N     0.50368   0.36913   0.75804   0.00000  Uiso   1.00
N43    N     0.73251   0.38712   0.25606   0.00000  Uiso   1.00
N44    N     0.08599   0.16214   0.46169   0.00000  Uiso   1.00
N45    N     0.70038   0.44139   0.98874   0.00000  Uiso   1.00
N46    N     0.92921   0.45938   0.48676   0.00000  Uiso   1.00
C47    C     0.32131   0.00664   0.96044   0.00000  Uiso   1.00
C48    C     0.33249   0.85647   0.97180   0.00000  Uiso   1.00
C49    C     0.20184   0.77133   0.86272   0.00000  Uiso   1.00
C50    C     0.23752   0.63719   0.89454   0.00000  Uiso   1.00
C51    C     0.23047   0.41119   0.89152   0.00000  Uiso   1.00
C52    C     0.46867   0.05623   0.12757   0.00000  Uiso   1.00
C53    C     0.45251   0.13906   0.14946   0.00000  Uiso   1.00
C54    C     0.60284   0.17310   0.31241   0.00000  Uiso   1.00
C55    C     0.80723   0.25731   0.55122   0.00000  Uiso   1.00
C56    C     0.36542   0.04773   0.95361   0.00000  Uiso   1.00
C57    C     0.26246   0.12344   0.82926   0.00000  Uiso   1.00
C58    C     0.32587   0.15035   0.84577   0.00000  Uiso   1.00
C59    C     0.36994   0.22136   0.81448   0.00000  Uiso   1.00
C60    C     0.61701   0.91983   0.21090   0.00000  Uiso   1.00
C61    C     0.49311   0.80932   0.10784   0.00000  Uiso   1.00
C62    C     0.52899   0.67528   0.13983   0.00000  Uiso   1.00
C63    C     0.39841   0.58996   0.03082   0.00000  Uiso   1.00
C64    C     0.62928   0.00908   0.26361   0.00000  Uiso   1.00
C65    C     0.77966   0.04302   0.42656   0.00000  Uiso   1.00
C66    C     0.76374   0.12587   0.44869   0.00000  Uiso   1.00
C67    C     0.52603   0.00058   0.08965   0.00000  Uiso   1.00
C68    C     0.58961   0.02739   0.10636   0.00000  Uiso   1.00
C69    C     0.48677   0.10312   0.98205   0.00000  Uiso   1.00
H70    H     0.19628   0.04335   0.85454   0.00000  Uiso   1.00
H71    H     0.07757   0.80785   0.75747   0.00000  Uiso   1.00
H72    H     0.32821   0.17554   0.04416   0.00000  Uiso   1.00
H73    H     0.13818   0.15991   0.72400   0.00000  Uiso   1.00
H74    H     0.01681   0.52597   0.70987   0.00000  Uiso   1.00
H75    H     0.54530   0.30129   0.31437   0.00000  Uiso   1.00
H76    H     0.14460   0.26834   0.63927   0.00000  Uiso   1.00
H77    H     0.74206   0.88313   0.31682   0.00000  Uiso   1.00
H78    H     0.65329   0.63883   0.24511   0.00000  Uiso   1.00
H79    H     0.90393   0.00652   0.53181   0.00000  Uiso   1.00
H80    H     0.71391   0.99089   0.21165   0.00000  Uiso   1.00
H81    H     0.48409   0.38878   0.10567   0.00000  Uiso   1.00
H82    H     0.01258   0.16411   0.71017   0.00000  Uiso   1.00
H83    H     0.61188   0.13115   0.03506   0.00000  Uiso   1.00
O84    O     0.18223   0.29956   0.85229   0.00000  Uiso   1.00
O85    O     0.87559   0.31678   0.64536   0.00000  Uiso   1.00
O86    O     0.34987   0.27354   0.75964   0.00000  Uiso   1.00
N87    N     0.13895   0.52721   0.81285   0.00000  Uiso   1.00
N88    N     0.63306   0.25207   0.37802   0.00000  Uiso   1.00
N89    N     0.25845   0.22130   0.74687   0.00000  Uiso   1.00
N90    N     0.39039   0.45339   0.02582   0.00000  Uiso   1.00
N91    N     0.88450   0.17825   0.59099   0.00000  Uiso   1.00
N92    N     0.50989   0.14748   0.95985   0.00000  Uiso   1.00
C93    C     0.02445   0.39093   0.89467   0.00000  Uiso   1.00
C94    C     0.03525   0.24076   0.90593   0.00000  Uiso   1.00
C95    C     0.93478   0.15476   0.78690   0.00000  Uiso   1.00
C96    C     0.96443   0.02078   0.82047   0.00000  Uiso   1.00
C97    C     0.96215   0.79463   0.81557   0.00000  Uiso   1.00
C98    C     0.20459   0.43939   0.05119   0.00000  Uiso   1.00
C99    C     0.24649   0.52040   0.05429   0.00000  Uiso   1.00
C100   C     0.41870   0.55365   0.21015   0.00000  Uiso   1.00
C101   C     0.67930   0.63595   0.43078   0.00000  Uiso   1.00
C102   C     0.99204   0.43441   0.91283   0.00000  Uiso   1.00
C103   C     0.85525   0.51127   0.79961   0.00000  Uiso   1.00
C104   C     0.84853   0.54035   0.83901   0.00000  Uiso   1.00
C105   C     0.77911   0.61492   0.84481   0.00000  Uiso   1.00
C106   C     0.25577   0.30596   0.16598   0.00000  Uiso   1.00
C107   C     0.16090   0.19461   0.05330   0.00000  Uiso   1.00
C108   C     0.19071   0.06073   0.08706   0.00000  Uiso   1.00
C109   C     0.09030   0.97454   0.96810   0.00000  Uiso   1.00
C110   C     0.33024   0.39324   0.19855   0.00000  Uiso   1.00
C111   C     0.50242   0.42638   0.35445   0.00000  Uiso   1.00
C112   C     0.54457   0.50741   0.35778   0.00000  Uiso   1.00
C113   C     0.11769   0.38825   0.06019   0.00000  Uiso   1.00
C114   C     0.11118   0.41724   0.09978   0.00000  Uiso   1.00
C115   C     0.97440   0.49411   0.98664   0.00000  Uiso   1.00
H116   H     0.92664   0.42687   0.77995   0.00000  Uiso   1.00
H117   H     0.83756   0.19052   0.67288   0.00000  Uiso   1.00
H118   H     0.14923   0.55611   0.94023   0.00000  Uiso   1.00
H119   H     0.75804   0.54697   0.68559   0.00000  Uiso   1.00
H120   H     0.79427   0.90811   0.61918   0.00000  Uiso   1.00
H121   H     0.45141   0.67903   0.18290   0.00000  Uiso   1.00
H122   H     0.62653   0.65976   0.64595   0.00000  Uiso   1.00
H123   H     0.35360   0.27002   0.28071   0.00000  Uiso   1.00
H124   H     0.28795   0.02505   0.20111   0.00000  Uiso   1.00
H125   H     0.59962   0.39065   0.46846   0.00000  Uiso   1.00
H126   H     0.20844   0.38150   0.21383   0.00000  Uiso   1.00
H127   H     0.15983   0.77381   0.04791   0.00000  Uiso   1.00
H128   H     0.81697   0.54474   0.61164   0.00000  Uiso   1.00
H129   H     0.99209   0.52546   0.07469   0.00000  Uiso   1.00
O130   O     0.92620   0.68264   0.77217   0.00000  Uiso   1.00
O131   O     0.78834   0.69408   0.51175   0.00000  Uiso   1.00
O132   O     0.70611   0.66878   0.80729   0.00000  Uiso   1.00
N133   N     0.88929   0.91012   0.73099   0.00000  Uiso   1.00
N134   N     0.50368   0.63087   0.25804   0.00000  Uiso   1.00
N135   N     0.73251   0.61288   0.75606   0.00000  Uiso   1.00
N136   N     0.08599   0.83786   0.96169   0.00000  Uiso   1.00
N137   N     0.70038   0.55861   0.48874   0.00000  Uiso   1.00
N138   N     0.92921   0.54062   0.98676   0.00000  Uiso   1.00
C139   C     0.32131   0.99336   0.46044   0.00000  Uiso   1.00
C140   C     0.33249   0.14353   0.47180   0.00000  Uiso   1.00
C141   C     0.20184   0.22867   0.36272   0.00000  Uiso   1.00
C142   C     0.23752   0.36281   0.39454   0.00000  Uiso   1.00
C143   C     0.23047   0.58881   0.39152   0.00000  Uiso   1.00
C144   C     0.46867   0.94377   0.62757   0.00000  Uiso   1.00
C145   C     0.45251   0.86094   0.64946   0.00000  Uiso   1.00
C146   C     0.60284   0.82690   0.81241   0.00000  Uiso   1.00
C147   C     0.80723   0.74269   0.05122   0.00000  Uiso   1.00
C148   C     0.36542   0.95227   0.45361   0.00000  Uiso   1.00
C149   C     0.26246   0.87656   0.32926   0.00000  Uiso   1.00
C150   C     0.32587   0.84965   0.34577   0.00000  Uiso   1.00
C151   C     0.36994   0.77864   0.31448   0.00000  Uiso   1.00
C152   C     0.61701   0.08017   0.71090   0.00000  Uiso   1.00
C153   C     0.49311   0.19068   0.60784   0.00000  Uiso   1.00
C154   C     0.52899   0.32472   0.63983   0.00000  Uiso   1.00
C155   C     0.39841   0.41004   0.53082   0.00000  Uiso   1.00
C156   C     0.62928   0.99092   0.76361   0.00000  Uiso   1.00
C157   C     0.77966   0.95698   0.92656   0.00000  Uiso   1.00
C158   C     0.76374   0.87413   0.94869   0.00000  Uiso   1.00
C159   C     0.52603   0.99942   0.58965   0.00000  Uiso   1.00
C160   C     0.58961   0.97261   0.60636   0.00000  Uiso   1.00
C161   C     0.48677   0.89688   0.48205   0.00000  Uiso   1.00
H162   H     0.19628   0.95665   0.35454   0.00000  Uiso   1.00
H163   H     0.07757   0.19215   0.25747   0.00000  Uiso   1.00
H164   H     0.32821   0.82446   0.54416   0.00000  Uiso   1.00
H165   H     0.13818   0.84009   0.22400   0.00000  Uiso   1.00
H166   H     0.01681   0.47403   0.20987   0.00000  Uiso   1.00
H167   H     0.54530   0.69871   0.81437   0.00000  Uiso   1.00
H168   H     0.14460   0.73166   0.13927   0.00000  Uiso   1.00
H169   H     0.74206   0.11687   0.81682   0.00000  Uiso   1.00
H170   H     0.65329   0.36117   0.74511   0.00000  Uiso   1.00
H171   H     0.90393   0.99348   0.03181   0.00000  Uiso   1.00
H172   H     0.71391   0.00911   0.71165   0.00000  Uiso   1.00
H173   H     0.48409   0.61122   0.60567   0.00000  Uiso   1.00
H174   H     0.01258   0.83589   0.21017   0.00000  Uiso   1.00
H175   H     0.61188   0.86885   0.53506   0.00000  Uiso   1.00
O176   O     0.18223   0.70044   0.35229   0.00000  Uiso   1.00
O177   O     0.87559   0.68322   0.14536   0.00000  Uiso   1.00
O178   O     0.34987   0.72646   0.25964   0.00000  Uiso   1.00
N179   N     0.13895   0.47279   0.31285   0.00000  Uiso   1.00
N180   N     0.63306   0.74793   0.87802   0.00000  Uiso   1.00
N181   N     0.25845   0.77870   0.24687   0.00000  Uiso   1.00
N182   N     0.39039   0.54661   0.52582   0.00000  Uiso   1.00
N183   N     0.88450   0.82175   0.09099   0.00000  Uiso   1.00
N184   N     0.50989   0.85252   0.45985   0.00000  Uiso   1.00
