data_job_02961
_audit_creation_date              2018-12-19
_audit_creation_method            'Materials Studio'
_symmetry_space_group_name_H-M    'P1'
_symmetry_Int_Tables_number       1
_symmetry_cell_setting            triclinic
loop_
_symmetry_equiv_pos_as_xyz
  x,y,z
_cell_length_a                    23.2675
_cell_length_b                    9.5322
_cell_length_c                    13.8920
_cell_angle_alpha                 90.0000
_cell_angle_beta                  90.0000
_cell_angle_gamma                 90.0000
loop_
_atom_site_label
_atom_site_type_symbol
_atom_site_fract_x
_atom_site_fract_y
_atom_site_fract_z
_atom_site_U_iso_or_equiv
_atom_site_adp_type
_atom_site_occupancy
C1     C     0.74998   0.05061   0.35950   0.00000  Uiso   1.00
C2     C     0.74995   0.15397   0.27572   0.00000  Uiso   1.00
C3     C     0.74993   0.29911   0.28358   0.00000  Uiso   1.00
C4     C     0.74989   0.37521   0.19837   0.00000  Uiso   1.00
C5     C     0.74981   0.54585   0.08193   0.00000  Uiso   1.00
C6     C     0.69763   0.95680   0.34480   0.00000  Uiso   1.00
C7     C     0.65363   0.93614   0.41074   0.00000  Uiso   1.00
C8     C     0.60955   0.84623   0.38368   0.00000  Uiso   1.00
C9     C     0.52826   0.71068   0.37451   0.00000  Uiso   1.00
C10    C     0.80233   0.95682   0.34471   0.00000  Uiso   1.00
C11    C     0.84636   0.93615   0.41059   0.00000  Uiso   1.00
C12    C     0.89043   0.84624   0.38346   0.00000  Uiso   1.00
C13    C     0.97172   0.71073   0.37416   0.00000  Uiso   1.00
C14    C     0.74994   0.92767   0.19419   0.00000  Uiso   1.00
C15    C     0.74992   0.08719   0.18593   0.00000  Uiso   1.00
C16    C     0.74988   0.16309   0.10068   0.00000  Uiso   1.00
C17    C     0.74987   0.30831   0.10841   0.00000  Uiso   1.00
C18    C     0.69760   0.89002   0.25501   0.00000  Uiso   1.00
C19    C     0.65358   0.80012   0.22784   0.00000  Uiso   1.00
C20    C     0.60952   0.77933   0.29372   0.00000  Uiso   1.00
C21    C     0.80231   0.89005   0.25491   0.00000  Uiso   1.00
C22    C     0.84631   0.80014   0.22768   0.00000  Uiso   1.00
C23    C     0.89041   0.77934   0.29350   0.00000  Uiso   1.00
H24    H     0.75000   0.10260   0.42941   0.00000  Uiso   1.00
H25    H     0.74995   0.35075   0.35308   0.00000  Uiso   1.00
H26    H     0.65366   0.98782   0.48023   0.00000  Uiso   1.00
H27    H     0.84637   0.98784   0.48007   0.00000  Uiso   1.00
H28    H     0.74986   0.59642   0.22886   0.00000  Uiso   1.00
H29    H     0.54685   0.83113   0.49696   0.00000  Uiso   1.00
H30    H     0.95320   0.83118   0.49663   0.00000  Uiso   1.00
H31    H     0.74992   0.87568   0.12428   0.00000  Uiso   1.00
H32    H     0.74986   0.11138   0.03120   0.00000  Uiso   1.00
H33    H     0.65358   0.74845   0.15835   0.00000  Uiso   1.00
H34    H     0.84628   0.74848   0.15819   0.00000  Uiso   1.00
H35    H     0.74978   0.40214   0.96761   0.00000  Uiso   1.00
H36    H     0.54677   0.63684   0.23571   0.00000  Uiso   1.00
H37    H     0.95313   0.63690   0.23538   0.00000  Uiso   1.00
O38    O     0.74977   0.65843   0.04251   0.00000  Uiso   1.00
O39    O     0.48343   0.65437   0.39426   0.00000  Uiso   1.00
O40    O     0.01656   0.65445   0.39382   0.00000  Uiso   1.00
N41    N     0.74986   0.51835   0.18015   0.00000  Uiso   1.00
N42    N     0.56005   0.80286   0.43080   0.00000  Uiso   1.00
N43    N     0.93995   0.80288   0.43050   0.00000  Uiso   1.00
N44    N     0.74982   0.41381   0.03957   0.00000  Uiso   1.00
N45    N     0.56001   0.69832   0.29022   0.00000  Uiso   1.00
N46    N     0.93992   0.69834   0.28993   0.00000  Uiso   1.00
C47    C     0.75002   0.94939   0.85950   0.00000  Uiso   1.00
C48    C     0.75005   0.84603   0.77572   0.00000  Uiso   1.00
C49    C     0.75007   0.70089   0.78358   0.00000  Uiso   1.00
C50    C     0.75011   0.62479   0.69837   0.00000  Uiso   1.00
C51    C     0.75019   0.45415   0.58193   0.00000  Uiso   1.00
C52    C     0.80237   0.04320   0.84480   0.00000  Uiso   1.00
C53    C     0.84637   0.06386   0.91074   0.00000  Uiso   1.00
C54    C     0.89045   0.15377   0.88368   0.00000  Uiso   1.00
C55    C     0.97174   0.28932   0.87451   0.00000  Uiso   1.00
C56    C     0.69767   0.04318   0.84471   0.00000  Uiso   1.00
C57    C     0.65364   0.06385   0.91059   0.00000  Uiso   1.00
C58    C     0.60957   0.15376   0.88346   0.00000  Uiso   1.00
C59    C     0.52828   0.28927   0.87416   0.00000  Uiso   1.00
C60    C     0.75006   0.07233   0.69419   0.00000  Uiso   1.00
C61    C     0.75008   0.91281   0.68593   0.00000  Uiso   1.00
C62    C     0.75012   0.83691   0.60068   0.00000  Uiso   1.00
C63    C     0.75013   0.69169   0.60841   0.00000  Uiso   1.00
C64    C     0.80240   0.10998   0.75501   0.00000  Uiso   1.00
C65    C     0.84642   0.19988   0.72784   0.00000  Uiso   1.00
C66    C     0.89048   0.22067   0.79372   0.00000  Uiso   1.00
C67    C     0.69769   0.10995   0.75491   0.00000  Uiso   1.00
C68    C     0.65369   0.19986   0.72768   0.00000  Uiso   1.00
C69    C     0.60959   0.22066   0.79350   0.00000  Uiso   1.00
H70    H     0.75000   0.89740   0.92941   0.00000  Uiso   1.00
H71    H     0.75005   0.64925   0.85308   0.00000  Uiso   1.00
H72    H     0.84634   0.01218   0.98023   0.00000  Uiso   1.00
H73    H     0.65363   0.01216   0.98007   0.00000  Uiso   1.00
H74    H     0.75014   0.40358   0.72886   0.00000  Uiso   1.00
H75    H     0.95315   0.16887   0.99696   0.00000  Uiso   1.00
H76    H     0.54680   0.16882   0.99663   0.00000  Uiso   1.00
H77    H     0.75008   0.12432   0.62428   0.00000  Uiso   1.00
H78    H     0.75014   0.88862   0.53120   0.00000  Uiso   1.00
H79    H     0.84642   0.25155   0.65835   0.00000  Uiso   1.00
H80    H     0.65372   0.25152   0.65819   0.00000  Uiso   1.00
H81    H     0.75022   0.59786   0.46761   0.00000  Uiso   1.00
H82    H     0.95323   0.36316   0.73571   0.00000  Uiso   1.00
H83    H     0.54687   0.36310   0.73538   0.00000  Uiso   1.00
O84    O     0.75023   0.34157   0.54251   0.00000  Uiso   1.00
O85    O     0.01657   0.34563   0.89426   0.00000  Uiso   1.00
O86    O     0.48344   0.34555   0.89382   0.00000  Uiso   1.00
N87    N     0.75014   0.48165   0.68015   0.00000  Uiso   1.00
N88    N     0.93995   0.19714   0.93080   0.00000  Uiso   1.00
N89    N     0.56005   0.19712   0.93050   0.00000  Uiso   1.00
N90    N     0.75018   0.58619   0.53957   0.00000  Uiso   1.00
N91    N     0.93999   0.30168   0.79022   0.00000  Uiso   1.00
N92    N     0.56008   0.30166   0.78993   0.00000  Uiso   1.00
C93    C     0.25002   0.55061   0.14050   0.00000  Uiso   1.00
C94    C     0.25005   0.65397   0.22428   0.00000  Uiso   1.00
C95    C     0.25007   0.79911   0.21642   0.00000  Uiso   1.00
C96    C     0.25011   0.87521   0.30163   0.00000  Uiso   1.00
C97    C     0.25019   0.04585   0.41807   0.00000  Uiso   1.00
C98    C     0.30237   0.45680   0.15520   0.00000  Uiso   1.00
C99    C     0.34637   0.43614   0.08926   0.00000  Uiso   1.00
C100   C     0.39045   0.34623   0.11632   0.00000  Uiso   1.00
C101   C     0.47174   0.21068   0.12549   0.00000  Uiso   1.00
C102   C     0.19767   0.45682   0.15529   0.00000  Uiso   1.00
C103   C     0.15364   0.43615   0.08941   0.00000  Uiso   1.00
C104   C     0.10957   0.34624   0.11654   0.00000  Uiso   1.00
C105   C     0.02828   0.21073   0.12584   0.00000  Uiso   1.00
C106   C     0.25006   0.42767   0.30581   0.00000  Uiso   1.00
C107   C     0.25008   0.58719   0.31407   0.00000  Uiso   1.00
C108   C     0.25012   0.66309   0.39932   0.00000  Uiso   1.00
C109   C     0.25013   0.80831   0.39159   0.00000  Uiso   1.00
C110   C     0.30240   0.39002   0.24499   0.00000  Uiso   1.00
C111   C     0.34642   0.30012   0.27216   0.00000  Uiso   1.00
C112   C     0.39048   0.27933   0.20628   0.00000  Uiso   1.00
C113   C     0.19769   0.39005   0.24509   0.00000  Uiso   1.00
C114   C     0.15369   0.30014   0.27232   0.00000  Uiso   1.00
C115   C     0.10959   0.27934   0.20650   0.00000  Uiso   1.00
H116   H     0.25000   0.60260   0.07059   0.00000  Uiso   1.00
H117   H     0.25005   0.85075   0.14692   0.00000  Uiso   1.00
H118   H     0.34634   0.48782   0.01977   0.00000  Uiso   1.00
H119   H     0.15363   0.48784   0.01993   0.00000  Uiso   1.00
H120   H     0.25014   0.09642   0.27114   0.00000  Uiso   1.00
H121   H     0.45315   0.33113   0.00304   0.00000  Uiso   1.00
H122   H     0.04680   0.33118   0.00337   0.00000  Uiso   1.00
H123   H     0.25008   0.37568   0.37572   0.00000  Uiso   1.00
H124   H     0.25014   0.61138   0.46880   0.00000  Uiso   1.00
H125   H     0.34642   0.24845   0.34165   0.00000  Uiso   1.00
H126   H     0.15372   0.24848   0.34181   0.00000  Uiso   1.00
H127   H     0.25022   0.90214   0.53239   0.00000  Uiso   1.00
H128   H     0.45323   0.13684   0.26429   0.00000  Uiso   1.00
H129   H     0.04687   0.13690   0.26462   0.00000  Uiso   1.00
O130   O     0.25023   0.15843   0.45749   0.00000  Uiso   1.00
O131   O     0.51657   0.15437   0.10574   0.00000  Uiso   1.00
O132   O     0.98344   0.15445   0.10618   0.00000  Uiso   1.00
N133   N     0.25014   0.01835   0.31985   0.00000  Uiso   1.00
N134   N     0.43995   0.30286   0.06920   0.00000  Uiso   1.00
N135   N     0.06005   0.30288   0.06950   0.00000  Uiso   1.00
N136   N     0.25018   0.91381   0.46043   0.00000  Uiso   1.00
N137   N     0.43999   0.19832   0.20978   0.00000  Uiso   1.00
N138   N     0.06008   0.19834   0.21007   0.00000  Uiso   1.00
C139   C     0.24998   0.44939   0.64050   0.00000  Uiso   1.00
C140   C     0.24995   0.34603   0.72428   0.00000  Uiso   1.00
C141   C     0.24993   0.20089   0.71642   0.00000  Uiso   1.00
C142   C     0.24989   0.12479   0.80163   0.00000  Uiso   1.00
C143   C     0.24981   0.95415   0.91807   0.00000  Uiso   1.00
C144   C     0.19763   0.54320   0.65520   0.00000  Uiso   1.00
C145   C     0.15363   0.56386   0.58926   0.00000  Uiso   1.00
C146   C     0.10955   0.65377   0.61632   0.00000  Uiso   1.00
C147   C     0.02826   0.78932   0.62549   0.00000  Uiso   1.00
C148   C     0.30233   0.54318   0.65529   0.00000  Uiso   1.00
C149   C     0.34636   0.56385   0.58941   0.00000  Uiso   1.00
C150   C     0.39043   0.65376   0.61654   0.00000  Uiso   1.00
C151   C     0.47172   0.78927   0.62584   0.00000  Uiso   1.00
C152   C     0.24994   0.57233   0.80581   0.00000  Uiso   1.00
C153   C     0.24992   0.41281   0.81407   0.00000  Uiso   1.00
C154   C     0.24988   0.33691   0.89932   0.00000  Uiso   1.00
C155   C     0.24987   0.19169   0.89159   0.00000  Uiso   1.00
C156   C     0.19760   0.60998   0.74499   0.00000  Uiso   1.00
C157   C     0.15358   0.69988   0.77216   0.00000  Uiso   1.00
C158   C     0.10952   0.72067   0.70628   0.00000  Uiso   1.00
C159   C     0.30231   0.60995   0.74509   0.00000  Uiso   1.00
C160   C     0.34631   0.69986   0.77232   0.00000  Uiso   1.00
C161   C     0.39041   0.72066   0.70650   0.00000  Uiso   1.00
H162   H     0.25000   0.39740   0.57059   0.00000  Uiso   1.00
H163   H     0.24995   0.14925   0.64692   0.00000  Uiso   1.00
H164   H     0.15366   0.51218   0.51977   0.00000  Uiso   1.00
H165   H     0.34637   0.51216   0.51993   0.00000  Uiso   1.00
H166   H     0.24986   0.90358   0.77114   0.00000  Uiso   1.00
H167   H     0.04685   0.66887   0.50304   0.00000  Uiso   1.00
H168   H     0.45320   0.66882   0.50337   0.00000  Uiso   1.00
H169   H     0.24992   0.62432   0.87572   0.00000  Uiso   1.00
H170   H     0.24986   0.38862   0.96880   0.00000  Uiso   1.00
H171   H     0.15358   0.75155   0.84165   0.00000  Uiso   1.00
H172   H     0.34628   0.75152   0.84181   0.00000  Uiso   1.00
H173   H     0.24978   0.09786   0.03239   0.00000  Uiso   1.00
H174   H     0.04677   0.86316   0.76429   0.00000  Uiso   1.00
H175   H     0.45313   0.86310   0.76462   0.00000  Uiso   1.00
O176   O     0.24977   0.84157   0.95749   0.00000  Uiso   1.00
O177   O     0.98343   0.84563   0.60574   0.00000  Uiso   1.00
O178   O     0.51656   0.84555   0.60618   0.00000  Uiso   1.00
N179   N     0.24986   0.98165   0.81985   0.00000  Uiso   1.00
N180   N     0.06005   0.69714   0.56920   0.00000  Uiso   1.00
N181   N     0.43995   0.69712   0.56950   0.00000  Uiso   1.00
N182   N     0.24982   0.08619   0.96043   0.00000  Uiso   1.00
N183   N     0.06001   0.80168   0.70978   0.00000  Uiso   1.00
N184   N     0.43992   0.80166   0.71007   0.00000  Uiso   1.00
