data_job_03729
_audit_creation_date              2018-12-19
_audit_creation_method            'Materials Studio'
_symmetry_space_group_name_H-M    'P1'
_symmetry_Int_Tables_number       1
_symmetry_cell_setting            triclinic
loop_
_symmetry_equiv_pos_as_xyz
  x,y,z
_cell_length_a                    26.5261
_cell_length_b                    15.4687
_cell_length_c                    15.3126
_cell_angle_alpha                 90.0000
_cell_angle_beta                  90.0000
_cell_angle_gamma                 90.0000
loop_
_atom_site_label
_atom_site_type_symbol
_atom_site_fract_x
_atom_site_fract_y
_atom_site_fract_z
_atom_site_U_iso_or_equiv
_atom_site_adp_type
_atom_site_occupancy
C1     C     0.63927   0.62872   0.65687   0.00000  Uiso   1.00
C2     C     0.64761   0.72502   0.64124   0.00000  Uiso   1.00
C3     C     0.69008   0.77166   0.66533   0.00000  Uiso   1.00
C4     C     0.69045   0.85918   0.64521   0.00000  Uiso   1.00
C5     C     0.70958   0.00273   0.62748   0.00000  Uiso   1.00
C6     C     0.59015   0.62150   0.70810   0.00000  Uiso   1.00
C7     C     0.58430   0.58110   0.78839   0.00000  Uiso   1.00
C8     C     0.53630   0.58147   0.82454   0.00000  Uiso   1.00
C9     C     0.46621   0.56426   0.91056   0.00000  Uiso   1.00
C10    C     0.62874   0.58929   0.56744   0.00000  Uiso   1.00
C11    C     0.65533   0.52179   0.52947   0.00000  Uiso   1.00
C12    C     0.63981   0.49502   0.44720   0.00000  Uiso   1.00
C13    C     0.62964   0.42780   0.31484   0.00000  Uiso   1.00
C14    C     0.56440   0.70119   0.57830   0.00000  Uiso   1.00
C15    C     0.60695   0.76438   0.59857   0.00000  Uiso   1.00
C16    C     0.60726   0.85185   0.57840   0.00000  Uiso   1.00
C17    C     0.64972   0.89861   0.60246   0.00000  Uiso   1.00
C18    C     0.54948   0.66087   0.66543   0.00000  Uiso   1.00
C19    C     0.50148   0.66129   0.70146   0.00000  Uiso   1.00
C20    C     0.49557   0.62090   0.78179   0.00000  Uiso   1.00
C21    C     0.58807   0.62866   0.52476   0.00000  Uiso   1.00
C22    C     0.57251   0.60198   0.44254   0.00000  Uiso   1.00
C23    C     0.59908   0.53446   0.40445   0.00000  Uiso   1.00
H24    H     0.67092   0.59807   0.69010   0.00000  Uiso   1.00
H25    H     0.72154   0.74118   0.69836   0.00000  Uiso   1.00
H26    H     0.61578   0.55064   0.82139   0.00000  Uiso   1.00
H27    H     0.68680   0.49135   0.56251   0.00000  Uiso   1.00
H28    H     0.75972   0.91721   0.68873   0.00000  Uiso   1.00
H29    H     0.53671   0.51542   0.94813   0.00000  Uiso   1.00
H30    H     0.68647   0.39038   0.40224   0.00000  Uiso   1.00
H31    H     0.53274   0.73184   0.54508   0.00000  Uiso   1.00
H32    H     0.57578   0.88229   0.54538   0.00000  Uiso   1.00
H33    H     0.47002   0.69175   0.66841   0.00000  Uiso   1.00
H34    H     0.54104   0.63246   0.40954   0.00000  Uiso   1.00
H35    H     0.64142   0.03174   0.56457   0.00000  Uiso   1.00
H36    H     0.41841   0.62995   0.82397   0.00000  Uiso   1.00
H37    H     0.56817   0.50492   0.27808   0.00000  Uiso   1.00
O38    O     0.73137   0.07104   0.62949   0.00000  Uiso   1.00
O39    O     0.43879   0.54390   0.96981   0.00000  Uiso   1.00
O40    O     0.63527   0.37986   0.25361   0.00000  Uiso   1.00
N41    N     0.72598   0.92351   0.65945   0.00000  Uiso   1.00
N42    N     0.51748   0.54788   0.90199   0.00000  Uiso   1.00
N43    N     0.65748   0.43096   0.39163   0.00000  Uiso   1.00
N44    N     0.66232   0.98514   0.59264   0.00000  Uiso   1.00
N45    N     0.45382   0.60951   0.83517   0.00000  Uiso   1.00
N46    N     0.59382   0.49259   0.32482   0.00000  Uiso   1.00
C47    C     0.86073   0.37128   0.15687   0.00000  Uiso   1.00
C48    C     0.85239   0.27498   0.14124   0.00000  Uiso   1.00
C49    C     0.80992   0.22834   0.16533   0.00000  Uiso   1.00
C50    C     0.80955   0.14082   0.14521   0.00000  Uiso   1.00
C51    C     0.79042   0.99727   0.12748   0.00000  Uiso   1.00
C52    C     0.90985   0.37850   0.20810   0.00000  Uiso   1.00
C53    C     0.91570   0.41890   0.28839   0.00000  Uiso   1.00
C54    C     0.96370   0.41853   0.32454   0.00000  Uiso   1.00
C55    C     0.03379   0.43574   0.41056   0.00000  Uiso   1.00
C56    C     0.87126   0.41071   0.06744   0.00000  Uiso   1.00
C57    C     0.84467   0.47821   0.02947   0.00000  Uiso   1.00
C58    C     0.86019   0.50498   0.94720   0.00000  Uiso   1.00
C59    C     0.87036   0.57220   0.81484   0.00000  Uiso   1.00
C60    C     0.93560   0.29881   0.07830   0.00000  Uiso   1.00
C61    C     0.89305   0.23562   0.09857   0.00000  Uiso   1.00
C62    C     0.89274   0.14815   0.07840   0.00000  Uiso   1.00
C63    C     0.85028   0.10139   0.10246   0.00000  Uiso   1.00
C64    C     0.95052   0.33913   0.16543   0.00000  Uiso   1.00
C65    C     0.99852   0.33871   0.20146   0.00000  Uiso   1.00
C66    C     0.00443   0.37910   0.28179   0.00000  Uiso   1.00
C67    C     0.91193   0.37134   0.02476   0.00000  Uiso   1.00
C68    C     0.92749   0.39802   0.94254   0.00000  Uiso   1.00
C69    C     0.90092   0.46554   0.90445   0.00000  Uiso   1.00
H70    H     0.82908   0.40193   0.19010   0.00000  Uiso   1.00
H71    H     0.77846   0.25882   0.19836   0.00000  Uiso   1.00
H72    H     0.88422   0.44936   0.32139   0.00000  Uiso   1.00
H73    H     0.81320   0.50865   0.06251   0.00000  Uiso   1.00
H74    H     0.74028   0.08279   0.18873   0.00000  Uiso   1.00
H75    H     0.96329   0.48458   0.44813   0.00000  Uiso   1.00
H76    H     0.81353   0.60962   0.90224   0.00000  Uiso   1.00
H77    H     0.96726   0.26816   0.04508   0.00000  Uiso   1.00
H78    H     0.92422   0.11771   0.04538   0.00000  Uiso   1.00
H79    H     0.02998   0.30825   0.16841   0.00000  Uiso   1.00
H80    H     0.95896   0.36754   0.90954   0.00000  Uiso   1.00
H81    H     0.85858   0.96826   0.06457   0.00000  Uiso   1.00
H82    H     0.08159   0.37005   0.32397   0.00000  Uiso   1.00
H83    H     0.93183   0.49508   0.77808   0.00000  Uiso   1.00
O84    O     0.76863   0.92896   0.12949   0.00000  Uiso   1.00
O85    O     0.06121   0.45610   0.46981   0.00000  Uiso   1.00
O86    O     0.86473   0.62014   0.75361   0.00000  Uiso   1.00
N87    N     0.77402   0.07649   0.15945   0.00000  Uiso   1.00
N88    N     0.98252   0.45212   0.40199   0.00000  Uiso   1.00
N89    N     0.84252   0.56904   0.89163   0.00000  Uiso   1.00
N90    N     0.83768   0.01486   0.09264   0.00000  Uiso   1.00
N91    N     0.04618   0.39049   0.33517   0.00000  Uiso   1.00
N92    N     0.90618   0.50741   0.82482   0.00000  Uiso   1.00
C93    C     0.36073   0.12872   0.84313   0.00000  Uiso   1.00
C94    C     0.35239   0.22502   0.85876   0.00000  Uiso   1.00
C95    C     0.30992   0.27166   0.83467   0.00000  Uiso   1.00
C96    C     0.30955   0.35918   0.85479   0.00000  Uiso   1.00
C97    C     0.29042   0.50273   0.87252   0.00000  Uiso   1.00
C98    C     0.40985   0.12150   0.79190   0.00000  Uiso   1.00
C99    C     0.41570   0.08110   0.71161   0.00000  Uiso   1.00
C100   C     0.46370   0.08147   0.67546   0.00000  Uiso   1.00
C101   C     0.53379   0.06426   0.58944   0.00000  Uiso   1.00
C102   C     0.37126   0.08929   0.93256   0.00000  Uiso   1.00
C103   C     0.34467   0.02179   0.97053   0.00000  Uiso   1.00
C104   C     0.36019   0.99502   0.05280   0.00000  Uiso   1.00
C105   C     0.37036   0.92780   0.18516   0.00000  Uiso   1.00
C106   C     0.43560   0.20119   0.92170   0.00000  Uiso   1.00
C107   C     0.39305   0.26438   0.90143   0.00000  Uiso   1.00
C108   C     0.39274   0.35185   0.92160   0.00000  Uiso   1.00
C109   C     0.35028   0.39861   0.89754   0.00000  Uiso   1.00
C110   C     0.45052   0.16087   0.83457   0.00000  Uiso   1.00
C111   C     0.49852   0.16129   0.79854   0.00000  Uiso   1.00
C112   C     0.50443   0.12090   0.71821   0.00000  Uiso   1.00
C113   C     0.41193   0.12866   0.97524   0.00000  Uiso   1.00
C114   C     0.42749   0.10198   0.05746   0.00000  Uiso   1.00
C115   C     0.40092   0.03446   0.09555   0.00000  Uiso   1.00
H116   H     0.32908   0.09807   0.80990   0.00000  Uiso   1.00
H117   H     0.27846   0.24118   0.80164   0.00000  Uiso   1.00
H118   H     0.38422   0.05064   0.67861   0.00000  Uiso   1.00
H119   H     0.31320   0.99135   0.93749   0.00000  Uiso   1.00
H120   H     0.24028   0.41721   0.81127   0.00000  Uiso   1.00
H121   H     0.46329   0.01542   0.55187   0.00000  Uiso   1.00
H122   H     0.31353   0.89038   0.09776   0.00000  Uiso   1.00
H123   H     0.46726   0.23184   0.95492   0.00000  Uiso   1.00
H124   H     0.42422   0.38229   0.95462   0.00000  Uiso   1.00
H125   H     0.52998   0.19175   0.83159   0.00000  Uiso   1.00
H126   H     0.45896   0.13246   0.09046   0.00000  Uiso   1.00
H127   H     0.35858   0.53174   0.93543   0.00000  Uiso   1.00
H128   H     0.58159   0.12995   0.67603   0.00000  Uiso   1.00
H129   H     0.43183   0.00492   0.22192   0.00000  Uiso   1.00
O130   O     0.26863   0.57104   0.87051   0.00000  Uiso   1.00
O131   O     0.56121   0.04390   0.53019   0.00000  Uiso   1.00
O132   O     0.36473   0.87986   0.24639   0.00000  Uiso   1.00
N133   N     0.27402   0.42351   0.84055   0.00000  Uiso   1.00
N134   N     0.48252   0.04788   0.59801   0.00000  Uiso   1.00
N135   N     0.34252   0.93096   0.10837   0.00000  Uiso   1.00
N136   N     0.33768   0.48514   0.90736   0.00000  Uiso   1.00
N137   N     0.54618   0.10951   0.66483   0.00000  Uiso   1.00
N138   N     0.40618   0.99259   0.17518   0.00000  Uiso   1.00
C139   C     0.13927   0.87128   0.34313   0.00000  Uiso   1.00
C140   C     0.14761   0.77498   0.35876   0.00000  Uiso   1.00
C141   C     0.19008   0.72834   0.33467   0.00000  Uiso   1.00
C142   C     0.19045   0.64082   0.35479   0.00000  Uiso   1.00
C143   C     0.20958   0.49727   0.37252   0.00000  Uiso   1.00
C144   C     0.09015   0.87850   0.29190   0.00000  Uiso   1.00
C145   C     0.08430   0.91890   0.21161   0.00000  Uiso   1.00
C146   C     0.03630   0.91853   0.17546   0.00000  Uiso   1.00
C147   C     0.96621   0.93574   0.08944   0.00000  Uiso   1.00
C148   C     0.12874   0.91071   0.43256   0.00000  Uiso   1.00
C149   C     0.15533   0.97821   0.47053   0.00000  Uiso   1.00
C150   C     0.13981   0.00498   0.55280   0.00000  Uiso   1.00
C151   C     0.12964   0.07220   0.68516   0.00000  Uiso   1.00
C152   C     0.06440   0.79881   0.42170   0.00000  Uiso   1.00
C153   C     0.10695   0.73562   0.40143   0.00000  Uiso   1.00
C154   C     0.10726   0.64815   0.42160   0.00000  Uiso   1.00
C155   C     0.14972   0.60139   0.39754   0.00000  Uiso   1.00
C156   C     0.04948   0.83913   0.33457   0.00000  Uiso   1.00
C157   C     0.00148   0.83871   0.29854   0.00000  Uiso   1.00
C158   C     0.99557   0.87910   0.21821   0.00000  Uiso   1.00
C159   C     0.08807   0.87134   0.47524   0.00000  Uiso   1.00
C160   C     0.07251   0.89802   0.55746   0.00000  Uiso   1.00
C161   C     0.09908   0.96554   0.59555   0.00000  Uiso   1.00
H162   H     0.17092   0.90193   0.30990   0.00000  Uiso   1.00
H163   H     0.22154   0.75882   0.30164   0.00000  Uiso   1.00
H164   H     0.11578   0.94936   0.17861   0.00000  Uiso   1.00
H165   H     0.18680   0.00865   0.43749   0.00000  Uiso   1.00
H166   H     0.25972   0.58279   0.31127   0.00000  Uiso   1.00
H167   H     0.03671   0.98458   0.05187   0.00000  Uiso   1.00
H168   H     0.18647   0.10962   0.59776   0.00000  Uiso   1.00
H169   H     0.03274   0.76816   0.45492   0.00000  Uiso   1.00
H170   H     0.07578   0.61771   0.45462   0.00000  Uiso   1.00
H171   H     0.97002   0.80825   0.33159   0.00000  Uiso   1.00
H172   H     0.04104   0.86754   0.59046   0.00000  Uiso   1.00
H173   H     0.14142   0.46826   0.43543   0.00000  Uiso   1.00
H174   H     0.91841   0.87005   0.17603   0.00000  Uiso   1.00
H175   H     0.06817   0.99508   0.72192   0.00000  Uiso   1.00
O176   O     0.23137   0.42896   0.37051   0.00000  Uiso   1.00
O177   O     0.93879   0.95610   0.03019   0.00000  Uiso   1.00
O178   O     0.13527   0.12014   0.74639   0.00000  Uiso   1.00
N179   N     0.22598   0.57649   0.34055   0.00000  Uiso   1.00
N180   N     0.01748   0.95212   0.09801   0.00000  Uiso   1.00
N181   N     0.15748   0.06904   0.60837   0.00000  Uiso   1.00
N182   N     0.16232   0.51486   0.40736   0.00000  Uiso   1.00
N183   N     0.95382   0.89049   0.16483   0.00000  Uiso   1.00
N184   N     0.09382   0.00741   0.67518   0.00000  Uiso   1.00
C185   C     0.36073   0.37128   0.34313   0.00000  Uiso   1.00
C186   C     0.35239   0.27498   0.35876   0.00000  Uiso   1.00
C187   C     0.30992   0.22834   0.33467   0.00000  Uiso   1.00
C188   C     0.30955   0.14082   0.35479   0.00000  Uiso   1.00
C189   C     0.29042   0.99727   0.37252   0.00000  Uiso   1.00
C190   C     0.40985   0.37850   0.29190   0.00000  Uiso   1.00
C191   C     0.41570   0.41890   0.21161   0.00000  Uiso   1.00
C192   C     0.46370   0.41853   0.17546   0.00000  Uiso   1.00
C193   C     0.53379   0.43574   0.08944   0.00000  Uiso   1.00
C194   C     0.37126   0.41071   0.43256   0.00000  Uiso   1.00
C195   C     0.34467   0.47821   0.47053   0.00000  Uiso   1.00
C196   C     0.36019   0.50498   0.55280   0.00000  Uiso   1.00
C197   C     0.37036   0.57220   0.68516   0.00000  Uiso   1.00
C198   C     0.43560   0.29881   0.42170   0.00000  Uiso   1.00
C199   C     0.39305   0.23562   0.40143   0.00000  Uiso   1.00
C200   C     0.39274   0.14815   0.42160   0.00000  Uiso   1.00
C201   C     0.35028   0.10139   0.39754   0.00000  Uiso   1.00
C202   C     0.45052   0.33913   0.33457   0.00000  Uiso   1.00
C203   C     0.49852   0.33871   0.29854   0.00000  Uiso   1.00
C204   C     0.50443   0.37910   0.21821   0.00000  Uiso   1.00
C205   C     0.41193   0.37134   0.47524   0.00000  Uiso   1.00
C206   C     0.42749   0.39802   0.55746   0.00000  Uiso   1.00
C207   C     0.40092   0.46554   0.59555   0.00000  Uiso   1.00
H208   H     0.32908   0.40193   0.30990   0.00000  Uiso   1.00
H209   H     0.27846   0.25882   0.30164   0.00000  Uiso   1.00
H210   H     0.38422   0.44936   0.17861   0.00000  Uiso   1.00
H211   H     0.31320   0.50865   0.43749   0.00000  Uiso   1.00
H212   H     0.24028   0.08279   0.31127   0.00000  Uiso   1.00
H213   H     0.46329   0.48458   0.05187   0.00000  Uiso   1.00
H214   H     0.31353   0.60962   0.59776   0.00000  Uiso   1.00
H215   H     0.46726   0.26816   0.45492   0.00000  Uiso   1.00
H216   H     0.42422   0.11771   0.45462   0.00000  Uiso   1.00
H217   H     0.52998   0.30825   0.33159   0.00000  Uiso   1.00
H218   H     0.45896   0.36754   0.59046   0.00000  Uiso   1.00
H219   H     0.35858   0.96826   0.43543   0.00000  Uiso   1.00
H220   H     0.58159   0.37005   0.17603   0.00000  Uiso   1.00
H221   H     0.43183   0.49508   0.72192   0.00000  Uiso   1.00
O222   O     0.26863   0.92896   0.37051   0.00000  Uiso   1.00
O223   O     0.56121   0.45610   0.03019   0.00000  Uiso   1.00
O224   O     0.36473   0.62014   0.74639   0.00000  Uiso   1.00
N225   N     0.27402   0.07649   0.34055   0.00000  Uiso   1.00
N226   N     0.48252   0.45212   0.09801   0.00000  Uiso   1.00
N227   N     0.34252   0.56904   0.60837   0.00000  Uiso   1.00
N228   N     0.33768   0.01486   0.40736   0.00000  Uiso   1.00
N229   N     0.54618   0.39049   0.16483   0.00000  Uiso   1.00
N230   N     0.40618   0.50741   0.67518   0.00000  Uiso   1.00
C231   C     0.13927   0.62872   0.84313   0.00000  Uiso   1.00
C232   C     0.14761   0.72502   0.85876   0.00000  Uiso   1.00
C233   C     0.19008   0.77166   0.83467   0.00000  Uiso   1.00
C234   C     0.19045   0.85918   0.85479   0.00000  Uiso   1.00
C235   C     0.20958   0.00273   0.87252   0.00000  Uiso   1.00
C236   C     0.09015   0.62150   0.79190   0.00000  Uiso   1.00
C237   C     0.08430   0.58110   0.71161   0.00000  Uiso   1.00
C238   C     0.03630   0.58147   0.67546   0.00000  Uiso   1.00
C239   C     0.96621   0.56426   0.58944   0.00000  Uiso   1.00
C240   C     0.12874   0.58929   0.93256   0.00000  Uiso   1.00
C241   C     0.15533   0.52179   0.97053   0.00000  Uiso   1.00
C242   C     0.13981   0.49502   0.05280   0.00000  Uiso   1.00
C243   C     0.12964   0.42780   0.18516   0.00000  Uiso   1.00
C244   C     0.06440   0.70119   0.92170   0.00000  Uiso   1.00
C245   C     0.10695   0.76438   0.90143   0.00000  Uiso   1.00
C246   C     0.10726   0.85185   0.92160   0.00000  Uiso   1.00
C247   C     0.14972   0.89861   0.89754   0.00000  Uiso   1.00
C248   C     0.04948   0.66087   0.83457   0.00000  Uiso   1.00
C249   C     0.00148   0.66129   0.79854   0.00000  Uiso   1.00
C250   C     0.99557   0.62090   0.71821   0.00000  Uiso   1.00
C251   C     0.08807   0.62866   0.97524   0.00000  Uiso   1.00
C252   C     0.07251   0.60198   0.05746   0.00000  Uiso   1.00
C253   C     0.09908   0.53446   0.09555   0.00000  Uiso   1.00
H254   H     0.17092   0.59807   0.80990   0.00000  Uiso   1.00
H255   H     0.22154   0.74118   0.80164   0.00000  Uiso   1.00
H256   H     0.11578   0.55064   0.67861   0.00000  Uiso   1.00
H257   H     0.18680   0.49135   0.93749   0.00000  Uiso   1.00
H258   H     0.25972   0.91721   0.81127   0.00000  Uiso   1.00
H259   H     0.03671   0.51542   0.55187   0.00000  Uiso   1.00
H260   H     0.18647   0.39038   0.09776   0.00000  Uiso   1.00
H261   H     0.03274   0.73184   0.95492   0.00000  Uiso   1.00
H262   H     0.07578   0.88229   0.95462   0.00000  Uiso   1.00
H263   H     0.97002   0.69175   0.83159   0.00000  Uiso   1.00
H264   H     0.04104   0.63246   0.09046   0.00000  Uiso   1.00
H265   H     0.14142   0.03174   0.93543   0.00000  Uiso   1.00
H266   H     0.91841   0.62995   0.67603   0.00000  Uiso   1.00
H267   H     0.06817   0.50492   0.22192   0.00000  Uiso   1.00
O268   O     0.23137   0.07104   0.87051   0.00000  Uiso   1.00
O269   O     0.93879   0.54390   0.53019   0.00000  Uiso   1.00
O270   O     0.13527   0.37986   0.24639   0.00000  Uiso   1.00
N271   N     0.22598   0.92351   0.84055   0.00000  Uiso   1.00
N272   N     0.01748   0.54788   0.59801   0.00000  Uiso   1.00
N273   N     0.15748   0.43096   0.10837   0.00000  Uiso   1.00
N274   N     0.16232   0.98514   0.90736   0.00000  Uiso   1.00
N275   N     0.95382   0.60951   0.66483   0.00000  Uiso   1.00
N276   N     0.09382   0.49259   0.17518   0.00000  Uiso   1.00
C277   C     0.63927   0.87128   0.15687   0.00000  Uiso   1.00
C278   C     0.64761   0.77498   0.14124   0.00000  Uiso   1.00
C279   C     0.69008   0.72834   0.16533   0.00000  Uiso   1.00
C280   C     0.69045   0.64082   0.14521   0.00000  Uiso   1.00
C281   C     0.70958   0.49727   0.12748   0.00000  Uiso   1.00
C282   C     0.59015   0.87850   0.20810   0.00000  Uiso   1.00
C283   C     0.58430   0.91890   0.28839   0.00000  Uiso   1.00
C284   C     0.53630   0.91853   0.32454   0.00000  Uiso   1.00
C285   C     0.46621   0.93574   0.41056   0.00000  Uiso   1.00
C286   C     0.62874   0.91071   0.06744   0.00000  Uiso   1.00
C287   C     0.65533   0.97821   0.02947   0.00000  Uiso   1.00
C288   C     0.63981   0.00498   0.94720   0.00000  Uiso   1.00
C289   C     0.62964   0.07220   0.81484   0.00000  Uiso   1.00
C290   C     0.56440   0.79881   0.07830   0.00000  Uiso   1.00
C291   C     0.60695   0.73562   0.09857   0.00000  Uiso   1.00
C292   C     0.60726   0.64815   0.07840   0.00000  Uiso   1.00
C293   C     0.64972   0.60139   0.10246   0.00000  Uiso   1.00
C294   C     0.54948   0.83913   0.16543   0.00000  Uiso   1.00
C295   C     0.50148   0.83871   0.20146   0.00000  Uiso   1.00
C296   C     0.49557   0.87910   0.28179   0.00000  Uiso   1.00
C297   C     0.58807   0.87134   0.02476   0.00000  Uiso   1.00
C298   C     0.57251   0.89802   0.94254   0.00000  Uiso   1.00
C299   C     0.59908   0.96554   0.90445   0.00000  Uiso   1.00
H300   H     0.67092   0.90193   0.19010   0.00000  Uiso   1.00
H301   H     0.72154   0.75882   0.19836   0.00000  Uiso   1.00
H302   H     0.61578   0.94936   0.32139   0.00000  Uiso   1.00
H303   H     0.68680   0.00865   0.06251   0.00000  Uiso   1.00
H304   H     0.75972   0.58279   0.18873   0.00000  Uiso   1.00
H305   H     0.53671   0.98458   0.44813   0.00000  Uiso   1.00
H306   H     0.68647   0.10962   0.90224   0.00000  Uiso   1.00
H307   H     0.53274   0.76816   0.04508   0.00000  Uiso   1.00
H308   H     0.57578   0.61771   0.04538   0.00000  Uiso   1.00
H309   H     0.47002   0.80825   0.16841   0.00000  Uiso   1.00
H310   H     0.54104   0.86754   0.90954   0.00000  Uiso   1.00
H311   H     0.64142   0.46826   0.06457   0.00000  Uiso   1.00
H312   H     0.41841   0.87005   0.32397   0.00000  Uiso   1.00
H313   H     0.56817   0.99508   0.77808   0.00000  Uiso   1.00
O314   O     0.73137   0.42896   0.12949   0.00000  Uiso   1.00
O315   O     0.43879   0.95610   0.46981   0.00000  Uiso   1.00
O316   O     0.63527   0.12014   0.75361   0.00000  Uiso   1.00
N317   N     0.72598   0.57649   0.15945   0.00000  Uiso   1.00
N318   N     0.51748   0.95212   0.40199   0.00000  Uiso   1.00
N319   N     0.65748   0.06904   0.89163   0.00000  Uiso   1.00
N320   N     0.66232   0.51486   0.09264   0.00000  Uiso   1.00
N321   N     0.45382   0.89049   0.33517   0.00000  Uiso   1.00
N322   N     0.59382   0.00741   0.82482   0.00000  Uiso   1.00
C323   C     0.86073   0.12872   0.65687   0.00000  Uiso   1.00
C324   C     0.85239   0.22502   0.64124   0.00000  Uiso   1.00
C325   C     0.80992   0.27166   0.66533   0.00000  Uiso   1.00
C326   C     0.80955   0.35918   0.64521   0.00000  Uiso   1.00
C327   C     0.79042   0.50273   0.62748   0.00000  Uiso   1.00
C328   C     0.90985   0.12150   0.70810   0.00000  Uiso   1.00
C329   C     0.91570   0.08110   0.78839   0.00000  Uiso   1.00
C330   C     0.96370   0.08147   0.82454   0.00000  Uiso   1.00
C331   C     0.03379   0.06426   0.91056   0.00000  Uiso   1.00
C332   C     0.87126   0.08929   0.56744   0.00000  Uiso   1.00
C333   C     0.84467   0.02179   0.52947   0.00000  Uiso   1.00
C334   C     0.86019   0.99502   0.44720   0.00000  Uiso   1.00
C335   C     0.87036   0.92780   0.31484   0.00000  Uiso   1.00
C336   C     0.93560   0.20119   0.57830   0.00000  Uiso   1.00
C337   C     0.89305   0.26438   0.59857   0.00000  Uiso   1.00
C338   C     0.89274   0.35185   0.57840   0.00000  Uiso   1.00
C339   C     0.85028   0.39861   0.60246   0.00000  Uiso   1.00
C340   C     0.95052   0.16087   0.66543   0.00000  Uiso   1.00
C341   C     0.99852   0.16129   0.70146   0.00000  Uiso   1.00
C342   C     0.00443   0.12090   0.78179   0.00000  Uiso   1.00
C343   C     0.91193   0.12866   0.52476   0.00000  Uiso   1.00
C344   C     0.92749   0.10198   0.44254   0.00000  Uiso   1.00
C345   C     0.90092   0.03446   0.40445   0.00000  Uiso   1.00
H346   H     0.82908   0.09807   0.69010   0.00000  Uiso   1.00
H347   H     0.77846   0.24118   0.69836   0.00000  Uiso   1.00
H348   H     0.88422   0.05064   0.82139   0.00000  Uiso   1.00
H349   H     0.81320   0.99135   0.56251   0.00000  Uiso   1.00
H350   H     0.74028   0.41721   0.68873   0.00000  Uiso   1.00
H351   H     0.96329   0.01542   0.94813   0.00000  Uiso   1.00
H352   H     0.81353   0.89038   0.40224   0.00000  Uiso   1.00
H353   H     0.96726   0.23184   0.54508   0.00000  Uiso   1.00
H354   H     0.92422   0.38229   0.54538   0.00000  Uiso   1.00
H355   H     0.02998   0.19175   0.66841   0.00000  Uiso   1.00
H356   H     0.95896   0.13246   0.40954   0.00000  Uiso   1.00
H357   H     0.85858   0.53174   0.56457   0.00000  Uiso   1.00
H358   H     0.08159   0.12995   0.82397   0.00000  Uiso   1.00
H359   H     0.93183   0.00492   0.27808   0.00000  Uiso   1.00
O360   O     0.76863   0.57104   0.62949   0.00000  Uiso   1.00
O361   O     0.06121   0.04390   0.96981   0.00000  Uiso   1.00
O362   O     0.86473   0.87986   0.25361   0.00000  Uiso   1.00
N363   N     0.77402   0.42351   0.65945   0.00000  Uiso   1.00
N364   N     0.98252   0.04788   0.90199   0.00000  Uiso   1.00
N365   N     0.84252   0.93096   0.39163   0.00000  Uiso   1.00
N366   N     0.83768   0.48514   0.59264   0.00000  Uiso   1.00
N367   N     0.04618   0.10951   0.83517   0.00000  Uiso   1.00
N368   N     0.90618   0.99259   0.32482   0.00000  Uiso   1.00
