data_job_02584
_audit_creation_date              2018-12-19
_audit_creation_method            'Materials Studio'
_symmetry_space_group_name_H-M    'P1'
_symmetry_Int_Tables_number       1
_symmetry_cell_setting            triclinic
loop_
_symmetry_equiv_pos_as_xyz
  x,y,z
_cell_length_a                    21.0527
_cell_length_b                    14.0904
_cell_length_c                    23.8998
_cell_angle_alpha                 90.0000
_cell_angle_beta                  90.0000
_cell_angle_gamma                 90.0000
loop_
_atom_site_label
_atom_site_type_symbol
_atom_site_fract_x
_atom_site_fract_y
_atom_site_fract_z
_atom_site_U_iso_or_equiv
_atom_site_adp_type
_atom_site_occupancy
C1     C     0.35593   0.46798   0.59673   0.00000  Uiso   1.00
C2     C     0.42236   0.42557   0.60141   0.00000  Uiso   1.00
C3     C     0.47865   0.47656   0.60442   0.00000  Uiso   1.00
C4     C     0.53449   0.42461   0.60852   0.00000  Uiso   1.00
C5     C     0.63771   0.37387   0.61560   0.00000  Uiso   1.00
C6     C     0.32656   0.42490   0.54423   0.00000  Uiso   1.00
C7     C     0.30230   0.47533   0.49916   0.00000  Uiso   1.00
C8     C     0.27749   0.42281   0.45513   0.00000  Uiso   1.00
C9     C     0.23194   0.37103   0.37345   0.00000  Uiso   1.00
C10    C     0.31824   0.42811   0.64588   0.00000  Uiso   1.00
C11    C     0.28696   0.48124   0.68628   0.00000  Uiso   1.00
C12    C     0.25513   0.43142   0.72783   0.00000  Uiso   1.00
C13    C     0.19666   0.38463   0.80398   0.00000  Uiso   1.00
C14    C     0.35500   0.28504   0.59868   0.00000  Uiso   1.00
C15    C     0.42185   0.32620   0.60247   0.00000  Uiso   1.00
C16    C     0.47762   0.27415   0.60657   0.00000  Uiso   1.00
C17    C     0.53399   0.32506   0.60959   0.00000  Uiso   1.00
C18    C     0.32605   0.32553   0.54529   0.00000  Uiso   1.00
C19    C     0.30127   0.27292   0.50132   0.00000  Uiso   1.00
C20    C     0.27698   0.32326   0.45619   0.00000  Uiso   1.00
C21    C     0.31773   0.32874   0.64694   0.00000  Uiso   1.00
C22    C     0.28594   0.27883   0.68843   0.00000  Uiso   1.00
C23    C     0.25462   0.33187   0.72889   0.00000  Uiso   1.00
H24    H     0.35632   0.54535   0.59591   0.00000  Uiso   1.00
H25    H     0.47902   0.55347   0.60359   0.00000  Uiso   1.00
H26    H     0.30269   0.55223   0.49836   0.00000  Uiso   1.00
H27    H     0.28736   0.55814   0.68545   0.00000  Uiso   1.00
H28    H     0.61483   0.51864   0.61256   0.00000  Uiso   1.00
H29    H     0.24301   0.51605   0.39067   0.00000  Uiso   1.00
H30    H     0.21069   0.52850   0.78519   0.00000  Uiso   1.00
H31    H     0.35461   0.20767   0.59950   0.00000  Uiso   1.00
H32    H     0.47722   0.19726   0.60739   0.00000  Uiso   1.00
H33    H     0.30089   0.19603   0.50215   0.00000  Uiso   1.00
H34    H     0.28556   0.20193   0.68924   0.00000  Uiso   1.00
H35    H     0.61337   0.22953   0.61564   0.00000  Uiso   1.00
H36    H     0.24155   0.22693   0.39375   0.00000  Uiso   1.00
H37    H     0.20922   0.23939   0.78826   0.00000  Uiso   1.00
O38    O     0.69479   0.37333   0.61921   0.00000  Uiso   1.00
O39    O     0.20696   0.36992   0.32810   0.00000  Uiso   1.00
O40    O     0.16456   0.38626   0.84569   0.00000  Uiso   1.00
N41    N     0.59766   0.45203   0.61222   0.00000  Uiso   1.00
N42    N     0.25004   0.44960   0.40476   0.00000  Uiso   1.00
N43    N     0.21980   0.46124   0.77359   0.00000  Uiso   1.00
N44    N     0.59688   0.29646   0.61387   0.00000  Uiso   1.00
N45    N     0.24925   0.29403   0.40642   0.00000  Uiso   1.00
N46    N     0.21902   0.30568   0.77524   0.00000  Uiso   1.00
C47    C     0.14407   0.03202   0.09673   0.00000  Uiso   1.00
C48    C     0.07764   0.07443   0.10141   0.00000  Uiso   1.00
C49    C     0.02135   0.02344   0.10442   0.00000  Uiso   1.00
C50    C     0.96551   0.07539   0.10852   0.00000  Uiso   1.00
C51    C     0.86229   0.12613   0.11560   0.00000  Uiso   1.00
C52    C     0.17344   0.07510   0.04423   0.00000  Uiso   1.00
C53    C     0.19770   0.02467   0.99916   0.00000  Uiso   1.00
C54    C     0.22251   0.07719   0.95513   0.00000  Uiso   1.00
C55    C     0.26806   0.12897   0.87345   0.00000  Uiso   1.00
C56    C     0.18176   0.07189   0.14588   0.00000  Uiso   1.00
C57    C     0.21304   0.01876   0.18628   0.00000  Uiso   1.00
C58    C     0.24487   0.06858   0.22783   0.00000  Uiso   1.00
C59    C     0.30334   0.11537   0.30398   0.00000  Uiso   1.00
C60    C     0.14500   0.21496   0.09868   0.00000  Uiso   1.00
C61    C     0.07815   0.17380   0.10247   0.00000  Uiso   1.00
C62    C     0.02238   0.22585   0.10657   0.00000  Uiso   1.00
C63    C     0.96601   0.17494   0.10959   0.00000  Uiso   1.00
C64    C     0.17395   0.17447   0.04529   0.00000  Uiso   1.00
C65    C     0.19873   0.22708   0.00132   0.00000  Uiso   1.00
C66    C     0.22302   0.17674   0.95619   0.00000  Uiso   1.00
C67    C     0.18227   0.17126   0.14694   0.00000  Uiso   1.00
C68    C     0.21406   0.22117   0.18843   0.00000  Uiso   1.00
C69    C     0.24538   0.16813   0.22889   0.00000  Uiso   1.00
H70    H     0.14368   0.95465   0.09591   0.00000  Uiso   1.00
H71    H     0.02098   0.94653   0.10359   0.00000  Uiso   1.00
H72    H     0.19731   0.94777   0.99836   0.00000  Uiso   1.00
H73    H     0.21264   0.94186   0.18545   0.00000  Uiso   1.00
H74    H     0.88517   0.98136   0.11256   0.00000  Uiso   1.00
H75    H     0.25699   0.98395   0.89067   0.00000  Uiso   1.00
H76    H     0.28931   0.97150   0.28519   0.00000  Uiso   1.00
H77    H     0.14539   0.29233   0.09950   0.00000  Uiso   1.00
H78    H     0.02278   0.30274   0.10739   0.00000  Uiso   1.00
H79    H     0.19911   0.30397   0.00215   0.00000  Uiso   1.00
H80    H     0.21444   0.29807   0.18924   0.00000  Uiso   1.00
H81    H     0.88663   0.27047   0.11564   0.00000  Uiso   1.00
H82    H     0.25845   0.27307   0.89375   0.00000  Uiso   1.00
H83    H     0.29078   0.26061   0.28826   0.00000  Uiso   1.00
O84    O     0.80521   0.12667   0.11921   0.00000  Uiso   1.00
O85    O     0.29304   0.13008   0.82810   0.00000  Uiso   1.00
O86    O     0.33544   0.11374   0.34569   0.00000  Uiso   1.00
N87    N     0.90234   0.04797   0.11222   0.00000  Uiso   1.00
N88    N     0.24996   0.05040   0.90476   0.00000  Uiso   1.00
N89    N     0.28020   0.03876   0.27359   0.00000  Uiso   1.00
N90    N     0.90312   0.20354   0.11387   0.00000  Uiso   1.00
N91    N     0.25075   0.20597   0.90642   0.00000  Uiso   1.00
N92    N     0.28098   0.19432   0.27524   0.00000  Uiso   1.00
C93    C     0.64407   0.46798   0.90327   0.00000  Uiso   1.00
C94    C     0.57764   0.42557   0.89859   0.00000  Uiso   1.00
C95    C     0.52135   0.47656   0.89558   0.00000  Uiso   1.00
C96    C     0.46551   0.42461   0.89148   0.00000  Uiso   1.00
C97    C     0.36229   0.37387   0.88440   0.00000  Uiso   1.00
C98    C     0.67344   0.42490   0.95577   0.00000  Uiso   1.00
C99    C     0.69770   0.47533   0.00084   0.00000  Uiso   1.00
C100   C     0.72251   0.42281   0.04487   0.00000  Uiso   1.00
C101   C     0.76806   0.37103   0.12655   0.00000  Uiso   1.00
C102   C     0.68176   0.42811   0.85412   0.00000  Uiso   1.00
C103   C     0.71304   0.48124   0.81372   0.00000  Uiso   1.00
C104   C     0.74487   0.43142   0.77217   0.00000  Uiso   1.00
C105   C     0.80334   0.38463   0.69602   0.00000  Uiso   1.00
C106   C     0.64500   0.28504   0.90132   0.00000  Uiso   1.00
C107   C     0.57815   0.32620   0.89753   0.00000  Uiso   1.00
C108   C     0.52238   0.27415   0.89343   0.00000  Uiso   1.00
C109   C     0.46601   0.32506   0.89041   0.00000  Uiso   1.00
C110   C     0.67395   0.32553   0.95471   0.00000  Uiso   1.00
C111   C     0.69873   0.27292   0.99868   0.00000  Uiso   1.00
C112   C     0.72302   0.32326   0.04381   0.00000  Uiso   1.00
C113   C     0.68227   0.32874   0.85306   0.00000  Uiso   1.00
C114   C     0.71406   0.27883   0.81157   0.00000  Uiso   1.00
C115   C     0.74538   0.33187   0.77111   0.00000  Uiso   1.00
H116   H     0.64368   0.54535   0.90409   0.00000  Uiso   1.00
H117   H     0.52098   0.55347   0.89641   0.00000  Uiso   1.00
H118   H     0.69731   0.55223   0.00164   0.00000  Uiso   1.00
H119   H     0.71264   0.55814   0.81455   0.00000  Uiso   1.00
H120   H     0.38517   0.51864   0.88744   0.00000  Uiso   1.00
H121   H     0.75699   0.51605   0.10933   0.00000  Uiso   1.00
H122   H     0.78931   0.52850   0.71481   0.00000  Uiso   1.00
H123   H     0.64539   0.20767   0.90050   0.00000  Uiso   1.00
H124   H     0.52278   0.19726   0.89261   0.00000  Uiso   1.00
H125   H     0.69911   0.19603   0.99785   0.00000  Uiso   1.00
H126   H     0.71444   0.20193   0.81076   0.00000  Uiso   1.00
H127   H     0.38663   0.22953   0.88436   0.00000  Uiso   1.00
H128   H     0.75845   0.22693   0.10625   0.00000  Uiso   1.00
H129   H     0.79078   0.23939   0.71174   0.00000  Uiso   1.00
O130   O     0.30521   0.37333   0.88079   0.00000  Uiso   1.00
O131   O     0.79304   0.36992   0.17190   0.00000  Uiso   1.00
O132   O     0.83544   0.38626   0.65431   0.00000  Uiso   1.00
N133   N     0.40234   0.45203   0.88778   0.00000  Uiso   1.00
N134   N     0.74996   0.44960   0.09524   0.00000  Uiso   1.00
N135   N     0.78020   0.46124   0.72641   0.00000  Uiso   1.00
N136   N     0.40312   0.29646   0.88613   0.00000  Uiso   1.00
N137   N     0.75075   0.29403   0.09358   0.00000  Uiso   1.00
N138   N     0.78098   0.30568   0.72476   0.00000  Uiso   1.00
C139   C     0.85593   0.03202   0.40327   0.00000  Uiso   1.00
C140   C     0.92236   0.07443   0.39859   0.00000  Uiso   1.00
C141   C     0.97865   0.02344   0.39558   0.00000  Uiso   1.00
C142   C     0.03449   0.07539   0.39148   0.00000  Uiso   1.00
C143   C     0.13771   0.12613   0.38440   0.00000  Uiso   1.00
C144   C     0.82656   0.07510   0.45577   0.00000  Uiso   1.00
C145   C     0.80230   0.02467   0.50084   0.00000  Uiso   1.00
C146   C     0.77749   0.07719   0.54487   0.00000  Uiso   1.00
C147   C     0.73194   0.12897   0.62655   0.00000  Uiso   1.00
C148   C     0.81824   0.07189   0.35412   0.00000  Uiso   1.00
C149   C     0.78696   0.01876   0.31372   0.00000  Uiso   1.00
C150   C     0.75513   0.06858   0.27217   0.00000  Uiso   1.00
C151   C     0.69666   0.11537   0.19602   0.00000  Uiso   1.00
C152   C     0.85500   0.21496   0.40132   0.00000  Uiso   1.00
C153   C     0.92185   0.17380   0.39753   0.00000  Uiso   1.00
C154   C     0.97762   0.22585   0.39343   0.00000  Uiso   1.00
C155   C     0.03399   0.17494   0.39041   0.00000  Uiso   1.00
C156   C     0.82605   0.17447   0.45471   0.00000  Uiso   1.00
C157   C     0.80127   0.22708   0.49868   0.00000  Uiso   1.00
C158   C     0.77698   0.17674   0.54381   0.00000  Uiso   1.00
C159   C     0.81773   0.17126   0.35306   0.00000  Uiso   1.00
C160   C     0.78594   0.22117   0.31157   0.00000  Uiso   1.00
C161   C     0.75462   0.16813   0.27111   0.00000  Uiso   1.00
H162   H     0.85632   0.95465   0.40409   0.00000  Uiso   1.00
H163   H     0.97902   0.94653   0.39641   0.00000  Uiso   1.00
H164   H     0.80269   0.94777   0.50164   0.00000  Uiso   1.00
H165   H     0.78736   0.94186   0.31455   0.00000  Uiso   1.00
H166   H     0.11483   0.98136   0.38744   0.00000  Uiso   1.00
H167   H     0.74301   0.98395   0.60933   0.00000  Uiso   1.00
H168   H     0.71069   0.97150   0.21481   0.00000  Uiso   1.00
H169   H     0.85461   0.29233   0.40050   0.00000  Uiso   1.00
H170   H     0.97722   0.30274   0.39261   0.00000  Uiso   1.00
H171   H     0.80089   0.30397   0.49785   0.00000  Uiso   1.00
H172   H     0.78556   0.29807   0.31076   0.00000  Uiso   1.00
H173   H     0.11337   0.27047   0.38436   0.00000  Uiso   1.00
H174   H     0.74155   0.27307   0.60625   0.00000  Uiso   1.00
H175   H     0.70922   0.26061   0.21174   0.00000  Uiso   1.00
O176   O     0.19479   0.12667   0.38079   0.00000  Uiso   1.00
O177   O     0.70696   0.13008   0.67190   0.00000  Uiso   1.00
O178   O     0.66456   0.11374   0.15431   0.00000  Uiso   1.00
N179   N     0.09766   0.04797   0.38778   0.00000  Uiso   1.00
N180   N     0.75004   0.05040   0.59524   0.00000  Uiso   1.00
N181   N     0.71980   0.03876   0.22641   0.00000  Uiso   1.00
N182   N     0.09688   0.20354   0.38613   0.00000  Uiso   1.00
N183   N     0.74925   0.20597   0.59358   0.00000  Uiso   1.00
N184   N     0.71902   0.19432   0.22476   0.00000  Uiso   1.00
C185   C     0.64407   0.53202   0.40327   0.00000  Uiso   1.00
C186   C     0.57764   0.57443   0.39859   0.00000  Uiso   1.00
C187   C     0.52135   0.52344   0.39558   0.00000  Uiso   1.00
C188   C     0.46551   0.57539   0.39148   0.00000  Uiso   1.00
C189   C     0.36229   0.62613   0.38440   0.00000  Uiso   1.00
C190   C     0.67344   0.57510   0.45577   0.00000  Uiso   1.00
C191   C     0.69770   0.52467   0.50084   0.00000  Uiso   1.00
C192   C     0.72251   0.57719   0.54487   0.00000  Uiso   1.00
C193   C     0.76806   0.62897   0.62655   0.00000  Uiso   1.00
C194   C     0.68176   0.57189   0.35412   0.00000  Uiso   1.00
C195   C     0.71304   0.51876   0.31372   0.00000  Uiso   1.00
C196   C     0.74487   0.56858   0.27217   0.00000  Uiso   1.00
C197   C     0.80334   0.61537   0.19602   0.00000  Uiso   1.00
C198   C     0.64500   0.71496   0.40132   0.00000  Uiso   1.00
C199   C     0.57815   0.67380   0.39753   0.00000  Uiso   1.00
C200   C     0.52238   0.72585   0.39343   0.00000  Uiso   1.00
C201   C     0.46601   0.67494   0.39041   0.00000  Uiso   1.00
C202   C     0.67395   0.67447   0.45471   0.00000  Uiso   1.00
C203   C     0.69873   0.72708   0.49868   0.00000  Uiso   1.00
C204   C     0.72302   0.67674   0.54381   0.00000  Uiso   1.00
C205   C     0.68227   0.67126   0.35306   0.00000  Uiso   1.00
C206   C     0.71406   0.72117   0.31157   0.00000  Uiso   1.00
C207   C     0.74538   0.66813   0.27111   0.00000  Uiso   1.00
H208   H     0.64368   0.45465   0.40409   0.00000  Uiso   1.00
H209   H     0.52098   0.44653   0.39641   0.00000  Uiso   1.00
H210   H     0.69731   0.44777   0.50164   0.00000  Uiso   1.00
H211   H     0.71264   0.44186   0.31455   0.00000  Uiso   1.00
H212   H     0.38517   0.48136   0.38744   0.00000  Uiso   1.00
H213   H     0.75699   0.48395   0.60933   0.00000  Uiso   1.00
H214   H     0.78931   0.47150   0.21481   0.00000  Uiso   1.00
H215   H     0.64539   0.79233   0.40050   0.00000  Uiso   1.00
H216   H     0.52278   0.80274   0.39261   0.00000  Uiso   1.00
H217   H     0.69911   0.80397   0.49785   0.00000  Uiso   1.00
H218   H     0.71444   0.79807   0.31076   0.00000  Uiso   1.00
H219   H     0.38663   0.77047   0.38436   0.00000  Uiso   1.00
H220   H     0.75845   0.77307   0.60625   0.00000  Uiso   1.00
H221   H     0.79078   0.76061   0.21174   0.00000  Uiso   1.00
O222   O     0.30521   0.62667   0.38079   0.00000  Uiso   1.00
O223   O     0.79304   0.63008   0.67190   0.00000  Uiso   1.00
O224   O     0.83544   0.61374   0.15431   0.00000  Uiso   1.00
N225   N     0.40234   0.54797   0.38778   0.00000  Uiso   1.00
N226   N     0.74996   0.55040   0.59524   0.00000  Uiso   1.00
N227   N     0.78020   0.53876   0.22641   0.00000  Uiso   1.00
N228   N     0.40312   0.70354   0.38613   0.00000  Uiso   1.00
N229   N     0.75075   0.70597   0.59358   0.00000  Uiso   1.00
N230   N     0.78098   0.69432   0.22476   0.00000  Uiso   1.00
C231   C     0.85593   0.96798   0.90327   0.00000  Uiso   1.00
C232   C     0.92236   0.92557   0.89859   0.00000  Uiso   1.00
C233   C     0.97865   0.97656   0.89558   0.00000  Uiso   1.00
C234   C     0.03449   0.92461   0.89148   0.00000  Uiso   1.00
C235   C     0.13771   0.87387   0.88440   0.00000  Uiso   1.00
C236   C     0.82656   0.92490   0.95577   0.00000  Uiso   1.00
C237   C     0.80230   0.97533   0.00084   0.00000  Uiso   1.00
C238   C     0.77749   0.92281   0.04487   0.00000  Uiso   1.00
C239   C     0.73194   0.87103   0.12655   0.00000  Uiso   1.00
C240   C     0.81824   0.92811   0.85412   0.00000  Uiso   1.00
C241   C     0.78696   0.98124   0.81372   0.00000  Uiso   1.00
C242   C     0.75513   0.93142   0.77217   0.00000  Uiso   1.00
C243   C     0.69666   0.88463   0.69602   0.00000  Uiso   1.00
C244   C     0.85500   0.78504   0.90132   0.00000  Uiso   1.00
C245   C     0.92185   0.82620   0.89753   0.00000  Uiso   1.00
C246   C     0.97762   0.77415   0.89343   0.00000  Uiso   1.00
C247   C     0.03399   0.82506   0.89041   0.00000  Uiso   1.00
C248   C     0.82605   0.82553   0.95471   0.00000  Uiso   1.00
C249   C     0.80127   0.77292   0.99868   0.00000  Uiso   1.00
C250   C     0.77698   0.82326   0.04381   0.00000  Uiso   1.00
C251   C     0.81773   0.82874   0.85306   0.00000  Uiso   1.00
C252   C     0.78594   0.77883   0.81157   0.00000  Uiso   1.00
C253   C     0.75462   0.83187   0.77111   0.00000  Uiso   1.00
H254   H     0.85632   0.04535   0.90409   0.00000  Uiso   1.00
H255   H     0.97902   0.05347   0.89641   0.00000  Uiso   1.00
H256   H     0.80269   0.05223   0.00164   0.00000  Uiso   1.00
H257   H     0.78736   0.05814   0.81455   0.00000  Uiso   1.00
H258   H     0.11483   0.01864   0.88744   0.00000  Uiso   1.00
H259   H     0.74301   0.01605   0.10933   0.00000  Uiso   1.00
H260   H     0.71069   0.02850   0.71481   0.00000  Uiso   1.00
H261   H     0.85461   0.70767   0.90050   0.00000  Uiso   1.00
H262   H     0.97722   0.69726   0.89261   0.00000  Uiso   1.00
H263   H     0.80089   0.69603   0.99785   0.00000  Uiso   1.00
H264   H     0.78556   0.70193   0.81076   0.00000  Uiso   1.00
H265   H     0.11337   0.72953   0.88436   0.00000  Uiso   1.00
H266   H     0.74155   0.72693   0.10625   0.00000  Uiso   1.00
H267   H     0.70922   0.73939   0.71174   0.00000  Uiso   1.00
O268   O     0.19479   0.87333   0.88079   0.00000  Uiso   1.00
O269   O     0.70696   0.86992   0.17190   0.00000  Uiso   1.00
O270   O     0.66456   0.88626   0.65431   0.00000  Uiso   1.00
N271   N     0.09766   0.95203   0.88778   0.00000  Uiso   1.00
N272   N     0.75004   0.94960   0.09524   0.00000  Uiso   1.00
N273   N     0.71980   0.96124   0.72641   0.00000  Uiso   1.00
N274   N     0.09688   0.79646   0.88613   0.00000  Uiso   1.00
N275   N     0.74925   0.79403   0.09358   0.00000  Uiso   1.00
N276   N     0.71902   0.80568   0.72476   0.00000  Uiso   1.00
C277   C     0.35593   0.53202   0.09673   0.00000  Uiso   1.00
C278   C     0.42236   0.57443   0.10141   0.00000  Uiso   1.00
C279   C     0.47865   0.52344   0.10442   0.00000  Uiso   1.00
C280   C     0.53449   0.57539   0.10852   0.00000  Uiso   1.00
C281   C     0.63771   0.62613   0.11560   0.00000  Uiso   1.00
C282   C     0.32656   0.57510   0.04423   0.00000  Uiso   1.00
C283   C     0.30230   0.52467   0.99916   0.00000  Uiso   1.00
C284   C     0.27749   0.57719   0.95513   0.00000  Uiso   1.00
C285   C     0.23194   0.62897   0.87345   0.00000  Uiso   1.00
C286   C     0.31824   0.57189   0.14588   0.00000  Uiso   1.00
C287   C     0.28696   0.51876   0.18628   0.00000  Uiso   1.00
C288   C     0.25513   0.56858   0.22783   0.00000  Uiso   1.00
C289   C     0.19666   0.61537   0.30398   0.00000  Uiso   1.00
C290   C     0.35500   0.71496   0.09868   0.00000  Uiso   1.00
C291   C     0.42185   0.67380   0.10247   0.00000  Uiso   1.00
C292   C     0.47762   0.72585   0.10657   0.00000  Uiso   1.00
C293   C     0.53399   0.67494   0.10959   0.00000  Uiso   1.00
C294   C     0.32605   0.67447   0.04529   0.00000  Uiso   1.00
C295   C     0.30127   0.72708   0.00132   0.00000  Uiso   1.00
C296   C     0.27698   0.67674   0.95619   0.00000  Uiso   1.00
C297   C     0.31773   0.67126   0.14694   0.00000  Uiso   1.00
C298   C     0.28594   0.72117   0.18843   0.00000  Uiso   1.00
C299   C     0.25462   0.66813   0.22889   0.00000  Uiso   1.00
H300   H     0.35632   0.45465   0.09591   0.00000  Uiso   1.00
H301   H     0.47902   0.44653   0.10359   0.00000  Uiso   1.00
H302   H     0.30269   0.44777   0.99836   0.00000  Uiso   1.00
H303   H     0.28736   0.44186   0.18545   0.00000  Uiso   1.00
H304   H     0.61483   0.48136   0.11256   0.00000  Uiso   1.00
H305   H     0.24301   0.48395   0.89067   0.00000  Uiso   1.00
H306   H     0.21069   0.47150   0.28519   0.00000  Uiso   1.00
H307   H     0.35461   0.79233   0.09950   0.00000  Uiso   1.00
H308   H     0.47722   0.80274   0.10739   0.00000  Uiso   1.00
H309   H     0.30089   0.80397   0.00215   0.00000  Uiso   1.00
H310   H     0.28556   0.79807   0.18924   0.00000  Uiso   1.00
H311   H     0.61337   0.77047   0.11564   0.00000  Uiso   1.00
H312   H     0.24155   0.77307   0.89375   0.00000  Uiso   1.00
H313   H     0.20922   0.76061   0.28826   0.00000  Uiso   1.00
O314   O     0.69479   0.62667   0.11921   0.00000  Uiso   1.00
O315   O     0.20696   0.63008   0.82810   0.00000  Uiso   1.00
O316   O     0.16456   0.61374   0.34569   0.00000  Uiso   1.00
N317   N     0.59766   0.54797   0.11222   0.00000  Uiso   1.00
N318   N     0.25004   0.55040   0.90476   0.00000  Uiso   1.00
N319   N     0.21980   0.53876   0.27359   0.00000  Uiso   1.00
N320   N     0.59688   0.70354   0.11387   0.00000  Uiso   1.00
N321   N     0.24925   0.70597   0.90642   0.00000  Uiso   1.00
N322   N     0.21902   0.69432   0.27524   0.00000  Uiso   1.00
C323   C     0.14407   0.96798   0.59673   0.00000  Uiso   1.00
C324   C     0.07764   0.92557   0.60141   0.00000  Uiso   1.00
C325   C     0.02135   0.97656   0.60442   0.00000  Uiso   1.00
C326   C     0.96551   0.92461   0.60852   0.00000  Uiso   1.00
C327   C     0.86229   0.87387   0.61560   0.00000  Uiso   1.00
C328   C     0.17344   0.92490   0.54423   0.00000  Uiso   1.00
C329   C     0.19770   0.97533   0.49916   0.00000  Uiso   1.00
C330   C     0.22251   0.92281   0.45513   0.00000  Uiso   1.00
C331   C     0.26806   0.87103   0.37345   0.00000  Uiso   1.00
C332   C     0.18176   0.92811   0.64588   0.00000  Uiso   1.00
C333   C     0.21304   0.98124   0.68628   0.00000  Uiso   1.00
C334   C     0.24487   0.93142   0.72783   0.00000  Uiso   1.00
C335   C     0.30334   0.88463   0.80398   0.00000  Uiso   1.00
C336   C     0.14500   0.78504   0.59868   0.00000  Uiso   1.00
C337   C     0.07815   0.82620   0.60247   0.00000  Uiso   1.00
C338   C     0.02238   0.77415   0.60657   0.00000  Uiso   1.00
C339   C     0.96601   0.82506   0.60959   0.00000  Uiso   1.00
C340   C     0.17395   0.82553   0.54529   0.00000  Uiso   1.00
C341   C     0.19873   0.77292   0.50132   0.00000  Uiso   1.00
C342   C     0.22302   0.82326   0.45619   0.00000  Uiso   1.00
C343   C     0.18227   0.82874   0.64694   0.00000  Uiso   1.00
C344   C     0.21406   0.77883   0.68843   0.00000  Uiso   1.00
C345   C     0.24538   0.83187   0.72889   0.00000  Uiso   1.00
H346   H     0.14368   0.04535   0.59591   0.00000  Uiso   1.00
H347   H     0.02098   0.05347   0.60359   0.00000  Uiso   1.00
H348   H     0.19731   0.05223   0.49836   0.00000  Uiso   1.00
H349   H     0.21264   0.05814   0.68545   0.00000  Uiso   1.00
H350   H     0.88517   0.01864   0.61256   0.00000  Uiso   1.00
H351   H     0.25699   0.01605   0.39067   0.00000  Uiso   1.00
H352   H     0.28931   0.02850   0.78519   0.00000  Uiso   1.00
H353   H     0.14539   0.70767   0.59950   0.00000  Uiso   1.00
H354   H     0.02278   0.69726   0.60739   0.00000  Uiso   1.00
H355   H     0.19911   0.69603   0.50215   0.00000  Uiso   1.00
H356   H     0.21444   0.70193   0.68924   0.00000  Uiso   1.00
H357   H     0.88663   0.72953   0.61564   0.00000  Uiso   1.00
H358   H     0.25845   0.72693   0.39375   0.00000  Uiso   1.00
H359   H     0.29078   0.73939   0.78826   0.00000  Uiso   1.00
O360   O     0.80521   0.87333   0.61921   0.00000  Uiso   1.00
O361   O     0.29304   0.86992   0.32810   0.00000  Uiso   1.00
O362   O     0.33544   0.88626   0.84569   0.00000  Uiso   1.00
N363   N     0.90234   0.95203   0.61222   0.00000  Uiso   1.00
N364   N     0.24996   0.94960   0.40476   0.00000  Uiso   1.00
N365   N     0.28020   0.96124   0.77359   0.00000  Uiso   1.00
N366   N     0.90312   0.79646   0.61387   0.00000  Uiso   1.00
N367   N     0.25075   0.79403   0.40642   0.00000  Uiso   1.00
N368   N     0.28098   0.80568   0.77524   0.00000  Uiso   1.00
