data_job_05411
_audit_creation_date              2018-12-19
_audit_creation_method            'Materials Studio'
_symmetry_space_group_name_H-M    'P1'
_symmetry_Int_Tables_number       1
_symmetry_cell_setting            triclinic
loop_
_symmetry_equiv_pos_as_xyz
  x,y,z
_cell_length_a                    23.6830
_cell_length_b                    40.5327
_cell_length_c                    27.4181
_cell_angle_alpha                 90.0000
_cell_angle_beta                  149.7409
_cell_angle_gamma                 90.0000
loop_
_atom_site_label
_atom_site_type_symbol
_atom_site_fract_x
_atom_site_fract_y
_atom_site_fract_z
_atom_site_U_iso_or_equiv
_atom_site_adp_type
_atom_site_occupancy
C1     C     0.88589   0.66024   0.77948   0.00000  Uiso   1.00
C2     C     0.87732   0.67753   0.82234   0.00000  Uiso   1.00
C3     C     0.78172   0.69220   0.76999   0.00000  Uiso   1.00
C4     C     0.79108   0.70673   0.82264   0.00000  Uiso   1.00
C5     C     0.76236   0.73361   0.87378   0.00000  Uiso   1.00
C6     C     0.98015   0.67754   0.82230   0.00000  Uiso   1.00
C7     C     0.97101   0.69220   0.76992   0.00000  Uiso   1.00
C8     C     0.06695   0.70674   0.82255   0.00000  Uiso   1.00
C9     C     0.19790   0.73361   0.87363   0.00000  Uiso   1.00
C10    C     0.92810   0.62548   0.82167   0.00000  Uiso   1.00
C11    C     0.87521   0.59637   0.76875   0.00000  Uiso   1.00
C12    C     0.92733   0.56708   0.82085   0.00000  Uiso   1.00
C13    C     0.97747   0.51312   0.87094   0.00000  Uiso   1.00
C14    C     0.07252   0.65997   0.96609   0.00000  Uiso   1.00
C15    C     0.97869   0.67738   0.92370   0.00000  Uiso   1.00
C16    C     0.98820   0.69189   0.97645   0.00000  Uiso   1.00
C17    C     0.89263   0.70658   0.92418   0.00000  Uiso   1.00
C18    C     0.08152   0.67739   0.92366   0.00000  Uiso   1.00
C19    C     0.17750   0.69190   0.97638   0.00000  Uiso   1.00
C20    C     0.16850   0.70659   0.92409   0.00000  Uiso   1.00
C21    C     0.02947   0.62533   0.92303   0.00000  Uiso   1.00
C22    C     0.08169   0.59608   0.97522   0.00000  Uiso   1.00
C23    C     0.02889   0.56693   0.92239   0.00000  Uiso   1.00
H24    H     0.80697   0.66036   0.70056   0.00000  Uiso   1.00
H25    H     0.70328   0.69231   0.69154   0.00000  Uiso   1.00
H26    H     0.89256   0.69231   0.69148   0.00000  Uiso   1.00
H27    H     0.79676   0.59650   0.69031   0.00000  Uiso   1.00
H28    H     0.63304   0.72767   0.72625   0.00000  Uiso   1.00
H29    H     0.03214   0.72767   0.72611   0.00000  Uiso   1.00
H30    H     0.83014   0.52563   0.72365   0.00000  Uiso   1.00
H31    H     0.15145   0.65986   0.04500   0.00000  Uiso   1.00
H32    H     0.06666   0.69178   0.05489   0.00000  Uiso   1.00
H33    H     0.25593   0.69178   0.05482   0.00000  Uiso   1.00
H34    H     0.16014   0.59597   0.05365   0.00000  Uiso   1.00
H35    H     0.92797   0.72725   0.02115   0.00000  Uiso   1.00
H36    H     0.32707   0.72725   0.02101   0.00000  Uiso   1.00
H37    H     0.12507   0.52521   0.01855   0.00000  Uiso   1.00
O38    O     0.71852   0.74848   0.87398   0.00000  Uiso   1.00
O39    O     0.24213   0.74847   0.87380   0.00000  Uiso   1.00
O40    O     0.97711   0.48340   0.87057   0.00000  Uiso   1.00
N41    N     0.71408   0.72319   0.79430   0.00000  Uiso   1.00
N42    N     0.08721   0.72319   0.79416   0.00000  Uiso   1.00
N43    N     0.89838   0.53430   0.79186   0.00000  Uiso   1.00
N44    N     0.87278   0.72296   0.95298   0.00000  Uiso   1.00
N45    N     0.24591   0.72296   0.95285   0.00000  Uiso   1.00
N46    N     0.05708   0.53407   0.95055   0.00000  Uiso   1.00
C47    C     0.32160   0.32714   0.21518   0.00000  Uiso   1.00
C48    C     0.22734   0.30985   0.17236   0.00000  Uiso   1.00
C49    C     0.23647   0.29519   0.22475   0.00000  Uiso   1.00
C50    C     0.14056   0.28064   0.17213   0.00000  Uiso   1.00
C51    C     0.00964   0.25375   0.12105   0.00000  Uiso   1.00
C52    C     0.33025   0.30984   0.17240   0.00000  Uiso   1.00
C53    C     0.42592   0.29519   0.22482   0.00000  Uiso   1.00
C54    C     0.41663   0.28064   0.17223   0.00000  Uiso   1.00
C55    C     0.44550   0.25376   0.12122   0.00000  Uiso   1.00
C56    C     0.27934   0.36190   0.17291   0.00000  Uiso   1.00
C57    C     0.33221   0.39101   0.22575   0.00000  Uiso   1.00
C58    C     0.28007   0.42029   0.17359   0.00000  Uiso   1.00
C59    C     0.22989   0.47424   0.12336   0.00000  Uiso   1.00
C60    C     0.13502   0.32736   0.02857   0.00000  Uiso   1.00
C61    C     0.12600   0.30996   0.07100   0.00000  Uiso   1.00
C62    C     0.03004   0.29543   0.01828   0.00000  Uiso   1.00
C63    C     0.03903   0.28076   0.07058   0.00000  Uiso   1.00
C64    C     0.22891   0.30996   0.07104   0.00000  Uiso   1.00
C65    C     0.21949   0.29543   0.01836   0.00000  Uiso   1.00
C66    C     0.31511   0.28076   0.07069   0.00000  Uiso   1.00
C67    C     0.17799   0.36202   0.07155   0.00000  Uiso   1.00
C68    C     0.12577   0.39126   0.01929   0.00000  Uiso   1.00
C69    C     0.17854   0.42041   0.07204   0.00000  Uiso   1.00
H70    H     0.40050   0.32705   0.29410   0.00000  Uiso   1.00
H71    H     0.31492   0.29510   0.30319   0.00000  Uiso   1.00
H72    H     0.50433   0.29510   0.30326   0.00000  Uiso   1.00
H73    H     0.41063   0.39091   0.30419   0.00000  Uiso   1.00
H74    H     0.17536   0.25972   0.26857   0.00000  Uiso   1.00
H75    H     0.57475   0.25973   0.26872   0.00000  Uiso   1.00
H76    H     0.37717   0.46177   0.27069   0.00000  Uiso   1.00
H77    H     0.05611   0.32746   0.94965   0.00000  Uiso   1.00
H78    H     0.95163   0.29553   0.93984   0.00000  Uiso   1.00
H79    H     0.14105   0.29553   0.93992   0.00000  Uiso   1.00
H80    H     0.04735   0.39134   0.94085   0.00000  Uiso   1.00
H81    H     0.88050   0.26007   0.97367   0.00000  Uiso   1.00
H82    H     0.27990   0.26008   0.97382   0.00000  Uiso   1.00
H83    H     0.08231   0.46211   0.97578   0.00000  Uiso   1.00
O84    O     0.96542   0.23888   0.12088   0.00000  Uiso   1.00
O85    O     0.48942   0.23889   0.12109   0.00000  Uiso   1.00
O86    O     0.23019   0.50396   0.12366   0.00000  Uiso   1.00
N87    N     0.12030   0.26419   0.20051   0.00000  Uiso   1.00
N88    N     0.49370   0.26419   0.20066   0.00000  Uiso   1.00
N89    N     0.30899   0.45308   0.20249   0.00000  Uiso   1.00
N90    N     0.96164   0.26438   0.04182   0.00000  Uiso   1.00
N91    N     0.33504   0.26438   0.04197   0.00000  Uiso   1.00
N92    N     0.15033   0.45327   0.04380   0.00000  Uiso   1.00
C93    C     0.38589   0.16024   0.77948   0.00000  Uiso   1.00
C94    C     0.37732   0.17753   0.82234   0.00000  Uiso   1.00
C95    C     0.28172   0.19220   0.76999   0.00000  Uiso   1.00
C96    C     0.29108   0.20673   0.82264   0.00000  Uiso   1.00
C97    C     0.26236   0.23361   0.87378   0.00000  Uiso   1.00
C98    C     0.48015   0.17754   0.82230   0.00000  Uiso   1.00
C99    C     0.47101   0.19220   0.76992   0.00000  Uiso   1.00
C100   C     0.56695   0.20674   0.82255   0.00000  Uiso   1.00
C101   C     0.69790   0.23361   0.87363   0.00000  Uiso   1.00
C102   C     0.42810   0.12548   0.82167   0.00000  Uiso   1.00
C103   C     0.37521   0.09637   0.76875   0.00000  Uiso   1.00
C104   C     0.42733   0.06708   0.82085   0.00000  Uiso   1.00
C105   C     0.47747   0.01312   0.87094   0.00000  Uiso   1.00
C106   C     0.57252   0.15997   0.96609   0.00000  Uiso   1.00
C107   C     0.47869   0.17738   0.92370   0.00000  Uiso   1.00
C108   C     0.48820   0.19189   0.97645   0.00000  Uiso   1.00
C109   C     0.39263   0.20658   0.92418   0.00000  Uiso   1.00
C110   C     0.58152   0.17739   0.92366   0.00000  Uiso   1.00
C111   C     0.67750   0.19190   0.97638   0.00000  Uiso   1.00
C112   C     0.66850   0.20659   0.92409   0.00000  Uiso   1.00
C113   C     0.52947   0.12533   0.92303   0.00000  Uiso   1.00
C114   C     0.58169   0.09608   0.97522   0.00000  Uiso   1.00
C115   C     0.52889   0.06693   0.92239   0.00000  Uiso   1.00
H116   H     0.30697   0.16036   0.70056   0.00000  Uiso   1.00
H117   H     0.20328   0.19231   0.69154   0.00000  Uiso   1.00
H118   H     0.39256   0.19231   0.69148   0.00000  Uiso   1.00
H119   H     0.29676   0.09650   0.69031   0.00000  Uiso   1.00
H120   H     0.13304   0.22767   0.72625   0.00000  Uiso   1.00
H121   H     0.53214   0.22767   0.72611   0.00000  Uiso   1.00
H122   H     0.33014   0.02563   0.72365   0.00000  Uiso   1.00
H123   H     0.65145   0.15986   0.04500   0.00000  Uiso   1.00
H124   H     0.56666   0.19178   0.05489   0.00000  Uiso   1.00
H125   H     0.75593   0.19178   0.05482   0.00000  Uiso   1.00
H126   H     0.66014   0.09597   0.05365   0.00000  Uiso   1.00
H127   H     0.42797   0.22725   0.02115   0.00000  Uiso   1.00
H128   H     0.82707   0.22725   0.02101   0.00000  Uiso   1.00
H129   H     0.62507   0.02521   0.01855   0.00000  Uiso   1.00
O130   O     0.21852   0.24848   0.87398   0.00000  Uiso   1.00
O131   O     0.74213   0.24847   0.87380   0.00000  Uiso   1.00
O132   O     0.47711   0.98340   0.87057   0.00000  Uiso   1.00
N133   N     0.21408   0.22319   0.79430   0.00000  Uiso   1.00
N134   N     0.58721   0.22319   0.79416   0.00000  Uiso   1.00
N135   N     0.39838   0.03430   0.79186   0.00000  Uiso   1.00
N136   N     0.37278   0.22296   0.95298   0.00000  Uiso   1.00
N137   N     0.74591   0.22296   0.95285   0.00000  Uiso   1.00
N138   N     0.55708   0.03407   0.95055   0.00000  Uiso   1.00
C139   C     0.82160   0.82714   0.21518   0.00000  Uiso   1.00
C140   C     0.72734   0.80985   0.17236   0.00000  Uiso   1.00
C141   C     0.73647   0.79519   0.22475   0.00000  Uiso   1.00
C142   C     0.64056   0.78064   0.17213   0.00000  Uiso   1.00
C143   C     0.50964   0.75375   0.12105   0.00000  Uiso   1.00
C144   C     0.83025   0.80984   0.17240   0.00000  Uiso   1.00
C145   C     0.92592   0.79519   0.22482   0.00000  Uiso   1.00
C146   C     0.91663   0.78064   0.17223   0.00000  Uiso   1.00
C147   C     0.94550   0.75376   0.12122   0.00000  Uiso   1.00
C148   C     0.77934   0.86190   0.17291   0.00000  Uiso   1.00
C149   C     0.83221   0.89101   0.22575   0.00000  Uiso   1.00
C150   C     0.78007   0.92029   0.17359   0.00000  Uiso   1.00
C151   C     0.72989   0.97424   0.12336   0.00000  Uiso   1.00
C152   C     0.63502   0.82736   0.02857   0.00000  Uiso   1.00
C153   C     0.62600   0.80996   0.07100   0.00000  Uiso   1.00
C154   C     0.53004   0.79543   0.01828   0.00000  Uiso   1.00
C155   C     0.53903   0.78076   0.07058   0.00000  Uiso   1.00
C156   C     0.72891   0.80996   0.07104   0.00000  Uiso   1.00
C157   C     0.71949   0.79543   0.01836   0.00000  Uiso   1.00
C158   C     0.81511   0.78076   0.07069   0.00000  Uiso   1.00
C159   C     0.67799   0.86202   0.07155   0.00000  Uiso   1.00
C160   C     0.62577   0.89126   0.01929   0.00000  Uiso   1.00
C161   C     0.67854   0.92041   0.07204   0.00000  Uiso   1.00
H162   H     0.90050   0.82705   0.29410   0.00000  Uiso   1.00
H163   H     0.81492   0.79510   0.30319   0.00000  Uiso   1.00
H164   H     0.00433   0.79510   0.30326   0.00000  Uiso   1.00
H165   H     0.91063   0.89091   0.30419   0.00000  Uiso   1.00
H166   H     0.67536   0.75972   0.26857   0.00000  Uiso   1.00
H167   H     0.07475   0.75973   0.26872   0.00000  Uiso   1.00
H168   H     0.87717   0.96177   0.27069   0.00000  Uiso   1.00
H169   H     0.55611   0.82746   0.94965   0.00000  Uiso   1.00
H170   H     0.45163   0.79553   0.93984   0.00000  Uiso   1.00
H171   H     0.64105   0.79553   0.93992   0.00000  Uiso   1.00
H172   H     0.54735   0.89134   0.94085   0.00000  Uiso   1.00
H173   H     0.38050   0.76007   0.97367   0.00000  Uiso   1.00
H174   H     0.77990   0.76008   0.97382   0.00000  Uiso   1.00
H175   H     0.58231   0.96211   0.97578   0.00000  Uiso   1.00
O176   O     0.46542   0.73888   0.12088   0.00000  Uiso   1.00
O177   O     0.98942   0.73889   0.12109   0.00000  Uiso   1.00
O178   O     0.73019   0.00396   0.12366   0.00000  Uiso   1.00
N179   N     0.62030   0.76419   0.20051   0.00000  Uiso   1.00
N180   N     0.99370   0.76419   0.20066   0.00000  Uiso   1.00
N181   N     0.80899   0.95308   0.20249   0.00000  Uiso   1.00
N182   N     0.46164   0.76438   0.04182   0.00000  Uiso   1.00
N183   N     0.83504   0.76438   0.04197   0.00000  Uiso   1.00
N184   N     0.65033   0.95327   0.04380   0.00000  Uiso   1.00
C185   C     0.88589   0.33976   0.27948   0.00000  Uiso   1.00
C186   C     0.87732   0.32247   0.32234   0.00000  Uiso   1.00
C187   C     0.78172   0.30780   0.26999   0.00000  Uiso   1.00
C188   C     0.79108   0.29327   0.32264   0.00000  Uiso   1.00
C189   C     0.76236   0.26639   0.37378   0.00000  Uiso   1.00
C190   C     0.98015   0.32246   0.32230   0.00000  Uiso   1.00
C191   C     0.97101   0.30780   0.26992   0.00000  Uiso   1.00
C192   C     0.06695   0.29326   0.32255   0.00000  Uiso   1.00
C193   C     0.19790   0.26639   0.37363   0.00000  Uiso   1.00
C194   C     0.92810   0.37452   0.32167   0.00000  Uiso   1.00
C195   C     0.87521   0.40363   0.26875   0.00000  Uiso   1.00
C196   C     0.92733   0.43292   0.32085   0.00000  Uiso   1.00
C197   C     0.97747   0.48688   0.37094   0.00000  Uiso   1.00
C198   C     0.07252   0.34003   0.46609   0.00000  Uiso   1.00
C199   C     0.97869   0.32262   0.42370   0.00000  Uiso   1.00
C200   C     0.98820   0.30811   0.47645   0.00000  Uiso   1.00
C201   C     0.89263   0.29342   0.42418   0.00000  Uiso   1.00
C202   C     0.08152   0.32261   0.42366   0.00000  Uiso   1.00
C203   C     0.17750   0.30810   0.47638   0.00000  Uiso   1.00
C204   C     0.16850   0.29341   0.42409   0.00000  Uiso   1.00
C205   C     0.02947   0.37467   0.42303   0.00000  Uiso   1.00
C206   C     0.08169   0.40392   0.47522   0.00000  Uiso   1.00
C207   C     0.02889   0.43307   0.42239   0.00000  Uiso   1.00
H208   H     0.80697   0.33964   0.20056   0.00000  Uiso   1.00
H209   H     0.70328   0.30769   0.19154   0.00000  Uiso   1.00
H210   H     0.89256   0.30769   0.19148   0.00000  Uiso   1.00
H211   H     0.79676   0.40350   0.19031   0.00000  Uiso   1.00
H212   H     0.63304   0.27233   0.22625   0.00000  Uiso   1.00
H213   H     0.03214   0.27233   0.22611   0.00000  Uiso   1.00
H214   H     0.83014   0.47437   0.22365   0.00000  Uiso   1.00
H215   H     0.15145   0.34014   0.54500   0.00000  Uiso   1.00
H216   H     0.06666   0.30822   0.55489   0.00000  Uiso   1.00
H217   H     0.25593   0.30822   0.55482   0.00000  Uiso   1.00
H218   H     0.16014   0.40403   0.55365   0.00000  Uiso   1.00
H219   H     0.92797   0.27275   0.52115   0.00000  Uiso   1.00
H220   H     0.32707   0.27275   0.52101   0.00000  Uiso   1.00
H221   H     0.12507   0.47479   0.51855   0.00000  Uiso   1.00
O222   O     0.71852   0.25152   0.37398   0.00000  Uiso   1.00
O223   O     0.24213   0.25153   0.37380   0.00000  Uiso   1.00
O224   O     0.97711   0.51660   0.37057   0.00000  Uiso   1.00
N225   N     0.71408   0.27681   0.29430   0.00000  Uiso   1.00
N226   N     0.08721   0.27681   0.29416   0.00000  Uiso   1.00
N227   N     0.89838   0.46570   0.29186   0.00000  Uiso   1.00
N228   N     0.87278   0.27704   0.45298   0.00000  Uiso   1.00
N229   N     0.24591   0.27704   0.45285   0.00000  Uiso   1.00
N230   N     0.05708   0.46593   0.45055   0.00000  Uiso   1.00
C231   C     0.32160   0.67286   0.71518   0.00000  Uiso   1.00
C232   C     0.22734   0.69015   0.67236   0.00000  Uiso   1.00
C233   C     0.23647   0.70481   0.72475   0.00000  Uiso   1.00
C234   C     0.14056   0.71936   0.67213   0.00000  Uiso   1.00
C235   C     0.00964   0.74625   0.62105   0.00000  Uiso   1.00
C236   C     0.33025   0.69016   0.67240   0.00000  Uiso   1.00
C237   C     0.42592   0.70481   0.72482   0.00000  Uiso   1.00
C238   C     0.41663   0.71936   0.67223   0.00000  Uiso   1.00
C239   C     0.44550   0.74624   0.62122   0.00000  Uiso   1.00
C240   C     0.27934   0.63810   0.67291   0.00000  Uiso   1.00
C241   C     0.33221   0.60899   0.72575   0.00000  Uiso   1.00
C242   C     0.28007   0.57971   0.67359   0.00000  Uiso   1.00
C243   C     0.22989   0.52576   0.62336   0.00000  Uiso   1.00
C244   C     0.13502   0.67264   0.52857   0.00000  Uiso   1.00
C245   C     0.12600   0.69004   0.57100   0.00000  Uiso   1.00
C246   C     0.03004   0.70457   0.51828   0.00000  Uiso   1.00
C247   C     0.03903   0.71924   0.57058   0.00000  Uiso   1.00
C248   C     0.22891   0.69004   0.57104   0.00000  Uiso   1.00
C249   C     0.21949   0.70457   0.51836   0.00000  Uiso   1.00
C250   C     0.31511   0.71924   0.57069   0.00000  Uiso   1.00
C251   C     0.17799   0.63798   0.57155   0.00000  Uiso   1.00
C252   C     0.12577   0.60874   0.51929   0.00000  Uiso   1.00
C253   C     0.17854   0.57959   0.57204   0.00000  Uiso   1.00
H254   H     0.40050   0.67295   0.79410   0.00000  Uiso   1.00
H255   H     0.31492   0.70490   0.80319   0.00000  Uiso   1.00
H256   H     0.50433   0.70490   0.80326   0.00000  Uiso   1.00
H257   H     0.41063   0.60909   0.80419   0.00000  Uiso   1.00
H258   H     0.17536   0.74028   0.76857   0.00000  Uiso   1.00
H259   H     0.57475   0.74027   0.76872   0.00000  Uiso   1.00
H260   H     0.37717   0.53823   0.77069   0.00000  Uiso   1.00
H261   H     0.05611   0.67254   0.44965   0.00000  Uiso   1.00
H262   H     0.95163   0.70447   0.43984   0.00000  Uiso   1.00
H263   H     0.14105   0.70447   0.43992   0.00000  Uiso   1.00
H264   H     0.04735   0.60866   0.44085   0.00000  Uiso   1.00
H265   H     0.88050   0.73993   0.47367   0.00000  Uiso   1.00
H266   H     0.27990   0.73992   0.47382   0.00000  Uiso   1.00
H267   H     0.08231   0.53789   0.47578   0.00000  Uiso   1.00
O268   O     0.96542   0.76112   0.62088   0.00000  Uiso   1.00
O269   O     0.48942   0.76111   0.62109   0.00000  Uiso   1.00
O270   O     0.23019   0.49604   0.62366   0.00000  Uiso   1.00
N271   N     0.12030   0.73581   0.70051   0.00000  Uiso   1.00
N272   N     0.49370   0.73581   0.70066   0.00000  Uiso   1.00
N273   N     0.30899   0.54692   0.70249   0.00000  Uiso   1.00
N274   N     0.96164   0.73562   0.54182   0.00000  Uiso   1.00
N275   N     0.33504   0.73562   0.54197   0.00000  Uiso   1.00
N276   N     0.15033   0.54673   0.54380   0.00000  Uiso   1.00
C277   C     0.38589   0.83976   0.27948   0.00000  Uiso   1.00
C278   C     0.37732   0.82247   0.32234   0.00000  Uiso   1.00
C279   C     0.28172   0.80780   0.26999   0.00000  Uiso   1.00
C280   C     0.29108   0.79327   0.32264   0.00000  Uiso   1.00
C281   C     0.26236   0.76639   0.37378   0.00000  Uiso   1.00
C282   C     0.48015   0.82246   0.32230   0.00000  Uiso   1.00
C283   C     0.47101   0.80780   0.26992   0.00000  Uiso   1.00
C284   C     0.56695   0.79326   0.32255   0.00000  Uiso   1.00
C285   C     0.69790   0.76639   0.37363   0.00000  Uiso   1.00
C286   C     0.42810   0.87452   0.32167   0.00000  Uiso   1.00
C287   C     0.37521   0.90363   0.26875   0.00000  Uiso   1.00
C288   C     0.42733   0.93292   0.32085   0.00000  Uiso   1.00
C289   C     0.47747   0.98688   0.37094   0.00000  Uiso   1.00
C290   C     0.57252   0.84003   0.46609   0.00000  Uiso   1.00
C291   C     0.47869   0.82262   0.42370   0.00000  Uiso   1.00
C292   C     0.48820   0.80811   0.47645   0.00000  Uiso   1.00
C293   C     0.39263   0.79342   0.42418   0.00000  Uiso   1.00
C294   C     0.58152   0.82261   0.42366   0.00000  Uiso   1.00
C295   C     0.67750   0.80810   0.47638   0.00000  Uiso   1.00
C296   C     0.66850   0.79341   0.42409   0.00000  Uiso   1.00
C297   C     0.52947   0.87467   0.42303   0.00000  Uiso   1.00
C298   C     0.58169   0.90392   0.47522   0.00000  Uiso   1.00
C299   C     0.52889   0.93307   0.42239   0.00000  Uiso   1.00
H300   H     0.30697   0.83964   0.20056   0.00000  Uiso   1.00
H301   H     0.20328   0.80769   0.19154   0.00000  Uiso   1.00
H302   H     0.39256   0.80769   0.19148   0.00000  Uiso   1.00
H303   H     0.29676   0.90350   0.19031   0.00000  Uiso   1.00
H304   H     0.13304   0.77233   0.22625   0.00000  Uiso   1.00
H305   H     0.53214   0.77233   0.22611   0.00000  Uiso   1.00
H306   H     0.33014   0.97437   0.22365   0.00000  Uiso   1.00
H307   H     0.65145   0.84014   0.54500   0.00000  Uiso   1.00
H308   H     0.56666   0.80822   0.55489   0.00000  Uiso   1.00
H309   H     0.75593   0.80822   0.55482   0.00000  Uiso   1.00
H310   H     0.66014   0.90403   0.55365   0.00000  Uiso   1.00
H311   H     0.42797   0.77275   0.52115   0.00000  Uiso   1.00
H312   H     0.82707   0.77275   0.52101   0.00000  Uiso   1.00
H313   H     0.62507   0.97479   0.51855   0.00000  Uiso   1.00
O314   O     0.21852   0.75152   0.37398   0.00000  Uiso   1.00
O315   O     0.74213   0.75153   0.37380   0.00000  Uiso   1.00
O316   O     0.47711   0.01660   0.37057   0.00000  Uiso   1.00
N317   N     0.21408   0.77681   0.29430   0.00000  Uiso   1.00
N318   N     0.58721   0.77681   0.29416   0.00000  Uiso   1.00
N319   N     0.39838   0.96570   0.29186   0.00000  Uiso   1.00
N320   N     0.37278   0.77704   0.45298   0.00000  Uiso   1.00
N321   N     0.74591   0.77704   0.45285   0.00000  Uiso   1.00
N322   N     0.55708   0.96593   0.45055   0.00000  Uiso   1.00
C323   C     0.82160   0.17286   0.71518   0.00000  Uiso   1.00
C324   C     0.72734   0.19015   0.67236   0.00000  Uiso   1.00
C325   C     0.73647   0.20481   0.72475   0.00000  Uiso   1.00
C326   C     0.64056   0.21936   0.67213   0.00000  Uiso   1.00
C327   C     0.50964   0.24625   0.62105   0.00000  Uiso   1.00
C328   C     0.83025   0.19016   0.67240   0.00000  Uiso   1.00
C329   C     0.92592   0.20481   0.72482   0.00000  Uiso   1.00
C330   C     0.91663   0.21936   0.67223   0.00000  Uiso   1.00
C331   C     0.94550   0.24624   0.62122   0.00000  Uiso   1.00
C332   C     0.77934   0.13810   0.67291   0.00000  Uiso   1.00
C333   C     0.83221   0.10899   0.72575   0.00000  Uiso   1.00
C334   C     0.78007   0.07971   0.67359   0.00000  Uiso   1.00
C335   C     0.72989   0.02576   0.62336   0.00000  Uiso   1.00
C336   C     0.63502   0.17264   0.52857   0.00000  Uiso   1.00
C337   C     0.62600   0.19004   0.57100   0.00000  Uiso   1.00
C338   C     0.53004   0.20457   0.51828   0.00000  Uiso   1.00
C339   C     0.53903   0.21924   0.57058   0.00000  Uiso   1.00
C340   C     0.72891   0.19004   0.57104   0.00000  Uiso   1.00
C341   C     0.71949   0.20457   0.51836   0.00000  Uiso   1.00
C342   C     0.81511   0.21924   0.57069   0.00000  Uiso   1.00
C343   C     0.67799   0.13798   0.57155   0.00000  Uiso   1.00
C344   C     0.62577   0.10874   0.51929   0.00000  Uiso   1.00
C345   C     0.67854   0.07959   0.57204   0.00000  Uiso   1.00
H346   H     0.90050   0.17295   0.79410   0.00000  Uiso   1.00
H347   H     0.81492   0.20490   0.80319   0.00000  Uiso   1.00
H348   H     0.00433   0.20490   0.80326   0.00000  Uiso   1.00
H349   H     0.91063   0.10909   0.80419   0.00000  Uiso   1.00
H350   H     0.67536   0.24028   0.76857   0.00000  Uiso   1.00
H351   H     0.07475   0.24027   0.76872   0.00000  Uiso   1.00
H352   H     0.87717   0.03823   0.77069   0.00000  Uiso   1.00
H353   H     0.55611   0.17254   0.44965   0.00000  Uiso   1.00
H354   H     0.45163   0.20447   0.43984   0.00000  Uiso   1.00
H355   H     0.64105   0.20447   0.43992   0.00000  Uiso   1.00
H356   H     0.54735   0.10866   0.44085   0.00000  Uiso   1.00
H357   H     0.38050   0.23993   0.47367   0.00000  Uiso   1.00
H358   H     0.77990   0.23992   0.47382   0.00000  Uiso   1.00
H359   H     0.58231   0.03789   0.47578   0.00000  Uiso   1.00
O360   O     0.46542   0.26112   0.62088   0.00000  Uiso   1.00
O361   O     0.98942   0.26111   0.62109   0.00000  Uiso   1.00
O362   O     0.73019   0.99604   0.62366   0.00000  Uiso   1.00
N363   N     0.62030   0.23581   0.70051   0.00000  Uiso   1.00
N364   N     0.99370   0.23581   0.70066   0.00000  Uiso   1.00
N365   N     0.80899   0.04692   0.70249   0.00000  Uiso   1.00
N366   N     0.46164   0.23562   0.54182   0.00000  Uiso   1.00
N367   N     0.83504   0.23562   0.54197   0.00000  Uiso   1.00
N368   N     0.65033   0.04673   0.54380   0.00000  Uiso   1.00
