data_job_04118
_audit_creation_date              2018-12-19
_audit_creation_method            'Materials Studio'
_symmetry_space_group_name_H-M    'P1'
_symmetry_Int_Tables_number       1
_symmetry_cell_setting            triclinic
loop_
_symmetry_equiv_pos_as_xyz
  x,y,z
_cell_length_a                    17.2751
_cell_length_b                    17.2751
_cell_length_c                    10.2647
_cell_angle_alpha                 90.0000
_cell_angle_beta                  90.0000
_cell_angle_gamma                 90.0000
loop_
_atom_site_label
_atom_site_type_symbol
_atom_site_fract_x
_atom_site_fract_y
_atom_site_fract_z
_atom_site_U_iso_or_equiv
_atom_site_adp_type
_atom_site_occupancy
C1     C     0.57888   0.87738   0.89466   0.00000  Uiso   1.00
C2     C     0.49897   0.85078   0.85017   0.00000  Uiso   1.00
C3     C     0.44853   0.89272   0.77212   0.00000  Uiso   1.00
C4     C     0.37811   0.85828   0.74231   0.00000  Uiso   1.00
C5     C     0.25693   0.82821   0.66619   0.00000  Uiso   1.00
C6     C     0.57802   0.87325   0.04305   0.00000  Uiso   1.00
C7     C     0.59406   0.93406   0.12716   0.00000  Uiso   1.00
C8     C     0.59020   0.91853   0.25972   0.00000  Uiso   1.00
C9     C     0.59181   0.92332   0.48305   0.00000  Uiso   1.00
C10    C     0.63541   0.81510   0.84959   0.00000  Uiso   1.00
C11    C     0.69972   0.82703   0.77108   0.00000  Uiso   1.00
C12    C     0.74418   0.76254   0.74078   0.00000  Uiso   1.00
C13    C     0.83490   0.67706   0.66373   0.00000  Uiso   1.00
C14    C     0.54352   0.74165   0.98049   0.00000  Uiso   1.00
C15    C     0.47976   0.77706   0.89680   0.00000  Uiso   1.00
C16    C     0.40940   0.74254   0.86709   0.00000  Uiso   1.00
C17    C     0.35886   0.78442   0.78901   0.00000  Uiso   1.00
C18    C     0.55882   0.79952   0.08967   0.00000  Uiso   1.00
C19    C     0.55493   0.78389   0.22213   0.00000  Uiso   1.00
C20    C     0.57095   0.84467   0.30643   0.00000  Uiso   1.00
C21    C     0.61620   0.74138   0.89621   0.00000  Uiso   1.00
C22    C     0.66058   0.67686   0.86604   0.00000  Uiso   1.00
C23    C     0.72494   0.68869   0.78749   0.00000  Uiso   1.00
H24    H     0.59384   0.93478   0.85837   0.00000  Uiso   1.00
H25    H     0.46341   0.94977   0.73607   0.00000  Uiso   1.00
H26    H     0.60893   0.99111   0.09106   0.00000  Uiso   1.00
H27    H     0.71457   0.88409   0.73502   0.00000  Uiso   1.00
H28    H     0.31033   0.93389   0.62108   0.00000  Uiso   1.00
H29    H     0.61719   0.02105   0.36959   0.00000  Uiso   1.00
H30    H     0.83994   0.79538   0.61881   0.00000  Uiso   1.00
H31    H     0.52856   0.68425   0.01680   0.00000  Uiso   1.00
H32    H     0.39455   0.68549   0.90318   0.00000  Uiso   1.00
H33    H     0.54007   0.72683   0.25818   0.00000  Uiso   1.00
H34    H     0.64570   0.61981   0.90214   0.00000  Uiso   1.00
H35    H     0.25443   0.71940   0.75672   0.00000  Uiso   1.00
H36    H     0.56130   0.80655   0.50523   0.00000  Uiso   1.00
H37    H     0.78405   0.58088   0.75445   0.00000  Uiso   1.00
O38    O     0.19539   0.83199   0.61134   0.00000  Uiso   1.00
O39    O     0.59800   0.94634   0.59335   0.00000  Uiso   1.00
O40    O     0.89024   0.65027   0.60835   0.00000  Uiso   1.00
N41    N     0.31557   0.88323   0.66857   0.00000  Uiso   1.00
N42    N     0.60245   0.96472   0.36838   0.00000  Uiso   1.00
N43    N     0.81072   0.75375   0.66650   0.00000  Uiso   1.00
N44    N     0.28550   0.76781   0.74156   0.00000  Uiso   1.00
N45    N     0.57238   0.84930   0.44137   0.00000  Uiso   1.00
N46    N     0.78065   0.63833   0.73948   0.00000  Uiso   1.00
C47    C     0.42112   0.12262   0.89466   0.00000  Uiso   1.00
C48    C     0.50103   0.14922   0.85017   0.00000  Uiso   1.00
C49    C     0.55147   0.10728   0.77212   0.00000  Uiso   1.00
C50    C     0.62189   0.14172   0.74231   0.00000  Uiso   1.00
C51    C     0.74307   0.17179   0.66619   0.00000  Uiso   1.00
C52    C     0.42198   0.12675   0.04305   0.00000  Uiso   1.00
C53    C     0.40594   0.06594   0.12716   0.00000  Uiso   1.00
C54    C     0.40980   0.08147   0.25972   0.00000  Uiso   1.00
C55    C     0.40819   0.07668   0.48305   0.00000  Uiso   1.00
C56    C     0.36459   0.18490   0.84959   0.00000  Uiso   1.00
C57    C     0.30028   0.17297   0.77108   0.00000  Uiso   1.00
C58    C     0.25582   0.23746   0.74078   0.00000  Uiso   1.00
C59    C     0.16510   0.32294   0.66373   0.00000  Uiso   1.00
C60    C     0.45648   0.25835   0.98049   0.00000  Uiso   1.00
C61    C     0.52024   0.22294   0.89680   0.00000  Uiso   1.00
C62    C     0.59060   0.25746   0.86709   0.00000  Uiso   1.00
C63    C     0.64114   0.21558   0.78901   0.00000  Uiso   1.00
C64    C     0.44118   0.20048   0.08967   0.00000  Uiso   1.00
C65    C     0.44507   0.21611   0.22213   0.00000  Uiso   1.00
C66    C     0.42905   0.15533   0.30643   0.00000  Uiso   1.00
C67    C     0.38380   0.25862   0.89621   0.00000  Uiso   1.00
C68    C     0.33942   0.32314   0.86604   0.00000  Uiso   1.00
C69    C     0.27506   0.31131   0.78749   0.00000  Uiso   1.00
H70    H     0.40616   0.06522   0.85837   0.00000  Uiso   1.00
H71    H     0.53659   0.05023   0.73607   0.00000  Uiso   1.00
H72    H     0.39107   0.00889   0.09106   0.00000  Uiso   1.00
H73    H     0.28543   0.11591   0.73502   0.00000  Uiso   1.00
H74    H     0.68967   0.06611   0.62108   0.00000  Uiso   1.00
H75    H     0.38281   0.97895   0.36959   0.00000  Uiso   1.00
H76    H     0.16006   0.20462   0.61881   0.00000  Uiso   1.00
H77    H     0.47144   0.31575   0.01680   0.00000  Uiso   1.00
H78    H     0.60545   0.31451   0.90318   0.00000  Uiso   1.00
H79    H     0.45993   0.27317   0.25818   0.00000  Uiso   1.00
H80    H     0.35430   0.38019   0.90214   0.00000  Uiso   1.00
H81    H     0.74557   0.28060   0.75672   0.00000  Uiso   1.00
H82    H     0.43870   0.19345   0.50523   0.00000  Uiso   1.00
H83    H     0.21595   0.41912   0.75445   0.00000  Uiso   1.00
O84    O     0.80461   0.16801   0.61134   0.00000  Uiso   1.00
O85    O     0.40200   0.05366   0.59335   0.00000  Uiso   1.00
O86    O     0.10976   0.34973   0.60835   0.00000  Uiso   1.00
N87    N     0.68443   0.11677   0.66857   0.00000  Uiso   1.00
N88    N     0.39755   0.03528   0.36838   0.00000  Uiso   1.00
N89    N     0.18928   0.24625   0.66650   0.00000  Uiso   1.00
N90    N     0.71450   0.23219   0.74156   0.00000  Uiso   1.00
N91    N     0.42762   0.15070   0.44137   0.00000  Uiso   1.00
N92    N     0.21935   0.36167   0.73948   0.00000  Uiso   1.00
C93    C     0.87738   0.42112   0.10534   0.00000  Uiso   1.00
C94    C     0.85078   0.50103   0.14983   0.00000  Uiso   1.00
C95    C     0.89272   0.55147   0.22788   0.00000  Uiso   1.00
C96    C     0.85828   0.62189   0.25769   0.00000  Uiso   1.00
C97    C     0.82821   0.74307   0.33381   0.00000  Uiso   1.00
C98    C     0.87325   0.42198   0.95695   0.00000  Uiso   1.00
C99    C     0.93406   0.40594   0.87284   0.00000  Uiso   1.00
C100   C     0.91853   0.40980   0.74028   0.00000  Uiso   1.00
C101   C     0.92332   0.40819   0.51695   0.00000  Uiso   1.00
C102   C     0.81510   0.36459   0.15041   0.00000  Uiso   1.00
C103   C     0.82703   0.30028   0.22892   0.00000  Uiso   1.00
C104   C     0.76254   0.25582   0.25922   0.00000  Uiso   1.00
C105   C     0.67706   0.16510   0.33627   0.00000  Uiso   1.00
C106   C     0.74165   0.45648   0.01951   0.00000  Uiso   1.00
C107   C     0.77706   0.52024   0.10320   0.00000  Uiso   1.00
C108   C     0.74254   0.59060   0.13291   0.00000  Uiso   1.00
C109   C     0.78442   0.64114   0.21099   0.00000  Uiso   1.00
C110   C     0.79952   0.44118   0.91033   0.00000  Uiso   1.00
C111   C     0.78389   0.44507   0.77787   0.00000  Uiso   1.00
C112   C     0.84467   0.42905   0.69357   0.00000  Uiso   1.00
C113   C     0.74138   0.38380   0.10379   0.00000  Uiso   1.00
C114   C     0.67686   0.33942   0.13396   0.00000  Uiso   1.00
C115   C     0.68869   0.27506   0.21251   0.00000  Uiso   1.00
H116   H     0.93478   0.40616   0.14163   0.00000  Uiso   1.00
H117   H     0.94977   0.53659   0.26393   0.00000  Uiso   1.00
H118   H     0.99111   0.39107   0.90894   0.00000  Uiso   1.00
H119   H     0.88409   0.28543   0.26498   0.00000  Uiso   1.00
H120   H     0.93389   0.68967   0.37892   0.00000  Uiso   1.00
H121   H     0.02105   0.38281   0.63041   0.00000  Uiso   1.00
H122   H     0.79538   0.16006   0.38119   0.00000  Uiso   1.00
H123   H     0.68425   0.47144   0.98320   0.00000  Uiso   1.00
H124   H     0.68549   0.60545   0.09682   0.00000  Uiso   1.00
H125   H     0.72683   0.45993   0.74182   0.00000  Uiso   1.00
H126   H     0.61981   0.35430   0.09786   0.00000  Uiso   1.00
H127   H     0.71940   0.74557   0.24328   0.00000  Uiso   1.00
H128   H     0.80655   0.43870   0.49477   0.00000  Uiso   1.00
H129   H     0.58088   0.21595   0.24555   0.00000  Uiso   1.00
O130   O     0.83199   0.80461   0.38866   0.00000  Uiso   1.00
O131   O     0.94634   0.40200   0.40665   0.00000  Uiso   1.00
O132   O     0.65027   0.10976   0.39165   0.00000  Uiso   1.00
N133   N     0.88323   0.68443   0.33143   0.00000  Uiso   1.00
N134   N     0.96472   0.39755   0.63162   0.00000  Uiso   1.00
N135   N     0.75375   0.18928   0.33350   0.00000  Uiso   1.00
N136   N     0.76781   0.71450   0.25844   0.00000  Uiso   1.00
N137   N     0.84930   0.42762   0.55863   0.00000  Uiso   1.00
N138   N     0.63833   0.21935   0.26052   0.00000  Uiso   1.00
C139   C     0.12262   0.57888   0.10534   0.00000  Uiso   1.00
C140   C     0.14922   0.49897   0.14983   0.00000  Uiso   1.00
C141   C     0.10728   0.44853   0.22788   0.00000  Uiso   1.00
C142   C     0.14172   0.37811   0.25769   0.00000  Uiso   1.00
C143   C     0.17179   0.25693   0.33381   0.00000  Uiso   1.00
C144   C     0.12675   0.57802   0.95695   0.00000  Uiso   1.00
C145   C     0.06594   0.59406   0.87284   0.00000  Uiso   1.00
C146   C     0.08147   0.59020   0.74028   0.00000  Uiso   1.00
C147   C     0.07668   0.59181   0.51695   0.00000  Uiso   1.00
C148   C     0.18490   0.63541   0.15041   0.00000  Uiso   1.00
C149   C     0.17297   0.69972   0.22892   0.00000  Uiso   1.00
C150   C     0.23746   0.74418   0.25922   0.00000  Uiso   1.00
C151   C     0.32294   0.83490   0.33627   0.00000  Uiso   1.00
C152   C     0.25835   0.54352   0.01951   0.00000  Uiso   1.00
C153   C     0.22294   0.47976   0.10320   0.00000  Uiso   1.00
C154   C     0.25746   0.40940   0.13291   0.00000  Uiso   1.00
C155   C     0.21558   0.35886   0.21099   0.00000  Uiso   1.00
C156   C     0.20048   0.55882   0.91033   0.00000  Uiso   1.00
C157   C     0.21611   0.55493   0.77787   0.00000  Uiso   1.00
C158   C     0.15533   0.57095   0.69357   0.00000  Uiso   1.00
C159   C     0.25862   0.61620   0.10379   0.00000  Uiso   1.00
C160   C     0.32314   0.66058   0.13396   0.00000  Uiso   1.00
C161   C     0.31131   0.72494   0.21251   0.00000  Uiso   1.00
H162   H     0.06522   0.59384   0.14163   0.00000  Uiso   1.00
H163   H     0.05023   0.46341   0.26393   0.00000  Uiso   1.00
H164   H     0.00889   0.60893   0.90894   0.00000  Uiso   1.00
H165   H     0.11591   0.71457   0.26498   0.00000  Uiso   1.00
H166   H     0.06611   0.31033   0.37892   0.00000  Uiso   1.00
H167   H     0.97895   0.61719   0.63041   0.00000  Uiso   1.00
H168   H     0.20462   0.83994   0.38119   0.00000  Uiso   1.00
H169   H     0.31575   0.52856   0.98320   0.00000  Uiso   1.00
H170   H     0.31451   0.39455   0.09682   0.00000  Uiso   1.00
H171   H     0.27317   0.54007   0.74182   0.00000  Uiso   1.00
H172   H     0.38019   0.64570   0.09786   0.00000  Uiso   1.00
H173   H     0.28060   0.25443   0.24328   0.00000  Uiso   1.00
H174   H     0.19345   0.56130   0.49477   0.00000  Uiso   1.00
H175   H     0.41912   0.78405   0.24555   0.00000  Uiso   1.00
O176   O     0.16801   0.19539   0.38866   0.00000  Uiso   1.00
O177   O     0.05366   0.59800   0.40665   0.00000  Uiso   1.00
O178   O     0.34973   0.89024   0.39165   0.00000  Uiso   1.00
N179   N     0.11677   0.31557   0.33143   0.00000  Uiso   1.00
N180   N     0.03528   0.60245   0.63162   0.00000  Uiso   1.00
N181   N     0.24625   0.81072   0.33350   0.00000  Uiso   1.00
N182   N     0.23219   0.28550   0.25844   0.00000  Uiso   1.00
N183   N     0.15070   0.57238   0.55863   0.00000  Uiso   1.00
N184   N     0.36167   0.78065   0.26052   0.00000  Uiso   1.00
