data_job_02677
_audit_creation_date              2018-12-19
_audit_creation_method            'Materials Studio'
_symmetry_space_group_name_H-M    'P1'
_symmetry_Int_Tables_number       1
_symmetry_cell_setting            triclinic
loop_
_symmetry_equiv_pos_as_xyz
  x,y,z
_cell_length_a                    13.2199
_cell_length_b                    13.6394
_cell_length_c                    24.6438
_cell_angle_alpha                 90.0000
_cell_angle_beta                  138.9160
_cell_angle_gamma                 90.0000
loop_
_atom_site_label
_atom_site_type_symbol
_atom_site_fract_x
_atom_site_fract_y
_atom_site_fract_z
_atom_site_U_iso_or_equiv
_atom_site_adp_type
_atom_site_occupancy
C1     C     0.57238   0.84161   0.14506   0.00000  Uiso   1.00
C2     C     0.68465   0.86574   0.14481   0.00000  Uiso   1.00
C3     C     0.73124   0.95910   0.14842   0.00000  Uiso   1.00
C4     C     0.83470   0.96572   0.14747   0.00000  Uiso   1.00
C5     C     0.00063   0.01594   0.14770   0.00000  Uiso   1.00
C6     C     0.44396   0.78135   0.06730   0.00000  Uiso   1.00
C7     C     0.28819   0.80376   0.00576   0.00000  Uiso   1.00
C8     C     0.18904   0.73933   0.93957   0.00000  Uiso   1.00
C9     C     0.98129   0.65851   0.81951   0.00000  Uiso   1.00
C10    C     0.65765   0.77202   0.21751   0.00000  Uiso   1.00
C11    C     0.68151   0.78655   0.28226   0.00000  Uiso   1.00
C12    C     0.76224   0.71425   0.34253   0.00000  Uiso   1.00
C13    C     0.88627   0.61893   0.45568   0.00000  Uiso   1.00
C14    C     0.67327   0.68735   0.13695   0.00000  Uiso   1.00
C15    C     0.73945   0.78195   0.14040   0.00000  Uiso   1.00
C16    C     0.84287   0.78843   0.13945   0.00000  Uiso   1.00
C17    C     0.88961   0.88178   0.14306   0.00000  Uiso   1.00
C18    C     0.49876   0.69757   0.06289   0.00000  Uiso   1.00
C19    C     0.39982   0.63309   0.99678   0.00000  Uiso   1.00
C20    C     0.24393   0.65540   0.93516   0.00000  Uiso   1.00
C21    C     0.71246   0.68823   0.21311   0.00000  Uiso   1.00
C22    C     0.79315   0.61589   0.27328   0.00000  Uiso   1.00
C23    C     0.81713   0.63032   0.33811   0.00000  Uiso   1.00
H24    H     0.52971   0.90683   0.14849   0.00000  Uiso   1.00
H25    H     0.68879   0.02392   0.15182   0.00000  Uiso   1.00
H26    H     0.24581   0.86860   0.00919   0.00000  Uiso   1.00
H27    H     0.63908   0.85140   0.28565   0.00000  Uiso   1.00
H28    H     0.88930   0.11678   0.15355   0.00000  Uiso   1.00
H29    H     0.95524   0.78926   0.85282   0.00000  Uiso   1.00
H30    H     0.78452   0.75299   0.43577   0.00000  Uiso   1.00
H31    H     0.71594   0.62212   0.13352   0.00000  Uiso   1.00
H32    H     0.88526   0.72358   0.13603   0.00000  Uiso   1.00
H33    H     0.44227   0.56826   0.99340   0.00000  Uiso   1.00
H34    H     0.83554   0.55106   0.26985   0.00000  Uiso   1.00
H35    H     0.04875   0.87302   0.14073   0.00000  Uiso   1.00
H36    H     0.11469   0.54549   0.83999   0.00000  Uiso   1.00
H37    H     0.94397   0.50923   0.42295   0.00000  Uiso   1.00
O38    O     0.07700   0.06678   0.14903   0.00000  Uiso   1.00
O39    O     0.85156   0.63708   0.75449   0.00000  Uiso   1.00
O40    O     0.93956   0.58950   0.51932   0.00000  Uiso   1.00
N41    N     0.90361   0.04549   0.15020   0.00000  Uiso   1.00
N42    N     0.03033   0.73928   0.86903   0.00000  Uiso   1.00
N43    N     0.80560   0.70536   0.41403   0.00000  Uiso   1.00
N44    N     0.98941   0.91432   0.14330   0.00000  Uiso   1.00
N45    N     0.11613   0.60811   0.86213   0.00000  Uiso   1.00
N46    N     0.89140   0.57419   0.40713   0.00000  Uiso   1.00
C47    C     0.42762   0.84161   0.35494   0.00000  Uiso   1.00
C48    C     0.31535   0.86574   0.35519   0.00000  Uiso   1.00
C49    C     0.26876   0.95910   0.35158   0.00000  Uiso   1.00
C50    C     0.16530   0.96572   0.35253   0.00000  Uiso   1.00
C51    C     0.99937   0.01594   0.35230   0.00000  Uiso   1.00
C52    C     0.55604   0.78135   0.43270   0.00000  Uiso   1.00
C53    C     0.71181   0.80376   0.49424   0.00000  Uiso   1.00
C54    C     0.81096   0.73933   0.56043   0.00000  Uiso   1.00
C55    C     0.01871   0.65851   0.68049   0.00000  Uiso   1.00
C56    C     0.34235   0.77202   0.28249   0.00000  Uiso   1.00
C57    C     0.31849   0.78655   0.21774   0.00000  Uiso   1.00
C58    C     0.23776   0.71425   0.15747   0.00000  Uiso   1.00
C59    C     0.11373   0.61893   0.04432   0.00000  Uiso   1.00
C60    C     0.32673   0.68735   0.36305   0.00000  Uiso   1.00
C61    C     0.26055   0.78195   0.35960   0.00000  Uiso   1.00
C62    C     0.15713   0.78843   0.36055   0.00000  Uiso   1.00
C63    C     0.11039   0.88178   0.35694   0.00000  Uiso   1.00
C64    C     0.50124   0.69757   0.43711   0.00000  Uiso   1.00
C65    C     0.60018   0.63309   0.50322   0.00000  Uiso   1.00
C66    C     0.75607   0.65540   0.56484   0.00000  Uiso   1.00
C67    C     0.28754   0.68823   0.28689   0.00000  Uiso   1.00
C68    C     0.20685   0.61589   0.22672   0.00000  Uiso   1.00
C69    C     0.18287   0.63032   0.16189   0.00000  Uiso   1.00
H70    H     0.47029   0.90683   0.35151   0.00000  Uiso   1.00
H71    H     0.31121   0.02392   0.34818   0.00000  Uiso   1.00
H72    H     0.75419   0.86860   0.49081   0.00000  Uiso   1.00
H73    H     0.36092   0.85140   0.21435   0.00000  Uiso   1.00
H74    H     0.11070   0.11678   0.34645   0.00000  Uiso   1.00
H75    H     0.04476   0.78926   0.64718   0.00000  Uiso   1.00
H76    H     0.21548   0.75299   0.06423   0.00000  Uiso   1.00
H77    H     0.28406   0.62212   0.36648   0.00000  Uiso   1.00
H78    H     0.11474   0.72358   0.36397   0.00000  Uiso   1.00
H79    H     0.55773   0.56826   0.50660   0.00000  Uiso   1.00
H80    H     0.16446   0.55106   0.23015   0.00000  Uiso   1.00
H81    H     0.95125   0.87302   0.35927   0.00000  Uiso   1.00
H82    H     0.88531   0.54549   0.66001   0.00000  Uiso   1.00
H83    H     0.05603   0.50923   0.07705   0.00000  Uiso   1.00
O84    O     0.92300   0.06678   0.35097   0.00000  Uiso   1.00
O85    O     0.14844   0.63708   0.74551   0.00000  Uiso   1.00
O86    O     0.06044   0.58950   0.98068   0.00000  Uiso   1.00
N87    N     0.09639   0.04549   0.34980   0.00000  Uiso   1.00
N88    N     0.96967   0.73928   0.63097   0.00000  Uiso   1.00
N89    N     0.19440   0.70536   0.08597   0.00000  Uiso   1.00
N90    N     0.01059   0.91432   0.35670   0.00000  Uiso   1.00
N91    N     0.88387   0.60811   0.63787   0.00000  Uiso   1.00
N92    N     0.10860   0.57419   0.09287   0.00000  Uiso   1.00
C93    C     0.42762   0.15839   0.85494   0.00000  Uiso   1.00
C94    C     0.31535   0.13426   0.85519   0.00000  Uiso   1.00
C95    C     0.26876   0.04090   0.85158   0.00000  Uiso   1.00
C96    C     0.16530   0.03428   0.85253   0.00000  Uiso   1.00
C97    C     0.99937   0.98406   0.85230   0.00000  Uiso   1.00
C98    C     0.55604   0.21865   0.93270   0.00000  Uiso   1.00
C99    C     0.71181   0.19624   0.99424   0.00000  Uiso   1.00
C100   C     0.81096   0.26067   0.06043   0.00000  Uiso   1.00
C101   C     0.01871   0.34149   0.18049   0.00000  Uiso   1.00
C102   C     0.34235   0.22798   0.78249   0.00000  Uiso   1.00
C103   C     0.31849   0.21345   0.71774   0.00000  Uiso   1.00
C104   C     0.23776   0.28575   0.65747   0.00000  Uiso   1.00
C105   C     0.11373   0.38107   0.54432   0.00000  Uiso   1.00
C106   C     0.32673   0.31265   0.86305   0.00000  Uiso   1.00
C107   C     0.26055   0.21805   0.85960   0.00000  Uiso   1.00
C108   C     0.15713   0.21157   0.86055   0.00000  Uiso   1.00
C109   C     0.11039   0.11822   0.85694   0.00000  Uiso   1.00
C110   C     0.50124   0.30243   0.93711   0.00000  Uiso   1.00
C111   C     0.60018   0.36691   0.00322   0.00000  Uiso   1.00
C112   C     0.75607   0.34460   0.06484   0.00000  Uiso   1.00
C113   C     0.28754   0.31177   0.78689   0.00000  Uiso   1.00
C114   C     0.20685   0.38411   0.72672   0.00000  Uiso   1.00
C115   C     0.18287   0.36968   0.66189   0.00000  Uiso   1.00
H116   H     0.47029   0.09317   0.85151   0.00000  Uiso   1.00
H117   H     0.31121   0.97608   0.84818   0.00000  Uiso   1.00
H118   H     0.75419   0.13140   0.99081   0.00000  Uiso   1.00
H119   H     0.36092   0.14860   0.71435   0.00000  Uiso   1.00
H120   H     0.11070   0.88322   0.84645   0.00000  Uiso   1.00
H121   H     0.04476   0.21074   0.14718   0.00000  Uiso   1.00
H122   H     0.21548   0.24701   0.56423   0.00000  Uiso   1.00
H123   H     0.28406   0.37788   0.86648   0.00000  Uiso   1.00
H124   H     0.11474   0.27642   0.86397   0.00000  Uiso   1.00
H125   H     0.55773   0.43174   0.00660   0.00000  Uiso   1.00
H126   H     0.16446   0.44894   0.73015   0.00000  Uiso   1.00
H127   H     0.95125   0.12698   0.85927   0.00000  Uiso   1.00
H128   H     0.88531   0.45451   0.16001   0.00000  Uiso   1.00
H129   H     0.05603   0.49077   0.57705   0.00000  Uiso   1.00
O130   O     0.92300   0.93322   0.85097   0.00000  Uiso   1.00
O131   O     0.14844   0.36292   0.24551   0.00000  Uiso   1.00
O132   O     0.06044   0.41050   0.48068   0.00000  Uiso   1.00
N133   N     0.09639   0.95451   0.84980   0.00000  Uiso   1.00
N134   N     0.96967   0.26072   0.13097   0.00000  Uiso   1.00
N135   N     0.19440   0.29464   0.58597   0.00000  Uiso   1.00
N136   N     0.01059   0.08568   0.85670   0.00000  Uiso   1.00
N137   N     0.88387   0.39189   0.13787   0.00000  Uiso   1.00
N138   N     0.10860   0.42581   0.59287   0.00000  Uiso   1.00
C139   C     0.57238   0.15839   0.64506   0.00000  Uiso   1.00
C140   C     0.68465   0.13426   0.64481   0.00000  Uiso   1.00
C141   C     0.73124   0.04090   0.64842   0.00000  Uiso   1.00
C142   C     0.83470   0.03428   0.64747   0.00000  Uiso   1.00
C143   C     0.00063   0.98406   0.64770   0.00000  Uiso   1.00
C144   C     0.44396   0.21865   0.56730   0.00000  Uiso   1.00
C145   C     0.28819   0.19624   0.50576   0.00000  Uiso   1.00
C146   C     0.18904   0.26067   0.43957   0.00000  Uiso   1.00
C147   C     0.98129   0.34149   0.31951   0.00000  Uiso   1.00
C148   C     0.65765   0.22798   0.71751   0.00000  Uiso   1.00
C149   C     0.68151   0.21345   0.78226   0.00000  Uiso   1.00
C150   C     0.76224   0.28575   0.84253   0.00000  Uiso   1.00
C151   C     0.88627   0.38107   0.95568   0.00000  Uiso   1.00
C152   C     0.67327   0.31265   0.63695   0.00000  Uiso   1.00
C153   C     0.73945   0.21805   0.64040   0.00000  Uiso   1.00
C154   C     0.84287   0.21157   0.63945   0.00000  Uiso   1.00
C155   C     0.88961   0.11822   0.64306   0.00000  Uiso   1.00
C156   C     0.49876   0.30243   0.56289   0.00000  Uiso   1.00
C157   C     0.39982   0.36691   0.49678   0.00000  Uiso   1.00
C158   C     0.24393   0.34460   0.43516   0.00000  Uiso   1.00
C159   C     0.71246   0.31177   0.71311   0.00000  Uiso   1.00
C160   C     0.79315   0.38411   0.77328   0.00000  Uiso   1.00
C161   C     0.81713   0.36968   0.83811   0.00000  Uiso   1.00
H162   H     0.52971   0.09317   0.64849   0.00000  Uiso   1.00
H163   H     0.68879   0.97608   0.65182   0.00000  Uiso   1.00
H164   H     0.24581   0.13140   0.50919   0.00000  Uiso   1.00
H165   H     0.63908   0.14860   0.78565   0.00000  Uiso   1.00
H166   H     0.88930   0.88322   0.65355   0.00000  Uiso   1.00
H167   H     0.95524   0.21074   0.35282   0.00000  Uiso   1.00
H168   H     0.78452   0.24701   0.93577   0.00000  Uiso   1.00
H169   H     0.71594   0.37788   0.63352   0.00000  Uiso   1.00
H170   H     0.88526   0.27642   0.63603   0.00000  Uiso   1.00
H171   H     0.44227   0.43174   0.49340   0.00000  Uiso   1.00
H172   H     0.83554   0.44894   0.76985   0.00000  Uiso   1.00
H173   H     0.04875   0.12698   0.64073   0.00000  Uiso   1.00
H174   H     0.11469   0.45451   0.33999   0.00000  Uiso   1.00
H175   H     0.94397   0.49077   0.92295   0.00000  Uiso   1.00
O176   O     0.07700   0.93322   0.64903   0.00000  Uiso   1.00
O177   O     0.85156   0.36292   0.25449   0.00000  Uiso   1.00
O178   O     0.93956   0.41050   0.01932   0.00000  Uiso   1.00
N179   N     0.90361   0.95451   0.65020   0.00000  Uiso   1.00
N180   N     0.03033   0.26072   0.36903   0.00000  Uiso   1.00
N181   N     0.80560   0.29464   0.91403   0.00000  Uiso   1.00
N182   N     0.98941   0.08568   0.64330   0.00000  Uiso   1.00
N183   N     0.11613   0.39189   0.36213   0.00000  Uiso   1.00
N184   N     0.89140   0.42581   0.90713   0.00000  Uiso   1.00
