data_job_02506
_audit_creation_date              2018-12-19
_audit_creation_method            'Materials Studio'
_symmetry_space_group_name_H-M    'P1'
_symmetry_Int_Tables_number       1
_symmetry_cell_setting            triclinic
loop_
_symmetry_equiv_pos_as_xyz
  x,y,z
_cell_length_a                    10.6882
_cell_length_b                    16.1433
_cell_length_c                    19.2297
_cell_angle_alpha                 90.0000
_cell_angle_beta                  135.7363
_cell_angle_gamma                 90.0000
loop_
_atom_site_label
_atom_site_type_symbol
_atom_site_fract_x
_atom_site_fract_y
_atom_site_fract_z
_atom_site_U_iso_or_equiv
_atom_site_adp_type
_atom_site_occupancy
C1     C     0.80416   0.21353   0.91371   0.00000  Uiso   1.00
C2     C     0.98675   0.23101   0.95389   0.00000  Uiso   1.00
C3     C     0.03797   0.21068   0.90703   0.00000  Uiso   1.00
C4     C     0.21088   0.23195   0.95599   0.00000  Uiso   1.00
C5     C     0.47658   0.25294   0.00434   0.00000  Uiso   1.00
C6     C     0.84105   0.16322   0.99397   0.00000  Uiso   1.00
C7     C     0.76974   0.08591   0.98080   0.00000  Uiso   1.00
C8     C     0.81998   0.05013   0.06349   0.00000  Uiso   1.00
C9     C     0.85936   0.96591   0.17404   0.00000  Uiso   1.00
C10    C     0.73271   0.29700   0.90996   0.00000  Uiso   1.00
C11    C     0.57028   0.33216   0.82615   0.00000  Uiso   1.00
C12    C     0.52928   0.40899   0.83812   0.00000  Uiso   1.00
C13    C     0.40045   0.53248   0.81822   0.00000  Uiso   1.00
C14    C     0.02015   0.28744   0.08398   0.00000  Uiso   1.00
C15    C     0.10407   0.27115   0.04638   0.00000  Uiso   1.00
C16    C     0.27694   0.29246   0.09542   0.00000  Uiso   1.00
C17    C     0.32841   0.27217   0.04864   0.00000  Uiso   1.00
C18    C     0.95836   0.20337   0.08645   0.00000  Uiso   1.00
C19    C     0.00871   0.16769   0.16918   0.00000  Uiso   1.00
C20    C     0.93751   0.09034   0.15614   0.00000  Uiso   1.00
C21    C     0.85002   0.33715   0.00244   0.00000  Uiso   1.00
C22    C     0.80926   0.41393   0.01454   0.00000  Uiso   1.00
C23    C     0.64681   0.44921   0.93077   0.00000  Uiso   1.00
H24    H     0.71282   0.18227   0.84171   0.00000  Uiso   1.00
H25    H     0.94715   0.17961   0.83546   0.00000  Uiso   1.00
H26    H     0.67894   0.05487   0.90922   0.00000  Uiso   1.00
H27    H     0.47953   0.30107   0.75460   0.00000  Uiso   1.00
H28    H     0.25870   0.19433   0.86935   0.00000  Uiso   1.00
H29    H     0.69313   0.93132   0.02485   0.00000  Uiso   1.00
H30    H     0.27261   0.45050   0.69880   0.00000  Uiso   1.00
H31    H     0.11149   0.31869   0.15599   0.00000  Uiso   1.00
H32    H     0.36770   0.32352   0.16699   0.00000  Uiso   1.00
H33    H     0.09949   0.19878   0.24074   0.00000  Uiso   1.00
H34    H     0.90007   0.44498   0.08612   0.00000  Uiso   1.00
H35    H     0.60004   0.31113   0.13843   0.00000  Uiso   1.00
H36    H     0.03445   0.04812   0.29392   0.00000  Uiso   1.00
H37    H     0.61394   0.56730   0.96788   0.00000  Uiso   1.00
O38    O     0.59074   0.25342   0.00547   0.00000  Uiso   1.00
O39    O     0.84869   0.90837   0.20947   0.00000  Uiso   1.00
O40    O     0.29699   0.58952   0.78170   0.00000  Uiso   1.00
N41    N     0.30386   0.22117   0.93116   0.00000  Uiso   1.00
N42    N     0.77510   0.97527   0.07654   0.00000  Uiso   1.00
N43    N     0.38193   0.46064   0.77172   0.00000  Uiso   1.00
N44    N     0.48753   0.28402   0.07595   0.00000  Uiso   1.00
N45    N     0.95877   0.03812   0.22133   0.00000  Uiso   1.00
N46    N     0.56560   0.52350   0.91651   0.00000  Uiso   1.00
C47    C     0.19584   0.71353   0.58629   0.00000  Uiso   1.00
C48    C     0.01325   0.73101   0.54611   0.00000  Uiso   1.00
C49    C     0.96203   0.71068   0.59297   0.00000  Uiso   1.00
C50    C     0.78912   0.73195   0.54401   0.00000  Uiso   1.00
C51    C     0.52342   0.75294   0.49566   0.00000  Uiso   1.00
C52    C     0.15895   0.66322   0.50603   0.00000  Uiso   1.00
C53    C     0.23026   0.58591   0.51920   0.00000  Uiso   1.00
C54    C     0.18002   0.55013   0.43651   0.00000  Uiso   1.00
C55    C     0.14064   0.46591   0.32596   0.00000  Uiso   1.00
C56    C     0.26729   0.79700   0.59004   0.00000  Uiso   1.00
C57    C     0.42972   0.83216   0.67385   0.00000  Uiso   1.00
C58    C     0.47072   0.90899   0.66188   0.00000  Uiso   1.00
C59    C     0.59955   0.03248   0.68178   0.00000  Uiso   1.00
C60    C     0.97985   0.78744   0.41602   0.00000  Uiso   1.00
C61    C     0.89593   0.77115   0.45362   0.00000  Uiso   1.00
C62    C     0.72306   0.79246   0.40458   0.00000  Uiso   1.00
C63    C     0.67159   0.77217   0.45136   0.00000  Uiso   1.00
C64    C     0.04164   0.70337   0.41355   0.00000  Uiso   1.00
C65    C     0.99129   0.66769   0.33082   0.00000  Uiso   1.00
C66    C     0.06249   0.59034   0.34386   0.00000  Uiso   1.00
C67    C     0.14998   0.83715   0.49756   0.00000  Uiso   1.00
C68    C     0.19074   0.91393   0.48546   0.00000  Uiso   1.00
C69    C     0.35319   0.94921   0.56923   0.00000  Uiso   1.00
H70    H     0.28718   0.68227   0.65829   0.00000  Uiso   1.00
H71    H     0.05285   0.67961   0.66454   0.00000  Uiso   1.00
H72    H     0.32106   0.55487   0.59078   0.00000  Uiso   1.00
H73    H     0.52047   0.80107   0.74540   0.00000  Uiso   1.00
H74    H     0.74130   0.69433   0.63065   0.00000  Uiso   1.00
H75    H     0.30687   0.43132   0.47515   0.00000  Uiso   1.00
H76    H     0.72739   0.95050   0.80120   0.00000  Uiso   1.00
H77    H     0.88851   0.81869   0.34401   0.00000  Uiso   1.00
H78    H     0.63230   0.82352   0.33301   0.00000  Uiso   1.00
H79    H     0.90051   0.69878   0.25926   0.00000  Uiso   1.00
H80    H     0.09993   0.94498   0.41388   0.00000  Uiso   1.00
H81    H     0.39996   0.81113   0.36157   0.00000  Uiso   1.00
H82    H     0.96555   0.54812   0.20608   0.00000  Uiso   1.00
H83    H     0.38606   0.06730   0.53212   0.00000  Uiso   1.00
O84    O     0.40926   0.75342   0.49453   0.00000  Uiso   1.00
O85    O     0.15131   0.40837   0.29053   0.00000  Uiso   1.00
O86    O     0.70301   0.08952   0.71830   0.00000  Uiso   1.00
N87    N     0.69614   0.72117   0.56884   0.00000  Uiso   1.00
N88    N     0.22490   0.47527   0.42346   0.00000  Uiso   1.00
N89    N     0.61807   0.96064   0.72828   0.00000  Uiso   1.00
N90    N     0.51247   0.78402   0.42405   0.00000  Uiso   1.00
N91    N     0.04123   0.53812   0.27867   0.00000  Uiso   1.00
N92    N     0.43440   0.02350   0.58349   0.00000  Uiso   1.00
C93    C     0.19584   0.78647   0.08629   0.00000  Uiso   1.00
C94    C     0.01325   0.76899   0.04611   0.00000  Uiso   1.00
C95    C     0.96203   0.78932   0.09297   0.00000  Uiso   1.00
C96    C     0.78912   0.76805   0.04401   0.00000  Uiso   1.00
C97    C     0.52342   0.74706   0.99566   0.00000  Uiso   1.00
C98    C     0.15895   0.83678   0.00603   0.00000  Uiso   1.00
C99    C     0.23026   0.91409   0.01920   0.00000  Uiso   1.00
C100   C     0.18002   0.94987   0.93651   0.00000  Uiso   1.00
C101   C     0.14064   0.03409   0.82596   0.00000  Uiso   1.00
C102   C     0.26729   0.70300   0.09004   0.00000  Uiso   1.00
C103   C     0.42972   0.66784   0.17385   0.00000  Uiso   1.00
C104   C     0.47072   0.59101   0.16188   0.00000  Uiso   1.00
C105   C     0.59955   0.46752   0.18178   0.00000  Uiso   1.00
C106   C     0.97985   0.71256   0.91602   0.00000  Uiso   1.00
C107   C     0.89593   0.72885   0.95362   0.00000  Uiso   1.00
C108   C     0.72306   0.70754   0.90458   0.00000  Uiso   1.00
C109   C     0.67159   0.72783   0.95136   0.00000  Uiso   1.00
C110   C     0.04164   0.79663   0.91355   0.00000  Uiso   1.00
C111   C     0.99129   0.83231   0.83082   0.00000  Uiso   1.00
C112   C     0.06249   0.90966   0.84386   0.00000  Uiso   1.00
C113   C     0.14998   0.66285   0.99756   0.00000  Uiso   1.00
C114   C     0.19074   0.58607   0.98546   0.00000  Uiso   1.00
C115   C     0.35319   0.55079   0.06923   0.00000  Uiso   1.00
H116   H     0.28718   0.81773   0.15829   0.00000  Uiso   1.00
H117   H     0.05285   0.82039   0.16454   0.00000  Uiso   1.00
H118   H     0.32106   0.94513   0.09078   0.00000  Uiso   1.00
H119   H     0.52047   0.69893   0.24540   0.00000  Uiso   1.00
H120   H     0.74130   0.80567   0.13065   0.00000  Uiso   1.00
H121   H     0.30687   0.06868   0.97515   0.00000  Uiso   1.00
H122   H     0.72739   0.54950   0.30120   0.00000  Uiso   1.00
H123   H     0.88851   0.68131   0.84401   0.00000  Uiso   1.00
H124   H     0.63230   0.67648   0.83301   0.00000  Uiso   1.00
H125   H     0.90051   0.80122   0.75926   0.00000  Uiso   1.00
H126   H     0.09993   0.55502   0.91388   0.00000  Uiso   1.00
H127   H     0.39996   0.68887   0.86157   0.00000  Uiso   1.00
H128   H     0.96555   0.95188   0.70608   0.00000  Uiso   1.00
H129   H     0.38606   0.43270   0.03212   0.00000  Uiso   1.00
O130   O     0.40926   0.74658   0.99453   0.00000  Uiso   1.00
O131   O     0.15131   0.09163   0.79053   0.00000  Uiso   1.00
O132   O     0.70301   0.41048   0.21830   0.00000  Uiso   1.00
N133   N     0.69614   0.77883   0.06884   0.00000  Uiso   1.00
N134   N     0.22490   0.02473   0.92346   0.00000  Uiso   1.00
N135   N     0.61807   0.53936   0.22828   0.00000  Uiso   1.00
N136   N     0.51247   0.71598   0.92405   0.00000  Uiso   1.00
N137   N     0.04123   0.96188   0.77867   0.00000  Uiso   1.00
N138   N     0.43440   0.47650   0.08349   0.00000  Uiso   1.00
C139   C     0.80416   0.28647   0.41371   0.00000  Uiso   1.00
C140   C     0.98675   0.26899   0.45389   0.00000  Uiso   1.00
C141   C     0.03797   0.28932   0.40703   0.00000  Uiso   1.00
C142   C     0.21088   0.26805   0.45599   0.00000  Uiso   1.00
C143   C     0.47658   0.24706   0.50434   0.00000  Uiso   1.00
C144   C     0.84105   0.33678   0.49397   0.00000  Uiso   1.00
C145   C     0.76974   0.41409   0.48080   0.00000  Uiso   1.00
C146   C     0.81998   0.44987   0.56349   0.00000  Uiso   1.00
C147   C     0.85936   0.53409   0.67404   0.00000  Uiso   1.00
C148   C     0.73271   0.20300   0.40996   0.00000  Uiso   1.00
C149   C     0.57028   0.16784   0.32615   0.00000  Uiso   1.00
C150   C     0.52928   0.09101   0.33812   0.00000  Uiso   1.00
C151   C     0.40045   0.96752   0.31822   0.00000  Uiso   1.00
C152   C     0.02015   0.21256   0.58398   0.00000  Uiso   1.00
C153   C     0.10407   0.22885   0.54638   0.00000  Uiso   1.00
C154   C     0.27694   0.20754   0.59542   0.00000  Uiso   1.00
C155   C     0.32841   0.22783   0.54864   0.00000  Uiso   1.00
C156   C     0.95836   0.29663   0.58645   0.00000  Uiso   1.00
C157   C     0.00871   0.33231   0.66918   0.00000  Uiso   1.00
C158   C     0.93751   0.40966   0.65614   0.00000  Uiso   1.00
C159   C     0.85002   0.16285   0.50244   0.00000  Uiso   1.00
C160   C     0.80926   0.08607   0.51454   0.00000  Uiso   1.00
C161   C     0.64681   0.05079   0.43077   0.00000  Uiso   1.00
H162   H     0.71282   0.31773   0.34171   0.00000  Uiso   1.00
H163   H     0.94715   0.32039   0.33546   0.00000  Uiso   1.00
H164   H     0.67894   0.44513   0.40922   0.00000  Uiso   1.00
H165   H     0.47953   0.19893   0.25460   0.00000  Uiso   1.00
H166   H     0.25870   0.30567   0.36935   0.00000  Uiso   1.00
H167   H     0.69313   0.56868   0.52485   0.00000  Uiso   1.00
H168   H     0.27261   0.04950   0.19880   0.00000  Uiso   1.00
H169   H     0.11149   0.18131   0.65599   0.00000  Uiso   1.00
H170   H     0.36770   0.17648   0.66699   0.00000  Uiso   1.00
H171   H     0.09949   0.30122   0.74074   0.00000  Uiso   1.00
H172   H     0.90007   0.05502   0.58612   0.00000  Uiso   1.00
H173   H     0.60004   0.18887   0.63843   0.00000  Uiso   1.00
H174   H     0.03445   0.45188   0.79392   0.00000  Uiso   1.00
H175   H     0.61394   0.93270   0.46788   0.00000  Uiso   1.00
O176   O     0.59074   0.24658   0.50547   0.00000  Uiso   1.00
O177   O     0.84869   0.59163   0.70947   0.00000  Uiso   1.00
O178   O     0.29699   0.91048   0.28170   0.00000  Uiso   1.00
N179   N     0.30386   0.27883   0.43116   0.00000  Uiso   1.00
N180   N     0.77510   0.52473   0.57654   0.00000  Uiso   1.00
N181   N     0.38193   0.03936   0.27172   0.00000  Uiso   1.00
N182   N     0.48753   0.21598   0.57595   0.00000  Uiso   1.00
N183   N     0.95877   0.46188   0.72133   0.00000  Uiso   1.00
N184   N     0.56560   0.97650   0.41651   0.00000  Uiso   1.00
