data_job_06539
_audit_creation_date              2018-12-19
_audit_creation_method            'Materials Studio'
_symmetry_space_group_name_H-M    'P1'
_symmetry_Int_Tables_number       1
_symmetry_cell_setting            triclinic
loop_
_symmetry_equiv_pos_as_xyz
  x,y,z
_cell_length_a                    15.3050
_cell_length_b                    22.1352
_cell_length_c                    25.2387
_cell_angle_alpha                 69.1407
_cell_angle_beta                  92.8813
_cell_angle_gamma                 71.4737
loop_
_atom_site_label
_atom_site_type_symbol
_atom_site_fract_x
_atom_site_fract_y
_atom_site_fract_z
_atom_site_U_iso_or_equiv
_atom_site_adp_type
_atom_site_occupancy
C1     C     0.35296   0.51768   0.72183   0.00000  Uiso   1.00
C2     C     0.36478   0.58693   0.70984   0.00000  Uiso   1.00
C3     C     0.30995   0.63933   0.72501   0.00000  Uiso   1.00
C4     C     0.33203   0.69873   0.71018   0.00000  Uiso   1.00
C5     C     0.33906   0.80525   0.69595   0.00000  Uiso   1.00
C6     C     0.34061   0.51257   0.66343   0.00000  Uiso   1.00
C7     C     0.26546   0.50243   0.63958   0.00000  Uiso   1.00
C8     C     0.26721   0.49922   0.58568   0.00000  Uiso   1.00
C9     C     0.23675   0.49023   0.49941   0.00000  Uiso   1.00
C10    C     0.44717   0.46199   0.75567   0.00000  Uiso   1.00
C11    C     0.46163   0.40931   0.80937   0.00000  Uiso   1.00
C12    C     0.55310   0.36351   0.83313   0.00000  Uiso   1.00
C13    C     0.68809   0.27600   0.89008   0.00000  Uiso   1.00
C14    C     0.48968   0.53000   0.66851   0.00000  Uiso   1.00
C15    C     0.43904   0.59362   0.68088   0.00000  Uiso   1.00
C16    C     0.46121   0.65295   0.66603   0.00000  Uiso   1.00
C17    C     0.40643   0.70543   0.68117   0.00000  Uiso   1.00
C18    C     0.41487   0.51926   0.63447   0.00000  Uiso   1.00
C19    C     0.41673   0.51605   0.58059   0.00000  Uiso   1.00
C20    C     0.34160   0.50591   0.55667   0.00000  Uiso   1.00
C21    C     0.52144   0.46868   0.72671   0.00000  Uiso   1.00
C22    C     0.61290   0.42294   0.75039   0.00000  Uiso   1.00
C23    C     0.62749   0.37021   0.80412   0.00000  Uiso   1.00
H24    H     0.29514   0.51248   0.74437   0.00000  Uiso   1.00
H25    H     0.25248   0.63414   0.74741   0.00000  Uiso   1.00
H26    H     0.20801   0.49725   0.66200   0.00000  Uiso   1.00
H27    H     0.40415   0.40415   0.83177   0.00000  Uiso   1.00
H28    H     0.23791   0.77198   0.73800   0.00000  Uiso   1.00
H29    H     0.14415   0.48332   0.55791   0.00000  Uiso   1.00
H30    H     0.55775   0.28701   0.91590   0.00000  Uiso   1.00
H31    H     0.54750   0.53520   0.64597   0.00000  Uiso   1.00
H32    H     0.51868   0.65811   0.64362   0.00000  Uiso   1.00
H33    H     0.47421   0.52123   0.55820   0.00000  Uiso   1.00
H34    H     0.67035   0.42813   0.72797   0.00000  Uiso   1.00
H35    H     0.45396   0.79144   0.65376   0.00000  Uiso   1.00
H36    H     0.36021   0.50278   0.47366   0.00000  Uiso   1.00
H37    H     0.77381   0.30647   0.83165   0.00000  Uiso   1.00
O38    O     0.32241   0.86217   0.69609   0.00000  Uiso   1.00
O39    O     0.19942   0.48344   0.45982   0.00000  Uiso   1.00
O40    O     0.74204   0.22589   0.92949   0.00000  Uiso   1.00
N41    N     0.29272   0.75969   0.71851   0.00000  Uiso   1.00
N42    N     0.20506   0.48982   0.55013   0.00000  Uiso   1.00
N43    N     0.59173   0.30627   0.88481   0.00000  Uiso   1.00
N44    N     0.40898   0.77016   0.67318   0.00000  Uiso   1.00
N45    N     0.32132   0.50029   0.50479   0.00000  Uiso   1.00
N46    N     0.70799   0.31674   0.83948   0.00000  Uiso   1.00
C47    C     0.35991   0.22869   0.35406   0.00000  Uiso   1.00
C48    C     0.25327   0.25852   0.34562   0.00000  Uiso   1.00
C49    C     0.19713   0.32769   0.31598   0.00000  Uiso   1.00
C50    C     0.10106   0.34455   0.31310   0.00000  Uiso   1.00
C51    C     0.94132   0.39857   0.29607   0.00000  Uiso   1.00
C52    C     0.39502   0.19146   0.41905   0.00000  Uiso   1.00
C53    C     0.45808   0.20424   0.45115   0.00000  Uiso   1.00
C54    C     0.48135   0.16464   0.51009   0.00000  Uiso   1.00
C55    C     0.54173   0.11451   0.60707   0.00000  Uiso   1.00
C56    C     0.38294   0.17229   0.33015   0.00000  Uiso   1.00
C57    C     0.43587   0.16895   0.28751   0.00000  Uiso   1.00
C58    C     0.44899   0.11320   0.27160   0.00000  Uiso   1.00
C59    C     0.49063   0.03331   0.23054   0.00000  Uiso   1.00
C60    C     0.28913   0.13561   0.40165   0.00000  Uiso   1.00
C61    C     0.21482   0.20796   0.37147   0.00000  Uiso   1.00
C62    C     0.11881   0.22472   0.36863   0.00000  Uiso   1.00
C63    C     0.06254   0.29390   0.33899   0.00000  Uiso   1.00
C64    C     0.35658   0.14091   0.44490   0.00000  Uiso   1.00
C65    C     0.37976   0.10127   0.50380   0.00000  Uiso   1.00
C66    C     0.44283   0.11399   0.53599   0.00000  Uiso   1.00
C67    C     0.34450   0.12174   0.35599   0.00000  Uiso   1.00
C68    C     0.35755   0.06598   0.34015   0.00000  Uiso   1.00
C69    C     0.41048   0.06255   0.29750   0.00000  Uiso   1.00
H70    H     0.38985   0.26804   0.33395   0.00000  Uiso   1.00
H71    H     0.22691   0.36680   0.29598   0.00000  Uiso   1.00
H72    H     0.48782   0.24336   0.43114   0.00000  Uiso   1.00
H73    H     0.46561   0.20808   0.26751   0.00000  Uiso   1.00
H74    H     0.02931   0.45401   0.26532   0.00000  Uiso   1.00
H75    H     0.57949   0.19371   0.55029   0.00000  Uiso   1.00
H76    H     0.53265   0.11931   0.20526   0.00000  Uiso   1.00
H77    H     0.25920   0.09625   0.42178   0.00000  Uiso   1.00
H78    H     0.08908   0.18559   0.38863   0.00000  Uiso   1.00
H79    H     0.35000   0.06215   0.52379   0.00000  Uiso   1.00
H80    H     0.32779   0.02686   0.36017   0.00000  Uiso   1.00
H81    H     0.91744   0.30693   0.34052   0.00000  Uiso   1.00
H82    H     0.46763   0.04663   0.62549   0.00000  Uiso   1.00
H83    H     0.42079   0.97223   0.28046   0.00000  Uiso   1.00
O84    O     0.86383   0.44234   0.27955   0.00000  Uiso   1.00
O85    O     0.58566   0.10084   0.65342   0.00000  Uiso   1.00
O86    O     0.52420   0.00322   0.20074   0.00000  Uiso   1.00
N87    N     0.02633   0.40713   0.28755   0.00000  Uiso   1.00
N88    N     0.54070   0.16378   0.55399   0.00000  Uiso   1.00
N89    N     0.49693   0.09421   0.23142   0.00000  Uiso   1.00
N90    N     0.96613   0.32799   0.32802   0.00000  Uiso   1.00
N91    N     0.48050   0.08464   0.59445   0.00000  Uiso   1.00
N92    N     0.43674   0.01506   0.27189   0.00000  Uiso   1.00
C93    C     0.79904   0.64326   0.83590   0.00000  Uiso   1.00
C94    C     0.75074   0.65457   0.88479   0.00000  Uiso   1.00
C95    C     0.65915   0.69788   0.87862   0.00000  Uiso   1.00
C96    C     0.62804   0.70108   0.92863   0.00000  Uiso   1.00
C97    C     0.54416   0.72456   0.99628   0.00000  Uiso   1.00
C98    C     0.88698   0.66087   0.84033   0.00000  Uiso   1.00
C99    C     0.90995   0.70947   0.79677   0.00000  Uiso   1.00
C100   C     0.99355   0.71797   0.80936   0.00000  Uiso   1.00
C101   C     0.12122   0.75120   0.80798   0.00000  Uiso   1.00
C102   C     0.83317   0.56546   0.85098   0.00000  Uiso   1.00
C103   C     0.81091   0.53382   0.81638   0.00000  Uiso   1.00
C104   C     0.84921   0.46198   0.83794   0.00000  Uiso   1.00
C105   C     0.89332   0.34706   0.85310   0.00000  Uiso   1.00
C106   C     0.90667   0.57193   0.93570   0.00000  Uiso   1.00
C107   C     0.80920   0.61583   0.93899   0.00000  Uiso   1.00
C108   C     0.77822   0.61896   0.98903   0.00000  Uiso   1.00
C109   C     0.68660   0.66226   0.98293   0.00000  Uiso   1.00
C110   C     0.94544   0.62213   0.89453   0.00000  Uiso   1.00
C111   C     0.02903   0.63055   0.90718   0.00000  Uiso   1.00
C112   C     0.05211   0.67915   0.86366   0.00000  Uiso   1.00
C113   C     0.89162   0.52671   0.90519   0.00000  Uiso   1.00
C114   C     0.92998   0.45490   0.92679   0.00000  Uiso   1.00
C115   C     0.90778   0.42317   0.89224   0.00000  Uiso   1.00
H116   H     0.75354   0.67342   0.79371   0.00000  Uiso   1.00
H117   H     0.61394   0.72786   0.83666   0.00000  Uiso   1.00
H118   H     0.86471   0.73944   0.75483   0.00000  Uiso   1.00
H119   H     0.76567   0.56382   0.77444   0.00000  Uiso   1.00
H120   H     0.48495   0.77114   0.90819   0.00000  Uiso   1.00
H121   H     0.01373   0.79555   0.73564   0.00000  Uiso   1.00
H122   H     0.80489   0.42522   0.77699   0.00000  Uiso   1.00
H123   H     0.95218   0.54176   0.97790   0.00000  Uiso   1.00
H124   H     0.82348   0.58897   0.03096   0.00000  Uiso   1.00
H125   H     0.07425   0.60056   0.94913   0.00000  Uiso   1.00
H126   H     0.97521   0.42494   0.96874   0.00000  Uiso   1.00
H127   H     0.65502   0.65842   0.06589   0.00000  Uiso   1.00
H128   H     0.18380   0.68283   0.89334   0.00000  Uiso   1.00
H129   H     0.97497   0.31250   0.93469   0.00000  Uiso   1.00
O130   O     0.48175   0.74823   0.01863   0.00000  Uiso   1.00
O131   O     0.17549   0.78024   0.79224   0.00000  Uiso   1.00
O132   O     0.90150   0.29438   0.84649   0.00000  Uiso   1.00
N133   N     0.54263   0.73812   0.93803   0.00000  Uiso   1.00
N134   N     0.03700   0.76095   0.77670   0.00000  Uiso   1.00
N135   N     0.84178   0.41472   0.81535   0.00000  Uiso   1.00
N136   N     0.63415   0.67746   0.02288   0.00000  Uiso   1.00
N137   N     0.12852   0.70030   0.86156   0.00000  Uiso   1.00
N138   N     0.93329   0.35407   0.90021   0.00000  Uiso   1.00
C139   C     0.96257   0.14359   0.69112   0.00000  Uiso   1.00
C140   C     0.87664   0.13933   0.71811   0.00000  Uiso   1.00
C141   C     0.82697   0.18310   0.74302   0.00000  Uiso   1.00
C142   C     0.75039   0.17063   0.76531   0.00000  Uiso   1.00
C143   C     0.62088   0.17229   0.80758   0.00000  Uiso   1.00
C144   C     0.93855   0.15013   0.62947   0.00000  Uiso   1.00
C145   C     0.94094   0.20298   0.57986   0.00000  Uiso   1.00
C146   C     0.91649   0.19960   0.52754   0.00000  Uiso   1.00
C147   C     0.88316   0.21800   0.43220   0.00000  Uiso   1.00
C148   C     0.03984   0.07282   0.72255   0.00000  Uiso   1.00
C149   C     0.12741   0.06067   0.75119   0.00000  Uiso   1.00
C150   C     0.18824   0.99221   0.77722   0.00000  Uiso   1.00
C151   C     0.31217   0.89058   0.82639   0.00000  Uiso   1.00
C152   C     0.91490   0.04362   0.68641   0.00000  Uiso   1.00
C153   C     0.85075   0.08503   0.71554   0.00000  Uiso   1.00
C154   C     0.77423   0.07249   0.73781   0.00000  Uiso   1.00
C155   C     0.72445   0.11623   0.76275   0.00000  Uiso   1.00
C156   C     0.91266   0.09583   0.62691   0.00000  Uiso   1.00
C157   C     0.88820   0.09237   0.57465   0.00000  Uiso   1.00
C158   C     0.89055   0.14521   0.52498   0.00000  Uiso   1.00
C159   C     0.01395   0.01852   0.71999   0.00000  Uiso   1.00
C160   C     0.07466   0.95007   0.74598   0.00000  Uiso   1.00
C161   C     0.16230   0.93781   0.77465   0.00000  Uiso   1.00
H162   H     0.98272   0.18587   0.69311   0.00000  Uiso   1.00
H163   H     0.84702   0.22512   0.74499   0.00000  Uiso   1.00
H164   H     0.96099   0.24499   0.58186   0.00000  Uiso   1.00
H165   H     0.14742   0.10270   0.75316   0.00000  Uiso   1.00
H166   H     0.68513   0.24470   0.80136   0.00000  Uiso   1.00
H167   H     0.92547   0.28659   0.45739   0.00000  Uiso   1.00
H168   H     0.31859   0.98655   0.81861   0.00000  Uiso   1.00
H169   H     0.89475   0.00135   0.68441   0.00000  Uiso   1.00
H170   H     0.75421   0.03047   0.73582   0.00000  Uiso   1.00
H171   H     0.86818   0.05034   0.57269   0.00000  Uiso   1.00
H172   H     0.05461   0.90806   0.74399   0.00000  Uiso   1.00
H173   H     0.60980   0.08672   0.79392   0.00000  Uiso   1.00
H174   H     0.85014   0.12861   0.44994   0.00000  Uiso   1.00
H175   H     0.24326   0.82857   0.81116   0.00000  Uiso   1.00
O176   O     0.55659   0.18820   0.83159   0.00000  Uiso   1.00
O177   O     0.87192   0.24316   0.38032   0.00000  Uiso   1.00
O178   O     0.38768   0.84952   0.85423   0.00000  Uiso   1.00
N179   N     0.68670   0.20351   0.79256   0.00000  Uiso   1.00
N180   N     0.91138   0.24268   0.47097   0.00000  Uiso   1.00
N181   N     0.27893   0.96218   0.80867   0.00000  Uiso   1.00
N182   N     0.64617   0.11850   0.78856   0.00000  Uiso   1.00
N183   N     0.87085   0.15768   0.46697   0.00000  Uiso   1.00
N184   N     0.23840   0.87717   0.80466   0.00000  Uiso   1.00
C185   C     0.11305   0.13232   0.94130   0.00000  Uiso   1.00
C186   C     0.17972   0.16335   0.90845   0.00000  Uiso   1.00
C187   C     0.15342   0.22568   0.86089   0.00000  Uiso   1.00
C188   C     0.22499   0.24503   0.83698   0.00000  Uiso   1.00
C189   C     0.31415   0.29955   0.78251   0.00000  Uiso   1.00
C190   C     0.14091   0.12080   0.00398   0.00000  Uiso   1.00
C191   C     0.08199   0.14735   0.03674   0.00000  Uiso   1.00
C192   C     0.12089   0.13086   0.09325   0.00000  Uiso   1.00
C193   C     0.14978   0.11928   0.18711   0.00000  Uiso   1.00
C194   C     0.13765   0.06038   0.94034   0.00000  Uiso   1.00
C195   C     0.07598   0.03612   0.91960   0.00000  Uiso   1.00
C196   C     0.11213   0.96875   0.92255   0.00000  Uiso   1.00
C197   C     0.13595   0.86337   0.91759   0.00000  Uiso   1.00
C198   C     0.28690   0.05582   0.98343   0.00000  Uiso   1.00
C199   C     0.27414   0.12180   0.93134   0.00000  Uiso   1.00
C200   C     0.34577   0.14105   0.90749   0.00000  Uiso   1.00
C201   C     0.31959   0.20340   0.85989   0.00000  Uiso   1.00
C202   C     0.23534   0.07925   0.02687   0.00000  Uiso   1.00
C203   C     0.27433   0.06271   0.08334   0.00000  Uiso   1.00
C204   C     0.21549   0.08923   0.11617   0.00000  Uiso   1.00
C205   C     0.23208   0.01883   0.96322   0.00000  Uiso   1.00
C206   C     0.26833   0.95149   0.96620   0.00000  Uiso   1.00
C207   C     0.20672   0.92713   0.94547   0.00000  Uiso   1.00
H208   H     0.03953   0.16466   0.92349   0.00000  Uiso   1.00
H209   H     0.08034   0.25783   0.84320   0.00000  Uiso   1.00
H210   H     0.00891   0.17949   0.01902   0.00000  Uiso   1.00
H211   H     0.00291   0.06829   0.90190   0.00000  Uiso   1.00
H212   H     0.16723   0.34281   0.76427   0.00000  Uiso   1.00
H213   H     0.01662   0.17762   0.13502   0.00000  Uiso   1.00
H214   H     0.00395   0.94311   0.88805   0.00000  Uiso   1.00
H215   H     0.36042   0.02347   0.00124   0.00000  Uiso   1.00
H216   H     0.41884   0.10889   0.92521   0.00000  Uiso   1.00
H217   H     0.34741   0.03055   0.10103   0.00000  Uiso   1.00
H218   H     0.34140   0.91935   0.98391   0.00000  Uiso   1.00
H219   H     0.44197   0.22192   0.83084   0.00000  Uiso   1.00
H220   H     0.29135   0.05673   0.20159   0.00000  Uiso   1.00
H221   H     0.27868   0.82223   0.95461   0.00000  Uiso   1.00
O222   O     0.33724   0.34111   0.74614   0.00000  Uiso   1.00
O223   O     0.13963   0.12438   0.23255   0.00000  Uiso   1.00
O224   O     0.12302   0.81672   0.90853   0.00000  Uiso   1.00
N225   N     0.22387   0.30263   0.79037   0.00000  Uiso   1.00
N226   N     0.08306   0.14819   0.13699   0.00000  Uiso   1.00
N227   N     0.07121   0.92894   0.90611   0.00000  Uiso   1.00
N228   N     0.37171   0.23758   0.82618   0.00000  Uiso   1.00
N229   N     0.23089   0.08315   0.17281   0.00000  Uiso   1.00
N230   N     0.21904   0.86390   0.94192   0.00000  Uiso   1.00
C231   C     0.75800   0.80819   0.33682   0.00000  Uiso   1.00
C232   C     0.77855   0.84628   0.37290   0.00000  Uiso   1.00
C233   C     0.75924   0.91706   0.35330   0.00000  Uiso   1.00
C234   C     0.78338   0.94187   0.39303   0.00000  Uiso   1.00
C235   C     0.80887   0.00778   0.44035   0.00000  Uiso   1.00
C236   C     0.69700   0.76956   0.36806   0.00000  Uiso   1.00
C237   C     0.60913   0.77584   0.34440   0.00000  Uiso   1.00
C238   C     0.56464   0.73605   0.38007   0.00000  Uiso   1.00
C239   C     0.46355   0.68282   0.41987   0.00000  Uiso   1.00
C240   C     0.85135   0.75266   0.34174   0.00000  Uiso   1.00
C241   C     0.89325   0.74470   0.29594   0.00000  Uiso   1.00
C242   C     0.97871   0.69067   0.30945   0.00000  Uiso   1.00
C243   C     0.11727   0.61119   0.30837   0.00000  Uiso   1.00
C244   C     0.83522   0.72637   0.44223   0.00000  Uiso   1.00
C245   C     0.82049   0.80184   0.43015   0.00000  Uiso   1.00
C246   C     0.84468   0.82654   0.46993   0.00000  Uiso   1.00
C247   C     0.82541   0.89735   0.45040   0.00000  Uiso   1.00
C248   C     0.73894   0.72512   0.42532   0.00000  Uiso   1.00
C249   C     0.69458   0.68532   0.46103   0.00000  Uiso   1.00
C250   C     0.60666   0.69153   0.43743   0.00000  Uiso   1.00
C251   C     0.89330   0.70822   0.39900   0.00000  Uiso   1.00
C252   C     0.97870   0.65418   0.41257   0.00000  Uiso   1.00
C253   C     0.02073   0.64615   0.36681   0.00000  Uiso   1.00
H254   H     0.72533   0.84279   0.29224   0.00000  Uiso   1.00
H255   H     0.72676   0.95144   0.30899   0.00000  Uiso   1.00
H256   H     0.57669   0.81023   0.30009   0.00000  Uiso   1.00
H257   H     0.86077   0.77910   0.25164   0.00000  Uiso   1.00
H258   H     0.74682   0.05230   0.35281   0.00000  Uiso   1.00
H259   H     0.43039   0.75454   0.33403   0.00000  Uiso   1.00
H260   H     0.02943   0.68890   0.23187   0.00000  Uiso   1.00
H261   H     0.86788   0.69177   0.48681   0.00000  Uiso   1.00
H262   H     0.87714   0.79214   0.51424   0.00000  Uiso   1.00
H263   H     0.72706   0.65093   0.50533   0.00000  Uiso   1.00
H264   H     0.01114   0.61980   0.45689   0.00000  Uiso   1.00
H265   H     0.86887   0.92301   0.51940   0.00000  Uiso   1.00
H266   H     0.55244   0.62524   0.50062   0.00000  Uiso   1.00
H267   H     0.15148   0.55961   0.39846   0.00000  Uiso   1.00
O268   O     0.81133   0.05641   0.45063   0.00000  Uiso   1.00
O269   O     0.39620   0.66574   0.42600   0.00000  Uiso   1.00
O270   O     0.18212   0.57963   0.29197   0.00000  Uiso   1.00
N271   N     0.77429   0.00810   0.38825   0.00000  Uiso   1.00
N272   N     0.47844   0.72971   0.37070   0.00000  Uiso   1.00
N273   N     0.03848   0.66834   0.27518   0.00000  Uiso   1.00
N274   N     0.83996   0.93853   0.47789   0.00000  Uiso   1.00
N275   N     0.54412   0.66014   0.46034   0.00000  Uiso   1.00
N276   N     0.10415   0.59876   0.36482   0.00000  Uiso   1.00
C277   C     0.64704   0.48232   0.27817   0.00000  Uiso   1.00
C278   C     0.63522   0.41307   0.29016   0.00000  Uiso   1.00
C279   C     0.69005   0.36067   0.27499   0.00000  Uiso   1.00
C280   C     0.66797   0.30127   0.28982   0.00000  Uiso   1.00
C281   C     0.66094   0.19475   0.30405   0.00000  Uiso   1.00
C282   C     0.65939   0.48743   0.33657   0.00000  Uiso   1.00
C283   C     0.73454   0.49757   0.36042   0.00000  Uiso   1.00
C284   C     0.73279   0.50078   0.41432   0.00000  Uiso   1.00
C285   C     0.76325   0.50977   0.50059   0.00000  Uiso   1.00
C286   C     0.55283   0.53801   0.24433   0.00000  Uiso   1.00
C287   C     0.53837   0.59069   0.19063   0.00000  Uiso   1.00
C288   C     0.44690   0.63649   0.16687   0.00000  Uiso   1.00
C289   C     0.31191   0.72400   0.10992   0.00000  Uiso   1.00
C290   C     0.51032   0.47000   0.33149   0.00000  Uiso   1.00
C291   C     0.56096   0.40638   0.31912   0.00000  Uiso   1.00
C292   C     0.53879   0.34705   0.33397   0.00000  Uiso   1.00
C293   C     0.59357   0.29457   0.31883   0.00000  Uiso   1.00
C294   C     0.58513   0.48074   0.36553   0.00000  Uiso   1.00
C295   C     0.58327   0.48395   0.41941   0.00000  Uiso   1.00
C296   C     0.65840   0.49409   0.44333   0.00000  Uiso   1.00
C297   C     0.47856   0.53132   0.27329   0.00000  Uiso   1.00
C298   C     0.38710   0.57706   0.24961   0.00000  Uiso   1.00
C299   C     0.37251   0.62979   0.19588   0.00000  Uiso   1.00
H300   H     0.70486   0.48752   0.25563   0.00000  Uiso   1.00
H301   H     0.74752   0.36586   0.25259   0.00000  Uiso   1.00
H302   H     0.79199   0.50275   0.33800   0.00000  Uiso   1.00
H303   H     0.59585   0.59585   0.16823   0.00000  Uiso   1.00
H304   H     0.76209   0.22802   0.26200   0.00000  Uiso   1.00
H305   H     0.85585   0.51668   0.44209   0.00000  Uiso   1.00
H306   H     0.44225   0.71299   0.08410   0.00000  Uiso   1.00
H307   H     0.45250   0.46480   0.35403   0.00000  Uiso   1.00
H308   H     0.48132   0.34189   0.35638   0.00000  Uiso   1.00
H309   H     0.52579   0.47877   0.44180   0.00000  Uiso   1.00
H310   H     0.32965   0.57187   0.27203   0.00000  Uiso   1.00
H311   H     0.54604   0.20856   0.34624   0.00000  Uiso   1.00
H312   H     0.63979   0.49722   0.52634   0.00000  Uiso   1.00
H313   H     0.22619   0.69353   0.16835   0.00000  Uiso   1.00
O314   O     0.67759   0.13783   0.30391   0.00000  Uiso   1.00
O315   O     0.80058   0.51656   0.54018   0.00000  Uiso   1.00
O316   O     0.25796   0.77411   0.07051   0.00000  Uiso   1.00
N317   N     0.70728   0.24031   0.28149   0.00000  Uiso   1.00
N318   N     0.79494   0.51018   0.44987   0.00000  Uiso   1.00
N319   N     0.40827   0.69373   0.11519   0.00000  Uiso   1.00
N320   N     0.59102   0.22984   0.32682   0.00000  Uiso   1.00
N321   N     0.67868   0.49971   0.49521   0.00000  Uiso   1.00
N322   N     0.29201   0.68326   0.16052   0.00000  Uiso   1.00
C323   C     0.64009   0.77131   0.64594   0.00000  Uiso   1.00
C324   C     0.74673   0.74148   0.65438   0.00000  Uiso   1.00
C325   C     0.80287   0.67231   0.68402   0.00000  Uiso   1.00
C326   C     0.89894   0.65545   0.68690   0.00000  Uiso   1.00
C327   C     0.05868   0.60143   0.70393   0.00000  Uiso   1.00
C328   C     0.60498   0.80854   0.58095   0.00000  Uiso   1.00
C329   C     0.54192   0.79576   0.54885   0.00000  Uiso   1.00
C330   C     0.51865   0.83536   0.48991   0.00000  Uiso   1.00
C331   C     0.45827   0.88549   0.39293   0.00000  Uiso   1.00
C332   C     0.61706   0.82771   0.66985   0.00000  Uiso   1.00
C333   C     0.56413   0.83105   0.71249   0.00000  Uiso   1.00
C334   C     0.55101   0.88680   0.72840   0.00000  Uiso   1.00
C335   C     0.50937   0.96669   0.76946   0.00000  Uiso   1.00
C336   C     0.71087   0.86439   0.59835   0.00000  Uiso   1.00
C337   C     0.78518   0.79204   0.62853   0.00000  Uiso   1.00
C338   C     0.88119   0.77528   0.63137   0.00000  Uiso   1.00
C339   C     0.93746   0.70610   0.66101   0.00000  Uiso   1.00
C340   C     0.64342   0.85909   0.55510   0.00000  Uiso   1.00
C341   C     0.62024   0.89873   0.49620   0.00000  Uiso   1.00
C342   C     0.55717   0.88601   0.46401   0.00000  Uiso   1.00
C343   C     0.65550   0.87826   0.64401   0.00000  Uiso   1.00
C344   C     0.64245   0.93402   0.65985   0.00000  Uiso   1.00
C345   C     0.58952   0.93745   0.70250   0.00000  Uiso   1.00
H346   H     0.61015   0.73196   0.66605   0.00000  Uiso   1.00
H347   H     0.77309   0.63320   0.70402   0.00000  Uiso   1.00
H348   H     0.51218   0.75664   0.56886   0.00000  Uiso   1.00
H349   H     0.53439   0.79192   0.73249   0.00000  Uiso   1.00
H350   H     0.97069   0.54599   0.73468   0.00000  Uiso   1.00
H351   H     0.42051   0.80629   0.44971   0.00000  Uiso   1.00
H352   H     0.46735   0.88069   0.79474   0.00000  Uiso   1.00
H353   H     0.74080   0.90375   0.57822   0.00000  Uiso   1.00
H354   H     0.91092   0.81441   0.61137   0.00000  Uiso   1.00
H355   H     0.65000   0.93785   0.47621   0.00000  Uiso   1.00
H356   H     0.67221   0.97314   0.63983   0.00000  Uiso   1.00
H357   H     0.08256   0.69307   0.65948   0.00000  Uiso   1.00
H358   H     0.53237   0.95337   0.37451   0.00000  Uiso   1.00
H359   H     0.57921   0.02777   0.71954   0.00000  Uiso   1.00
O360   O     0.13617   0.55766   0.72045   0.00000  Uiso   1.00
O361   O     0.41434   0.89916   0.34658   0.00000  Uiso   1.00
O362   O     0.47580   0.99678   0.79926   0.00000  Uiso   1.00
N363   N     0.97367   0.59287   0.71245   0.00000  Uiso   1.00
N364   N     0.45930   0.83622   0.44601   0.00000  Uiso   1.00
N365   N     0.50307   0.90579   0.76858   0.00000  Uiso   1.00
N366   N     0.03387   0.67201   0.67198   0.00000  Uiso   1.00
N367   N     0.51950   0.91536   0.40555   0.00000  Uiso   1.00
N368   N     0.56326   0.98494   0.72811   0.00000  Uiso   1.00
C369   C     0.20096   0.35674   0.16410   0.00000  Uiso   1.00
C370   C     0.24926   0.34543   0.11521   0.00000  Uiso   1.00
C371   C     0.34085   0.30212   0.12138   0.00000  Uiso   1.00
C372   C     0.37196   0.29892   0.07137   0.00000  Uiso   1.00
C373   C     0.45584   0.27544   0.00372   0.00000  Uiso   1.00
C374   C     0.11302   0.33913   0.15967   0.00000  Uiso   1.00
C375   C     0.09005   0.29053   0.20323   0.00000  Uiso   1.00
C376   C     0.00645   0.28203   0.19064   0.00000  Uiso   1.00
C377   C     0.87878   0.24880   0.19202   0.00000  Uiso   1.00
C378   C     0.16683   0.43454   0.14902   0.00000  Uiso   1.00
C379   C     0.18909   0.46618   0.18362   0.00000  Uiso   1.00
C380   C     0.15079   0.53802   0.16206   0.00000  Uiso   1.00
C381   C     0.10668   0.65294   0.14690   0.00000  Uiso   1.00
C382   C     0.09333   0.42807   0.06430   0.00000  Uiso   1.00
C383   C     0.19080   0.38417   0.06101   0.00000  Uiso   1.00
C384   C     0.22178   0.38104   0.01097   0.00000  Uiso   1.00
C385   C     0.31340   0.33774   0.01707   0.00000  Uiso   1.00
C386   C     0.05456   0.37787   0.10547   0.00000  Uiso   1.00
C387   C     0.97097   0.36945   0.09282   0.00000  Uiso   1.00
C388   C     0.94789   0.32085   0.13634   0.00000  Uiso   1.00
C389   C     0.10838   0.47329   0.09481   0.00000  Uiso   1.00
C390   C     0.07002   0.54510   0.07321   0.00000  Uiso   1.00
C391   C     0.09222   0.57683   0.10776   0.00000  Uiso   1.00
H392   H     0.24646   0.32658   0.20629   0.00000  Uiso   1.00
H393   H     0.38606   0.27214   0.16334   0.00000  Uiso   1.00
H394   H     0.13529   0.26056   0.24517   0.00000  Uiso   1.00
H395   H     0.23433   0.43618   0.22556   0.00000  Uiso   1.00
H396   H     0.51505   0.22886   0.09181   0.00000  Uiso   1.00
H397   H     0.98627   0.20445   0.26436   0.00000  Uiso   1.00
H398   H     0.19511   0.57478   0.22301   0.00000  Uiso   1.00
H399   H     0.04782   0.45824   0.02210   0.00000  Uiso   1.00
H400   H     0.17652   0.41103   0.96904   0.00000  Uiso   1.00
H401   H     0.92575   0.39944   0.05087   0.00000  Uiso   1.00
H402   H     0.02479   0.57506   0.03126   0.00000  Uiso   1.00
H403   H     0.34498   0.34158   0.93411   0.00000  Uiso   1.00
H404   H     0.81620   0.31717   0.10666   0.00000  Uiso   1.00
H405   H     0.02503   0.68750   0.06531   0.00000  Uiso   1.00
O406   O     0.51825   0.25177   0.98137   0.00000  Uiso   1.00
O407   O     0.82451   0.21976   0.20776   0.00000  Uiso   1.00
O408   O     0.09850   0.70562   0.15351   0.00000  Uiso   1.00
N409   N     0.45737   0.26188   0.06197   0.00000  Uiso   1.00
N410   N     0.96300   0.23905   0.22330   0.00000  Uiso   1.00
N411   N     0.15822   0.58528   0.18465   0.00000  Uiso   1.00
N412   N     0.36585   0.32254   0.97712   0.00000  Uiso   1.00
N413   N     0.87148   0.29970   0.13844   0.00000  Uiso   1.00
N414   N     0.06671   0.64593   0.09979   0.00000  Uiso   1.00
C415   C     0.03743   0.85641   0.30888   0.00000  Uiso   1.00
C416   C     0.12336   0.86067   0.28189   0.00000  Uiso   1.00
C417   C     0.17303   0.81690   0.25698   0.00000  Uiso   1.00
C418   C     0.24961   0.82937   0.23469   0.00000  Uiso   1.00
C419   C     0.37912   0.82771   0.19242   0.00000  Uiso   1.00
C420   C     0.06145   0.84987   0.37053   0.00000  Uiso   1.00
C421   C     0.05906   0.79702   0.42014   0.00000  Uiso   1.00
C422   C     0.08351   0.80040   0.47246   0.00000  Uiso   1.00
C423   C     0.11684   0.78200   0.56780   0.00000  Uiso   1.00
C424   C     0.96016   0.92718   0.27745   0.00000  Uiso   1.00
C425   C     0.87259   0.93933   0.24881   0.00000  Uiso   1.00
C426   C     0.81176   0.00779   0.22278   0.00000  Uiso   1.00
C427   C     0.68783   0.10942   0.17361   0.00000  Uiso   1.00
C428   C     0.08510   0.95638   0.31359   0.00000  Uiso   1.00
C429   C     0.14925   0.91497   0.28446   0.00000  Uiso   1.00
C430   C     0.22577   0.92751   0.26219   0.00000  Uiso   1.00
C431   C     0.27555   0.88377   0.23725   0.00000  Uiso   1.00
C432   C     0.08734   0.90417   0.37309   0.00000  Uiso   1.00
C433   C     0.11180   0.90763   0.42535   0.00000  Uiso   1.00
C434   C     0.10945   0.85479   0.47502   0.00000  Uiso   1.00
C435   C     0.98605   0.98148   0.28001   0.00000  Uiso   1.00
C436   C     0.92534   0.04993   0.25402   0.00000  Uiso   1.00
C437   C     0.83770   0.06219   0.22535   0.00000  Uiso   1.00
H438   H     0.01728   0.81413   0.30689   0.00000  Uiso   1.00
H439   H     0.15298   0.77488   0.25501   0.00000  Uiso   1.00
H440   H     0.03901   0.75501   0.41814   0.00000  Uiso   1.00
H441   H     0.85258   0.89730   0.24684   0.00000  Uiso   1.00
H442   H     0.31487   0.75530   0.19864   0.00000  Uiso   1.00
H443   H     0.07453   0.71341   0.54261   0.00000  Uiso   1.00
H444   H     0.68141   0.01345   0.18139   0.00000  Uiso   1.00
H445   H     0.10525   0.99865   0.31559   0.00000  Uiso   1.00
H446   H     0.24579   0.96953   0.26418   0.00000  Uiso   1.00
H447   H     0.13182   0.94966   0.42731   0.00000  Uiso   1.00
H448   H     0.94539   0.09194   0.25601   0.00000  Uiso   1.00
H449   H     0.39020   0.91328   0.20608   0.00000  Uiso   1.00
H450   H     0.14986   0.87139   0.55006   0.00000  Uiso   1.00
H451   H     0.75674   0.17143   0.18884   0.00000  Uiso   1.00
O452   O     0.44341   0.81180   0.16841   0.00000  Uiso   1.00
O453   O     0.12808   0.75684   0.61968   0.00000  Uiso   1.00
O454   O     0.61232   0.15048   0.14577   0.00000  Uiso   1.00
N455   N     0.31330   0.79649   0.20744   0.00000  Uiso   1.00
N456   N     0.08862   0.75732   0.52903   0.00000  Uiso   1.00
N457   N     0.72107   0.03782   0.19133   0.00000  Uiso   1.00
N458   N     0.35383   0.88150   0.21144   0.00000  Uiso   1.00
N459   N     0.12915   0.84232   0.53303   0.00000  Uiso   1.00
N460   N     0.76160   0.12283   0.19534   0.00000  Uiso   1.00
C461   C     0.88695   0.86768   0.05870   0.00000  Uiso   1.00
C462   C     0.82028   0.83665   0.09155   0.00000  Uiso   1.00
C463   C     0.84658   0.77432   0.13911   0.00000  Uiso   1.00
C464   C     0.77501   0.75497   0.16302   0.00000  Uiso   1.00
C465   C     0.68585   0.70045   0.21749   0.00000  Uiso   1.00
C466   C     0.85909   0.87920   0.99602   0.00000  Uiso   1.00
C467   C     0.91801   0.85265   0.96326   0.00000  Uiso   1.00
C468   C     0.87911   0.86914   0.90675   0.00000  Uiso   1.00
C469   C     0.85022   0.88072   0.81289   0.00000  Uiso   1.00
C470   C     0.86235   0.93962   0.05966   0.00000  Uiso   1.00
C471   C     0.92402   0.96388   0.08040   0.00000  Uiso   1.00
C472   C     0.88787   0.03125   0.07745   0.00000  Uiso   1.00
C473   C     0.86405   0.13663   0.08241   0.00000  Uiso   1.00
C474   C     0.71310   0.94418   0.01657   0.00000  Uiso   1.00
C475   C     0.72586   0.87820   0.06866   0.00000  Uiso   1.00
C476   C     0.65423   0.85895   0.09251   0.00000  Uiso   1.00
C477   C     0.68041   0.79660   0.14011   0.00000  Uiso   1.00
C478   C     0.76466   0.92075   0.97313   0.00000  Uiso   1.00
C479   C     0.72567   0.93729   0.91666   0.00000  Uiso   1.00
C480   C     0.78451   0.91077   0.88383   0.00000  Uiso   1.00
C481   C     0.76792   0.98117   0.03678   0.00000  Uiso   1.00
C482   C     0.73167   0.04851   0.03380   0.00000  Uiso   1.00
C483   C     0.79328   0.07287   0.05453   0.00000  Uiso   1.00
H484   H     0.96047   0.83534   0.07651   0.00000  Uiso   1.00
H485   H     0.91966   0.74217   0.15680   0.00000  Uiso   1.00
H486   H     0.99109   0.82051   0.98098   0.00000  Uiso   1.00
H487   H     0.99709   0.93171   0.09810   0.00000  Uiso   1.00
H488   H     0.83277   0.65719   0.23573   0.00000  Uiso   1.00
H489   H     0.98338   0.82238   0.86498   0.00000  Uiso   1.00
H490   H     0.99605   0.05689   0.11195   0.00000  Uiso   1.00
H491   H     0.63958   0.97653   0.99876   0.00000  Uiso   1.00
H492   H     0.58116   0.89111   0.07479   0.00000  Uiso   1.00
H493   H     0.65259   0.96945   0.89897   0.00000  Uiso   1.00
H494   H     0.65860   0.08065   0.01609   0.00000  Uiso   1.00
H495   H     0.55803   0.77808   0.16916   0.00000  Uiso   1.00
H496   H     0.70865   0.94327   0.79841   0.00000  Uiso   1.00
H497   H     0.72132   0.17777   0.04539   0.00000  Uiso   1.00
O498   O     0.66276   0.65889   0.25386   0.00000  Uiso   1.00
O499   O     0.86037   0.87562   0.76745   0.00000  Uiso   1.00
O500   O     0.87698   0.18328   0.09147   0.00000  Uiso   1.00
N501   N     0.77613   0.69737   0.20963   0.00000  Uiso   1.00
N502   N     0.91694   0.85181   0.86301   0.00000  Uiso   1.00
N503   N     0.92879   0.07106   0.09389   0.00000  Uiso   1.00
N504   N     0.62829   0.76242   0.17382   0.00000  Uiso   1.00
N505   N     0.76911   0.91685   0.82719   0.00000  Uiso   1.00
N506   N     0.78096   0.13610   0.05808   0.00000  Uiso   1.00
C507   C     0.24200   0.19181   0.66318   0.00000  Uiso   1.00
C508   C     0.22145   0.15372   0.62710   0.00000  Uiso   1.00
C509   C     0.24076   0.08294   0.64670   0.00000  Uiso   1.00
C510   C     0.21662   0.05813   0.60697   0.00000  Uiso   1.00
C511   C     0.19113   0.99222   0.55965   0.00000  Uiso   1.00
C512   C     0.30300   0.23044   0.63194   0.00000  Uiso   1.00
C513   C     0.39087   0.22416   0.65560   0.00000  Uiso   1.00
C514   C     0.43536   0.26395   0.61993   0.00000  Uiso   1.00
C515   C     0.53645   0.31718   0.58013   0.00000  Uiso   1.00
C516   C     0.14865   0.24734   0.65826   0.00000  Uiso   1.00
C517   C     0.10675   0.25530   0.70406   0.00000  Uiso   1.00
C518   C     0.02129   0.30933   0.69055   0.00000  Uiso   1.00
C519   C     0.88273   0.38881   0.69163   0.00000  Uiso   1.00
C520   C     0.16478   0.27363   0.55777   0.00000  Uiso   1.00
C521   C     0.17951   0.19816   0.56985   0.00000  Uiso   1.00
C522   C     0.15532   0.17346   0.53007   0.00000  Uiso   1.00
C523   C     0.17459   0.10265   0.54960   0.00000  Uiso   1.00
C524   C     0.26106   0.27488   0.57468   0.00000  Uiso   1.00
C525   C     0.30542   0.31468   0.53897   0.00000  Uiso   1.00
C526   C     0.39334   0.30847   0.56257   0.00000  Uiso   1.00
C527   C     0.10670   0.29178   0.60100   0.00000  Uiso   1.00
C528   C     0.02130   0.34582   0.58743   0.00000  Uiso   1.00
C529   C     0.97927   0.35385   0.63319   0.00000  Uiso   1.00
H530   H     0.27467   0.15721   0.70776   0.00000  Uiso   1.00
H531   H     0.27324   0.04856   0.69101   0.00000  Uiso   1.00
H532   H     0.42331   0.18977   0.69991   0.00000  Uiso   1.00
H533   H     0.13923   0.22090   0.74836   0.00000  Uiso   1.00
H534   H     0.25318   0.94770   0.64719   0.00000  Uiso   1.00
H535   H     0.56961   0.24546   0.66597   0.00000  Uiso   1.00
H536   H     0.97057   0.31110   0.76813   0.00000  Uiso   1.00
H537   H     0.13212   0.30823   0.51319   0.00000  Uiso   1.00
H538   H     0.12286   0.20786   0.48576   0.00000  Uiso   1.00
H539   H     0.27294   0.34907   0.49467   0.00000  Uiso   1.00
H540   H     0.98886   0.38020   0.54311   0.00000  Uiso   1.00
H541   H     0.13113   0.07699   0.48060   0.00000  Uiso   1.00
H542   H     0.44756   0.37476   0.49938   0.00000  Uiso   1.00
H543   H     0.84852   0.44039   0.60154   0.00000  Uiso   1.00
O544   O     0.18867   0.94359   0.54937   0.00000  Uiso   1.00
O545   O     0.60380   0.33426   0.57400   0.00000  Uiso   1.00
O546   O     0.81788   0.42037   0.70803   0.00000  Uiso   1.00
N547   N     0.22571   0.99190   0.61175   0.00000  Uiso   1.00
N548   N     0.52156   0.27029   0.62930   0.00000  Uiso   1.00
N549   N     0.96152   0.33166   0.72482   0.00000  Uiso   1.00
N550   N     0.16004   0.06147   0.52211   0.00000  Uiso   1.00
N551   N     0.45588   0.33986   0.53966   0.00000  Uiso   1.00
N552   N     0.89585   0.40124   0.63518   0.00000  Uiso   1.00
