data_job_02783
_audit_creation_date              2018-12-19
_audit_creation_method            'Materials Studio'
_symmetry_space_group_name_H-M    'P1'
_symmetry_Int_Tables_number       1
_symmetry_cell_setting            triclinic
loop_
_symmetry_equiv_pos_as_xyz
  x,y,z
_cell_length_a                    18.9655
_cell_length_b                    12.1803
_cell_length_c                    28.2941
_cell_angle_alpha                 90.0000
_cell_angle_beta                  90.0000
_cell_angle_gamma                 90.0000
loop_
_atom_site_label
_atom_site_type_symbol
_atom_site_fract_x
_atom_site_fract_y
_atom_site_fract_z
_atom_site_U_iso_or_equiv
_atom_site_adp_type
_atom_site_occupancy
C1     C     0.55028   0.59082   0.80944   0.00000  Uiso   1.00
C2     C     0.53975   0.67730   0.84777   0.00000  Uiso   1.00
C3     C     0.50923   0.77980   0.84142   0.00000  Uiso   1.00
C4     C     0.50443   0.84703   0.88091   0.00000  Uiso   1.00
C5     C     0.48432   0.98652   0.93369   0.00000  Uiso   1.00
C6     C     0.62892   0.56468   0.80915   0.00000  Uiso   1.00
C7     C     0.67337   0.57248   0.77033   0.00000  Uiso   1.00
C8     C     0.74363   0.54489   0.77732   0.00000  Uiso   1.00
C9     C     0.86195   0.50946   0.77014   0.00000  Uiso   1.00
C10    C     0.51354   0.48740   0.82720   0.00000  Uiso   1.00
C11    C     0.46100   0.43019   0.80356   0.00000  Uiso   1.00
C12    C     0.43413   0.33752   0.82575   0.00000  Uiso   1.00
C13    C     0.37331   0.18210   0.84660   0.00000  Uiso   1.00
C14    C     0.59602   0.52794   0.89087   0.00000  Uiso   1.00
C15    C     0.56459   0.64314   0.89200   0.00000  Uiso   1.00
C16    C     0.55983   0.71023   0.93151   0.00000  Uiso   1.00
C17    C     0.52931   0.81281   0.92523   0.00000  Uiso   1.00
C18    C     0.65376   0.53053   0.85338   0.00000  Uiso   1.00
C19    C     0.72397   0.50291   0.86043   0.00000  Uiso   1.00
C20    C     0.76852   0.51067   0.82163   0.00000  Uiso   1.00
C21    C     0.53838   0.45324   0.87144   0.00000  Uiso   1.00
C22    C     0.51159   0.36063   0.89366   0.00000  Uiso   1.00
C23    C     0.45902   0.30330   0.87006   0.00000  Uiso   1.00
H24    H     0.53095   0.61741   0.77500   0.00000  Uiso   1.00
H25    H     0.49002   0.80621   0.80718   0.00000  Uiso   1.00
H26    H     0.65413   0.59890   0.73611   0.00000  Uiso   1.00
H27    H     0.44179   0.45665   0.76933   0.00000  Uiso   1.00
H28    H     0.45562   0.00047   0.86236   0.00000  Uiso   1.00
H29    H     0.80165   0.56333   0.71249   0.00000  Uiso   1.00
H30    H     0.35388   0.26335   0.78255   0.00000  Uiso   1.00
H31    H     0.61536   0.50135   0.92531   0.00000  Uiso   1.00
H32    H     0.57906   0.68378   0.96574   0.00000  Uiso   1.00
H33    H     0.74317   0.47648   0.89466   0.00000  Uiso   1.00
H34    H     0.53083   0.33422   0.92789   0.00000  Uiso   1.00
H35    H     0.52789   0.90111   0.99105   0.00000  Uiso   1.00
H36    H     0.87392   0.46396   0.84118   0.00000  Uiso   1.00
H37    H     0.42616   0.16399   0.91124   0.00000  Uiso   1.00
O38    O     0.46638   0.07291   0.95058   0.00000  Uiso   1.00
O39    O     0.92035   0.49937   0.75396   0.00000  Uiso   1.00
O40    O     0.33289   0.10582   0.84588   0.00000  Uiso   1.00
N41    N     0.47760   0.95204   0.88710   0.00000  Uiso   1.00
N42    N     0.80112   0.54336   0.74699   0.00000  Uiso   1.00
N43    N     0.38251   0.26289   0.81248   0.00000  Uiso   1.00
N44    N     0.51649   0.89858   0.95635   0.00000  Uiso   1.00
N45    N     0.84001   0.48989   0.81623   0.00000  Uiso   1.00
N46    N     0.42140   0.20942   0.88173   0.00000  Uiso   1.00
C47    C     0.94972   0.90918   0.30944   0.00000  Uiso   1.00
C48    C     0.96025   0.82270   0.34777   0.00000  Uiso   1.00
C49    C     0.99077   0.72020   0.34142   0.00000  Uiso   1.00
C50    C     0.99557   0.65297   0.38091   0.00000  Uiso   1.00
C51    C     0.01568   0.51348   0.43369   0.00000  Uiso   1.00
C52    C     0.87108   0.93532   0.30915   0.00000  Uiso   1.00
C53    C     0.82663   0.92752   0.27033   0.00000  Uiso   1.00
C54    C     0.75637   0.95511   0.27732   0.00000  Uiso   1.00
C55    C     0.63805   0.99054   0.27014   0.00000  Uiso   1.00
C56    C     0.98646   0.01260   0.32720   0.00000  Uiso   1.00
C57    C     0.03900   0.06981   0.30356   0.00000  Uiso   1.00
C58    C     0.06587   0.16248   0.32575   0.00000  Uiso   1.00
C59    C     0.12669   0.31790   0.34660   0.00000  Uiso   1.00
C60    C     0.90398   0.97206   0.39087   0.00000  Uiso   1.00
C61    C     0.93541   0.85686   0.39200   0.00000  Uiso   1.00
C62    C     0.94017   0.78977   0.43151   0.00000  Uiso   1.00
C63    C     0.97069   0.68719   0.42523   0.00000  Uiso   1.00
C64    C     0.84624   0.96947   0.35338   0.00000  Uiso   1.00
C65    C     0.77603   0.99709   0.36043   0.00000  Uiso   1.00
C66    C     0.73148   0.98933   0.32163   0.00000  Uiso   1.00
C67    C     0.96162   0.04676   0.37144   0.00000  Uiso   1.00
C68    C     0.98841   0.13937   0.39366   0.00000  Uiso   1.00
C69    C     0.04098   0.19670   0.37006   0.00000  Uiso   1.00
H70    H     0.96905   0.88259   0.27500   0.00000  Uiso   1.00
H71    H     0.00998   0.69379   0.30718   0.00000  Uiso   1.00
H72    H     0.84587   0.90110   0.23611   0.00000  Uiso   1.00
H73    H     0.05821   0.04335   0.26933   0.00000  Uiso   1.00
H74    H     0.04438   0.49953   0.36236   0.00000  Uiso   1.00
H75    H     0.69835   0.93667   0.21249   0.00000  Uiso   1.00
H76    H     0.14612   0.23665   0.28255   0.00000  Uiso   1.00
H77    H     0.88464   0.99865   0.42531   0.00000  Uiso   1.00
H78    H     0.92094   0.81622   0.46574   0.00000  Uiso   1.00
H79    H     0.75683   0.02352   0.39466   0.00000  Uiso   1.00
H80    H     0.96917   0.16578   0.42789   0.00000  Uiso   1.00
H81    H     0.97211   0.59889   0.49105   0.00000  Uiso   1.00
H82    H     0.62608   0.03604   0.34118   0.00000  Uiso   1.00
H83    H     0.07384   0.33601   0.41124   0.00000  Uiso   1.00
O84    O     0.03362   0.42709   0.45058   0.00000  Uiso   1.00
O85    O     0.57965   0.00063   0.25396   0.00000  Uiso   1.00
O86    O     0.16711   0.39418   0.34588   0.00000  Uiso   1.00
N87    N     0.02240   0.54796   0.38710   0.00000  Uiso   1.00
N88    N     0.69888   0.95664   0.24699   0.00000  Uiso   1.00
N89    N     0.11749   0.23711   0.31248   0.00000  Uiso   1.00
N90    N     0.98351   0.60142   0.45635   0.00000  Uiso   1.00
N91    N     0.65999   0.01011   0.31623   0.00000  Uiso   1.00
N92    N     0.07860   0.29058   0.38173   0.00000  Uiso   1.00
C93    C     0.44972   0.59082   0.69056   0.00000  Uiso   1.00
C94    C     0.46025   0.67730   0.65223   0.00000  Uiso   1.00
C95    C     0.49077   0.77980   0.65858   0.00000  Uiso   1.00
C96    C     0.49557   0.84703   0.61909   0.00000  Uiso   1.00
C97    C     0.51568   0.98652   0.56631   0.00000  Uiso   1.00
C98    C     0.37108   0.56468   0.69085   0.00000  Uiso   1.00
C99    C     0.32663   0.57248   0.72967   0.00000  Uiso   1.00
C100   C     0.25637   0.54489   0.72268   0.00000  Uiso   1.00
C101   C     0.13805   0.50946   0.72986   0.00000  Uiso   1.00
C102   C     0.48646   0.48740   0.67280   0.00000  Uiso   1.00
C103   C     0.53900   0.43019   0.69644   0.00000  Uiso   1.00
C104   C     0.56587   0.33752   0.67425   0.00000  Uiso   1.00
C105   C     0.62669   0.18210   0.65340   0.00000  Uiso   1.00
C106   C     0.40398   0.52794   0.60913   0.00000  Uiso   1.00
C107   C     0.43541   0.64314   0.60800   0.00000  Uiso   1.00
C108   C     0.44017   0.71023   0.56849   0.00000  Uiso   1.00
C109   C     0.47069   0.81281   0.57477   0.00000  Uiso   1.00
C110   C     0.34624   0.53053   0.64662   0.00000  Uiso   1.00
C111   C     0.27603   0.50291   0.63957   0.00000  Uiso   1.00
C112   C     0.23148   0.51067   0.67837   0.00000  Uiso   1.00
C113   C     0.46162   0.45324   0.62856   0.00000  Uiso   1.00
C114   C     0.48841   0.36063   0.60634   0.00000  Uiso   1.00
C115   C     0.54098   0.30330   0.62994   0.00000  Uiso   1.00
H116   H     0.46905   0.61741   0.72500   0.00000  Uiso   1.00
H117   H     0.50998   0.80621   0.69282   0.00000  Uiso   1.00
H118   H     0.34587   0.59890   0.76389   0.00000  Uiso   1.00
H119   H     0.55821   0.45665   0.73067   0.00000  Uiso   1.00
H120   H     0.54438   0.00047   0.63764   0.00000  Uiso   1.00
H121   H     0.19835   0.56333   0.78751   0.00000  Uiso   1.00
H122   H     0.64612   0.26335   0.71745   0.00000  Uiso   1.00
H123   H     0.38464   0.50135   0.57469   0.00000  Uiso   1.00
H124   H     0.42094   0.68378   0.53426   0.00000  Uiso   1.00
H125   H     0.25683   0.47648   0.60534   0.00000  Uiso   1.00
H126   H     0.46917   0.33422   0.57211   0.00000  Uiso   1.00
H127   H     0.47211   0.90111   0.50895   0.00000  Uiso   1.00
H128   H     0.12608   0.46396   0.65882   0.00000  Uiso   1.00
H129   H     0.57384   0.16399   0.58876   0.00000  Uiso   1.00
O130   O     0.53362   0.07291   0.54942   0.00000  Uiso   1.00
O131   O     0.07965   0.49937   0.74604   0.00000  Uiso   1.00
O132   O     0.66711   0.10582   0.65412   0.00000  Uiso   1.00
N133   N     0.52240   0.95204   0.61290   0.00000  Uiso   1.00
N134   N     0.19888   0.54336   0.75301   0.00000  Uiso   1.00
N135   N     0.61749   0.26289   0.68752   0.00000  Uiso   1.00
N136   N     0.48351   0.89858   0.54365   0.00000  Uiso   1.00
N137   N     0.15999   0.48989   0.68377   0.00000  Uiso   1.00
N138   N     0.57860   0.20942   0.61827   0.00000  Uiso   1.00
C139   C     0.05028   0.90918   0.19056   0.00000  Uiso   1.00
C140   C     0.03975   0.82270   0.15223   0.00000  Uiso   1.00
C141   C     0.00923   0.72020   0.15858   0.00000  Uiso   1.00
C142   C     0.00443   0.65297   0.11909   0.00000  Uiso   1.00
C143   C     0.98432   0.51348   0.06631   0.00000  Uiso   1.00
C144   C     0.12892   0.93532   0.19085   0.00000  Uiso   1.00
C145   C     0.17337   0.92752   0.22967   0.00000  Uiso   1.00
C146   C     0.24363   0.95511   0.22268   0.00000  Uiso   1.00
C147   C     0.36195   0.99054   0.22986   0.00000  Uiso   1.00
C148   C     0.01354   0.01260   0.17280   0.00000  Uiso   1.00
C149   C     0.96100   0.06981   0.19644   0.00000  Uiso   1.00
C150   C     0.93413   0.16248   0.17425   0.00000  Uiso   1.00
C151   C     0.87331   0.31790   0.15340   0.00000  Uiso   1.00
C152   C     0.09602   0.97206   0.10913   0.00000  Uiso   1.00
C153   C     0.06459   0.85686   0.10800   0.00000  Uiso   1.00
C154   C     0.05983   0.78977   0.06849   0.00000  Uiso   1.00
C155   C     0.02931   0.68719   0.07477   0.00000  Uiso   1.00
C156   C     0.15376   0.96947   0.14662   0.00000  Uiso   1.00
C157   C     0.22397   0.99709   0.13957   0.00000  Uiso   1.00
C158   C     0.26852   0.98933   0.17837   0.00000  Uiso   1.00
C159   C     0.03838   0.04676   0.12856   0.00000  Uiso   1.00
C160   C     0.01159   0.13937   0.10634   0.00000  Uiso   1.00
C161   C     0.95902   0.19670   0.12994   0.00000  Uiso   1.00
H162   H     0.03095   0.88259   0.22500   0.00000  Uiso   1.00
H163   H     0.99002   0.69379   0.19282   0.00000  Uiso   1.00
H164   H     0.15413   0.90110   0.26389   0.00000  Uiso   1.00
H165   H     0.94179   0.04335   0.23067   0.00000  Uiso   1.00
H166   H     0.95562   0.49953   0.13764   0.00000  Uiso   1.00
H167   H     0.30165   0.93667   0.28751   0.00000  Uiso   1.00
H168   H     0.85388   0.23665   0.21745   0.00000  Uiso   1.00
H169   H     0.11536   0.99865   0.07469   0.00000  Uiso   1.00
H170   H     0.07906   0.81622   0.03426   0.00000  Uiso   1.00
H171   H     0.24317   0.02352   0.10534   0.00000  Uiso   1.00
H172   H     0.03083   0.16578   0.07211   0.00000  Uiso   1.00
H173   H     0.02789   0.59889   0.00895   0.00000  Uiso   1.00
H174   H     0.37392   0.03604   0.15882   0.00000  Uiso   1.00
H175   H     0.92616   0.33601   0.08876   0.00000  Uiso   1.00
O176   O     0.96638   0.42709   0.04942   0.00000  Uiso   1.00
O177   O     0.42035   0.00063   0.24604   0.00000  Uiso   1.00
O178   O     0.83289   0.39418   0.15412   0.00000  Uiso   1.00
N179   N     0.97760   0.54796   0.11290   0.00000  Uiso   1.00
N180   N     0.30112   0.95664   0.25301   0.00000  Uiso   1.00
N181   N     0.88251   0.23711   0.18752   0.00000  Uiso   1.00
N182   N     0.01649   0.60142   0.04365   0.00000  Uiso   1.00
N183   N     0.34001   0.01011   0.18377   0.00000  Uiso   1.00
N184   N     0.92140   0.29058   0.11827   0.00000  Uiso   1.00
C185   C     0.44972   0.40918   0.19056   0.00000  Uiso   1.00
C186   C     0.46025   0.32270   0.15223   0.00000  Uiso   1.00
C187   C     0.49077   0.22020   0.15858   0.00000  Uiso   1.00
C188   C     0.49557   0.15297   0.11909   0.00000  Uiso   1.00
C189   C     0.51568   0.01348   0.06631   0.00000  Uiso   1.00
C190   C     0.37108   0.43532   0.19085   0.00000  Uiso   1.00
C191   C     0.32663   0.42752   0.22967   0.00000  Uiso   1.00
C192   C     0.25637   0.45511   0.22268   0.00000  Uiso   1.00
C193   C     0.13805   0.49054   0.22986   0.00000  Uiso   1.00
C194   C     0.48646   0.51260   0.17280   0.00000  Uiso   1.00
C195   C     0.53900   0.56981   0.19644   0.00000  Uiso   1.00
C196   C     0.56587   0.66248   0.17425   0.00000  Uiso   1.00
C197   C     0.62669   0.81790   0.15340   0.00000  Uiso   1.00
C198   C     0.40398   0.47206   0.10913   0.00000  Uiso   1.00
C199   C     0.43541   0.35686   0.10800   0.00000  Uiso   1.00
C200   C     0.44017   0.28977   0.06849   0.00000  Uiso   1.00
C201   C     0.47069   0.18719   0.07477   0.00000  Uiso   1.00
C202   C     0.34624   0.46947   0.14662   0.00000  Uiso   1.00
C203   C     0.27603   0.49709   0.13957   0.00000  Uiso   1.00
C204   C     0.23148   0.48933   0.17837   0.00000  Uiso   1.00
C205   C     0.46162   0.54676   0.12856   0.00000  Uiso   1.00
C206   C     0.48841   0.63937   0.10634   0.00000  Uiso   1.00
C207   C     0.54098   0.69670   0.12994   0.00000  Uiso   1.00
H208   H     0.46905   0.38259   0.22500   0.00000  Uiso   1.00
H209   H     0.50998   0.19379   0.19282   0.00000  Uiso   1.00
H210   H     0.34587   0.40110   0.26389   0.00000  Uiso   1.00
H211   H     0.55821   0.54335   0.23067   0.00000  Uiso   1.00
H212   H     0.54438   0.99953   0.13764   0.00000  Uiso   1.00
H213   H     0.19835   0.43667   0.28751   0.00000  Uiso   1.00
H214   H     0.64612   0.73665   0.21745   0.00000  Uiso   1.00
H215   H     0.38464   0.49865   0.07469   0.00000  Uiso   1.00
H216   H     0.42094   0.31622   0.03426   0.00000  Uiso   1.00
H217   H     0.25683   0.52352   0.10534   0.00000  Uiso   1.00
H218   H     0.46917   0.66578   0.07211   0.00000  Uiso   1.00
H219   H     0.47211   0.09889   0.00895   0.00000  Uiso   1.00
H220   H     0.12608   0.53604   0.15882   0.00000  Uiso   1.00
H221   H     0.57384   0.83601   0.08876   0.00000  Uiso   1.00
O222   O     0.53362   0.92709   0.04942   0.00000  Uiso   1.00
O223   O     0.07965   0.50063   0.24604   0.00000  Uiso   1.00
O224   O     0.66711   0.89418   0.15412   0.00000  Uiso   1.00
N225   N     0.52240   0.04796   0.11290   0.00000  Uiso   1.00
N226   N     0.19888   0.45664   0.25301   0.00000  Uiso   1.00
N227   N     0.61749   0.73711   0.18752   0.00000  Uiso   1.00
N228   N     0.48351   0.10142   0.04365   0.00000  Uiso   1.00
N229   N     0.15999   0.51011   0.18377   0.00000  Uiso   1.00
N230   N     0.57860   0.79058   0.11827   0.00000  Uiso   1.00
C231   C     0.05028   0.09082   0.69056   0.00000  Uiso   1.00
C232   C     0.03975   0.17730   0.65223   0.00000  Uiso   1.00
C233   C     0.00923   0.27980   0.65858   0.00000  Uiso   1.00
C234   C     0.00443   0.34703   0.61909   0.00000  Uiso   1.00
C235   C     0.98432   0.48652   0.56631   0.00000  Uiso   1.00
C236   C     0.12892   0.06468   0.69085   0.00000  Uiso   1.00
C237   C     0.17337   0.07248   0.72967   0.00000  Uiso   1.00
C238   C     0.24363   0.04489   0.72268   0.00000  Uiso   1.00
C239   C     0.36195   0.00946   0.72986   0.00000  Uiso   1.00
C240   C     0.01354   0.98740   0.67280   0.00000  Uiso   1.00
C241   C     0.96100   0.93019   0.69644   0.00000  Uiso   1.00
C242   C     0.93413   0.83752   0.67425   0.00000  Uiso   1.00
C243   C     0.87331   0.68210   0.65340   0.00000  Uiso   1.00
C244   C     0.09602   0.02794   0.60913   0.00000  Uiso   1.00
C245   C     0.06459   0.14314   0.60800   0.00000  Uiso   1.00
C246   C     0.05983   0.21023   0.56849   0.00000  Uiso   1.00
C247   C     0.02931   0.31281   0.57477   0.00000  Uiso   1.00
C248   C     0.15376   0.03053   0.64662   0.00000  Uiso   1.00
C249   C     0.22397   0.00291   0.63957   0.00000  Uiso   1.00
C250   C     0.26852   0.01067   0.67837   0.00000  Uiso   1.00
C251   C     0.03838   0.95324   0.62856   0.00000  Uiso   1.00
C252   C     0.01159   0.86063   0.60634   0.00000  Uiso   1.00
C253   C     0.95902   0.80330   0.62994   0.00000  Uiso   1.00
H254   H     0.03095   0.11741   0.72500   0.00000  Uiso   1.00
H255   H     0.99002   0.30621   0.69282   0.00000  Uiso   1.00
H256   H     0.15413   0.09890   0.76389   0.00000  Uiso   1.00
H257   H     0.94179   0.95665   0.73067   0.00000  Uiso   1.00
H258   H     0.95562   0.50047   0.63764   0.00000  Uiso   1.00
H259   H     0.30165   0.06333   0.78751   0.00000  Uiso   1.00
H260   H     0.85388   0.76335   0.71745   0.00000  Uiso   1.00
H261   H     0.11536   0.00135   0.57469   0.00000  Uiso   1.00
H262   H     0.07906   0.18378   0.53426   0.00000  Uiso   1.00
H263   H     0.24317   0.97648   0.60534   0.00000  Uiso   1.00
H264   H     0.03083   0.83422   0.57211   0.00000  Uiso   1.00
H265   H     0.02789   0.40111   0.50895   0.00000  Uiso   1.00
H266   H     0.37392   0.96396   0.65882   0.00000  Uiso   1.00
H267   H     0.92616   0.66399   0.58876   0.00000  Uiso   1.00
O268   O     0.96638   0.57291   0.54942   0.00000  Uiso   1.00
O269   O     0.42035   0.99937   0.74604   0.00000  Uiso   1.00
O270   O     0.83289   0.60582   0.65412   0.00000  Uiso   1.00
N271   N     0.97760   0.45204   0.61290   0.00000  Uiso   1.00
N272   N     0.30112   0.04336   0.75301   0.00000  Uiso   1.00
N273   N     0.88251   0.76289   0.68752   0.00000  Uiso   1.00
N274   N     0.01649   0.39858   0.54365   0.00000  Uiso   1.00
N275   N     0.34001   0.98989   0.68377   0.00000  Uiso   1.00
N276   N     0.92140   0.70942   0.61827   0.00000  Uiso   1.00
C277   C     0.55028   0.40918   0.30944   0.00000  Uiso   1.00
C278   C     0.53975   0.32270   0.34777   0.00000  Uiso   1.00
C279   C     0.50923   0.22020   0.34142   0.00000  Uiso   1.00
C280   C     0.50443   0.15297   0.38091   0.00000  Uiso   1.00
C281   C     0.48432   0.01348   0.43369   0.00000  Uiso   1.00
C282   C     0.62892   0.43532   0.30915   0.00000  Uiso   1.00
C283   C     0.67337   0.42752   0.27033   0.00000  Uiso   1.00
C284   C     0.74363   0.45511   0.27732   0.00000  Uiso   1.00
C285   C     0.86195   0.49054   0.27014   0.00000  Uiso   1.00
C286   C     0.51354   0.51260   0.32720   0.00000  Uiso   1.00
C287   C     0.46100   0.56981   0.30356   0.00000  Uiso   1.00
C288   C     0.43413   0.66248   0.32575   0.00000  Uiso   1.00
C289   C     0.37331   0.81790   0.34660   0.00000  Uiso   1.00
C290   C     0.59602   0.47206   0.39087   0.00000  Uiso   1.00
C291   C     0.56459   0.35686   0.39200   0.00000  Uiso   1.00
C292   C     0.55983   0.28977   0.43151   0.00000  Uiso   1.00
C293   C     0.52931   0.18719   0.42523   0.00000  Uiso   1.00
C294   C     0.65376   0.46947   0.35338   0.00000  Uiso   1.00
C295   C     0.72397   0.49709   0.36043   0.00000  Uiso   1.00
C296   C     0.76852   0.48933   0.32163   0.00000  Uiso   1.00
C297   C     0.53838   0.54676   0.37144   0.00000  Uiso   1.00
C298   C     0.51159   0.63937   0.39366   0.00000  Uiso   1.00
C299   C     0.45902   0.69670   0.37006   0.00000  Uiso   1.00
H300   H     0.53095   0.38259   0.27500   0.00000  Uiso   1.00
H301   H     0.49002   0.19379   0.30718   0.00000  Uiso   1.00
H302   H     0.65413   0.40110   0.23611   0.00000  Uiso   1.00
H303   H     0.44179   0.54335   0.26933   0.00000  Uiso   1.00
H304   H     0.45562   0.99953   0.36236   0.00000  Uiso   1.00
H305   H     0.80165   0.43667   0.21249   0.00000  Uiso   1.00
H306   H     0.35388   0.73665   0.28255   0.00000  Uiso   1.00
H307   H     0.61536   0.49865   0.42531   0.00000  Uiso   1.00
H308   H     0.57906   0.31622   0.46574   0.00000  Uiso   1.00
H309   H     0.74317   0.52352   0.39466   0.00000  Uiso   1.00
H310   H     0.53083   0.66578   0.42789   0.00000  Uiso   1.00
H311   H     0.52789   0.09889   0.49105   0.00000  Uiso   1.00
H312   H     0.87392   0.53604   0.34118   0.00000  Uiso   1.00
H313   H     0.42616   0.83601   0.41124   0.00000  Uiso   1.00
O314   O     0.46638   0.92709   0.45058   0.00000  Uiso   1.00
O315   O     0.92035   0.50063   0.25396   0.00000  Uiso   1.00
O316   O     0.33289   0.89418   0.34588   0.00000  Uiso   1.00
N317   N     0.47760   0.04796   0.38710   0.00000  Uiso   1.00
N318   N     0.80112   0.45664   0.24699   0.00000  Uiso   1.00
N319   N     0.38251   0.73711   0.31248   0.00000  Uiso   1.00
N320   N     0.51649   0.10142   0.45635   0.00000  Uiso   1.00
N321   N     0.84001   0.51011   0.31623   0.00000  Uiso   1.00
N322   N     0.42140   0.79058   0.38173   0.00000  Uiso   1.00
C323   C     0.94972   0.09082   0.80944   0.00000  Uiso   1.00
C324   C     0.96025   0.17730   0.84777   0.00000  Uiso   1.00
C325   C     0.99077   0.27980   0.84142   0.00000  Uiso   1.00
C326   C     0.99557   0.34703   0.88091   0.00000  Uiso   1.00
C327   C     0.01568   0.48652   0.93369   0.00000  Uiso   1.00
C328   C     0.87108   0.06468   0.80915   0.00000  Uiso   1.00
C329   C     0.82663   0.07248   0.77033   0.00000  Uiso   1.00
C330   C     0.75637   0.04489   0.77732   0.00000  Uiso   1.00
C331   C     0.63805   0.00946   0.77014   0.00000  Uiso   1.00
C332   C     0.98646   0.98740   0.82720   0.00000  Uiso   1.00
C333   C     0.03900   0.93019   0.80356   0.00000  Uiso   1.00
C334   C     0.06587   0.83752   0.82575   0.00000  Uiso   1.00
C335   C     0.12669   0.68210   0.84660   0.00000  Uiso   1.00
C336   C     0.90398   0.02794   0.89087   0.00000  Uiso   1.00
C337   C     0.93541   0.14314   0.89200   0.00000  Uiso   1.00
C338   C     0.94017   0.21023   0.93151   0.00000  Uiso   1.00
C339   C     0.97069   0.31281   0.92523   0.00000  Uiso   1.00
C340   C     0.84624   0.03053   0.85338   0.00000  Uiso   1.00
C341   C     0.77603   0.00291   0.86043   0.00000  Uiso   1.00
C342   C     0.73148   0.01067   0.82163   0.00000  Uiso   1.00
C343   C     0.96162   0.95324   0.87144   0.00000  Uiso   1.00
C344   C     0.98841   0.86063   0.89366   0.00000  Uiso   1.00
C345   C     0.04098   0.80330   0.87006   0.00000  Uiso   1.00
H346   H     0.96905   0.11741   0.77500   0.00000  Uiso   1.00
H347   H     0.00998   0.30621   0.80718   0.00000  Uiso   1.00
H348   H     0.84587   0.09890   0.73611   0.00000  Uiso   1.00
H349   H     0.05821   0.95665   0.76933   0.00000  Uiso   1.00
H350   H     0.04438   0.50047   0.86236   0.00000  Uiso   1.00
H351   H     0.69835   0.06333   0.71249   0.00000  Uiso   1.00
H352   H     0.14612   0.76335   0.78255   0.00000  Uiso   1.00
H353   H     0.88464   0.00135   0.92531   0.00000  Uiso   1.00
H354   H     0.92094   0.18378   0.96574   0.00000  Uiso   1.00
H355   H     0.75683   0.97648   0.89466   0.00000  Uiso   1.00
H356   H     0.96917   0.83422   0.92789   0.00000  Uiso   1.00
H357   H     0.97211   0.40111   0.99105   0.00000  Uiso   1.00
H358   H     0.62608   0.96396   0.84118   0.00000  Uiso   1.00
H359   H     0.07384   0.66399   0.91124   0.00000  Uiso   1.00
O360   O     0.03362   0.57291   0.95058   0.00000  Uiso   1.00
O361   O     0.57965   0.99937   0.75396   0.00000  Uiso   1.00
O362   O     0.16711   0.60582   0.84588   0.00000  Uiso   1.00
N363   N     0.02240   0.45204   0.88710   0.00000  Uiso   1.00
N364   N     0.69888   0.04336   0.74699   0.00000  Uiso   1.00
N365   N     0.11749   0.76289   0.81248   0.00000  Uiso   1.00
N366   N     0.98351   0.39858   0.95635   0.00000  Uiso   1.00
N367   N     0.65999   0.98989   0.81623   0.00000  Uiso   1.00
N368   N     0.07860   0.70942   0.88173   0.00000  Uiso   1.00
