data_job_06868
_audit_creation_date              2018-12-19
_audit_creation_method            'Materials Studio'
_symmetry_space_group_name_H-M    'P1'
_symmetry_Int_Tables_number       1
_symmetry_cell_setting            triclinic
loop_
_symmetry_equiv_pos_as_xyz
  x,y,z
_cell_length_a                    21.6025
_cell_length_b                    21.9753
_cell_length_c                    23.8734
_cell_angle_alpha                 81.3705
_cell_angle_beta                  71.8654
_cell_angle_gamma                 118.1540
loop_
_atom_site_label
_atom_site_type_symbol
_atom_site_fract_x
_atom_site_fract_y
_atom_site_fract_z
_atom_site_U_iso_or_equiv
_atom_site_adp_type
_atom_site_occupancy
C1     C     0.57161   0.61449   0.04897   0.00000  Uiso   1.00
C2     C     0.50678   0.62692   0.07764   0.00000  Uiso   1.00
C3     C     0.45029   0.61686   0.05716   0.00000  Uiso   1.00
C4     C     0.39608   0.63119   0.08965   0.00000  Uiso   1.00
C5     C     0.29509   0.64695   0.12636   0.00000  Uiso   1.00
C6     C     0.64804   0.68712   0.03108   0.00000  Uiso   1.00
C7     C     0.71033   0.72767   0.97146   0.00000  Uiso   1.00
C8     C     0.77504   0.79267   0.96475   0.00000  Uiso   1.00
C9     C     0.89337   0.90187   0.92919   0.00000  Uiso   1.00
C10    C     0.56290   0.55912   0.10268   0.00000  Uiso   1.00
C11    C     0.55362   0.49205   0.10326   0.00000  Uiso   1.00
C12    C     0.54666   0.44928   0.15683   0.00000  Uiso   1.00
C13    C     0.53280   0.35973   0.23245   0.00000  Uiso   1.00
C14    C     0.57579   0.65781   0.14307   0.00000  Uiso   1.00
C15    C     0.50905   0.65046   0.12874   0.00000  Uiso   1.00
C16    C     0.45491   0.66480   0.16127   0.00000  Uiso   1.00
C17    C     0.39835   0.65476   0.14085   0.00000  Uiso   1.00
C18    C     0.65031   0.71066   0.08218   0.00000  Uiso   1.00
C19    C     0.71494   0.77561   0.07556   0.00000  Uiso   1.00
C20    C     0.77731   0.81625   0.01595   0.00000  Uiso   1.00
C21    C     0.56516   0.58265   0.15379   0.00000  Uiso   1.00
C22    C     0.55823   0.53998   0.20737   0.00000  Uiso   1.00
C23    C     0.54894   0.47286   0.20803   0.00000  Uiso   1.00
H24    H     0.56985   0.59617   0.00918   0.00000  Uiso   1.00
H25    H     0.44856   0.59865   0.01761   0.00000  Uiso   1.00
H26    H     0.70856   0.70944   0.93192   0.00000  Uiso   1.00
H27    H     0.55186   0.47385   0.06370   0.00000  Uiso   1.00
H28    H     0.31510   0.61182   0.04947   0.00000  Uiso   1.00
H29    H     0.86333   0.84540   0.86879   0.00000  Uiso   1.00
H30    H     0.53292   0.34862   0.14669   0.00000  Uiso   1.00
H31    H     0.57756   0.67614   0.18286   0.00000  Uiso   1.00
H32    H     0.45668   0.68301   0.20082   0.00000  Uiso   1.00
H33    H     0.71668   0.79380   0.11512   0.00000  Uiso   1.00
H34    H     0.55999   0.55821   0.24691   0.00000  Uiso   1.00
H35    H     0.32169   0.68029   0.19817   0.00000  Uiso   1.00
H36    H     0.86992   0.91387   0.01749   0.00000  Uiso   1.00
H37    H     0.53951   0.41709   0.29539   0.00000  Uiso   1.00
O38    O     0.23876   0.64916   0.13249   0.00000  Uiso   1.00
O39    O     0.95801   0.95560   0.89545   0.00000  Uiso   1.00
O40    O     0.52452   0.30383   0.26004   0.00000  Uiso   1.00
N41    N     0.33323   0.62697   0.08201   0.00000  Uiso   1.00
N42    N     0.84579   0.84537   0.91309   0.00000  Uiso   1.00
N43    N     0.53690   0.38093   0.17289   0.00000  Uiso   1.00
N44    N     0.33678   0.66382   0.16203   0.00000  Uiso   1.00
N45    N     0.84933   0.88221   0.99310   0.00000  Uiso   1.00
N46    N     0.54045   0.41777   0.25290   0.00000  Uiso   1.00
C47    C     0.80751   0.12915   0.82745   0.00000  Uiso   1.00
C48    C     0.89384   0.15834   0.80543   0.00000  Uiso   1.00
C49    C     0.95401   0.21200   0.74781   0.00000  Uiso   1.00
C50    C     0.02901   0.23111   0.73659   0.00000  Uiso   1.00
C51    C     0.16089   0.28149   0.69556   0.00000  Uiso   1.00
C52    C     0.76505   0.04580   0.84388   0.00000  Uiso   1.00
C53    C     0.71692   0.00483   0.81860   0.00000  Uiso   1.00
C54    C     0.68351   0.92920   0.83976   0.00000  Uiso   1.00
C55    C     0.61539   0.80484   0.85846   0.00000  Uiso   1.00
C56    C     0.78161   0.14118   0.88961   0.00000  Uiso   1.00
C57    C     0.74738   0.18039   0.90279   0.00000  Uiso   1.00
C58    C     0.72788   0.18504   0.96246   0.00000  Uiso   1.00
C59    C     0.68547   0.20877   0.05216   0.00000  Uiso   1.00
C60    C     0.83373   0.06767   0.90999   0.00000  Uiso   1.00
C61    C     0.90808   0.12494   0.85026   0.00000  Uiso   1.00
C62    C     0.98302   0.14398   0.83913   0.00000  Uiso   1.00
C63    C     0.04328   0.19766   0.78151   0.00000  Uiso   1.00
C64    C     0.77929   0.01240   0.88871   0.00000  Uiso   1.00
C65    C     0.74593   0.93681   0.90992   0.00000  Uiso   1.00
C66    C     0.69777   0.89574   0.88467   0.00000  Uiso   1.00
C67    C     0.79585   0.10778   0.93445   0.00000  Uiso   1.00
C68    C     0.77639   0.11236   0.99411   0.00000  Uiso   1.00
C69    C     0.74215   0.15158   0.00737   0.00000  Uiso   1.00
H70    H     0.79642   0.15515   0.79255   0.00000  Uiso   1.00
H71    H     0.94296   0.23783   0.71312   0.00000  Uiso   1.00
H72    H     0.70591   0.03069   0.78391   0.00000  Uiso   1.00
H73    H     0.73637   0.20622   0.86808   0.00000  Uiso   1.00
H74    H     0.11170   0.31475   0.64483   0.00000  Uiso   1.00
H75    H     0.61185   0.87798   0.79410   0.00000  Uiso   1.00
H76    H     0.67607   0.24812   0.97160   0.00000  Uiso   1.00
H77    H     0.84482   0.04166   0.94490   0.00000  Uiso   1.00
H78    H     0.99402   0.11812   0.87383   0.00000  Uiso   1.00
H79    H     0.75697   0.91098   0.94462   0.00000  Uiso   1.00
H80    H     0.78742   0.08651   0.02879   0.00000  Uiso   1.00
H81    H     0.15315   0.21759   0.77527   0.00000  Uiso   1.00
H82    H     0.65328   0.78082   0.92454   0.00000  Uiso   1.00
H83    H     0.71751   0.15096   0.10203   0.00000  Uiso   1.00
O84    O     0.22970   0.31850   0.66054   0.00000  Uiso   1.00
O85    O     0.57389   0.74547   0.85638   0.00000  Uiso   1.00
O86    O     0.65815   0.23109   0.08925   0.00000  Uiso   1.00
N87    N     0.10098   0.28140   0.68528   0.00000  Uiso   1.00
N88    N     0.63366   0.87305   0.82483   0.00000  Uiso   1.00
N89    N     0.69368   0.21909   0.99079   0.00000  Uiso   1.00
N90    N     0.12328   0.22912   0.75547   0.00000  Uiso   1.00
N91    N     0.65596   0.82077   0.89502   0.00000  Uiso   1.00
N92    N     0.71598   0.16680   0.06097   0.00000  Uiso   1.00
C93    C     0.10100   0.91306   0.66915   0.00000  Uiso   1.00
C94    C     0.05169   0.84697   0.73063   0.00000  Uiso   1.00
C95    C     0.01893   0.77358   0.73583   0.00000  Uiso   1.00
C96    C     0.97576   0.72128   0.79631   0.00000  Uiso   1.00
C97    C     0.90067   0.61555   0.88366   0.00000  Uiso   1.00
C98    C     0.06052   0.95444   0.67317   0.00000  Uiso   1.00
C99    C     0.03521   0.97142   0.63004   0.00000  Uiso   1.00
C100   C     0.99949   0.00960   0.64214   0.00000  Uiso   1.00
C101   C     0.93817   0.07077   0.64026   0.00000  Uiso   1.00
C102   C     0.17818   0.96356   0.67092   0.00000  Uiso   1.00
C103   C     0.25180   0.98822   0.62590   0.00000  Uiso   1.00
C104   C     0.31515   0.03409   0.63611   0.00000  Uiso   1.00
C105   C     0.43652   0.10942   0.63074   0.00000  Uiso   1.00
C106   C     0.08260   0.95071   0.76732   0.00000  Uiso   1.00
C107   C     0.04169   0.86742   0.78396   0.00000  Uiso   1.00
C108   C     0.99857   0.81522   0.84444   0.00000  Uiso   1.00
C109   C     0.96575   0.74176   0.84973   0.00000  Uiso   1.00
C110   C     0.05053   0.97489   0.72649   0.00000  Uiso   1.00
C111   C     0.01484   0.01306   0.73866   0.00000  Uiso   1.00
C112   C     0.98947   0.03008   0.69556   0.00000  Uiso   1.00
C113   C     0.16819   0.98401   0.72425   0.00000  Uiso   1.00
C114   C     0.23144   0.02986   0.73452   0.00000  Uiso   1.00
C115   C     0.30514   0.05458   0.68953   0.00000  Uiso   1.00
H116   H     0.10878   0.89715   0.62763   0.00000  Uiso   1.00
H117   H     0.02667   0.75778   0.69455   0.00000  Uiso   1.00
H118   H     0.04295   0.95559   0.58877   0.00000  Uiso   1.00
H119   H     0.25951   0.97238   0.58464   0.00000  Uiso   1.00
H120   H     0.93120   0.61227   0.79225   0.00000  Uiso   1.00
H121   H     0.96556   0.02940   0.56921   0.00000  Uiso   1.00
H122   H     0.42222   0.06481   0.56049   0.00000  Uiso   1.00
H123   H     0.07482   0.96663   0.80884   0.00000  Uiso   1.00
H124   H     0.99084   0.83106   0.88570   0.00000  Uiso   1.00
H125   H     0.00712   0.02888   0.77992   0.00000  Uiso   1.00
H126   H     0.22368   0.04567   0.77579   0.00000  Uiso   1.00
H127   H     0.90212   0.67176   0.94740   0.00000  Uiso   1.00
H128   H     0.93648   0.08889   0.72435   0.00000  Uiso   1.00
H129   H     0.39314   0.12430   0.71564   0.00000  Uiso   1.00
O130   O     0.86201   0.55158   0.91712   0.00000  Uiso   1.00
O131   O     0.90710   0.09885   0.62449   0.00000  Uiso   1.00
O132   O     0.50622   0.14531   0.61306   0.00000  Uiso   1.00
N133   N     0.93589   0.64488   0.81822   0.00000  Uiso   1.00
N134   N     0.96801   0.03486   0.60969   0.00000  Uiso   1.00
N135   N     0.39495   0.06798   0.60153   0.00000  Uiso   1.00
N136   N     0.92024   0.67689   0.90170   0.00000  Uiso   1.00
N137   N     0.95236   0.06686   0.69318   0.00000  Uiso   1.00
N138   N     0.37930   0.09999   0.68502   0.00000  Uiso   1.00
C139   C     0.67935   0.55267   0.62647   0.00000  Uiso   1.00
C140   C     0.64154   0.47022   0.65774   0.00000  Uiso   1.00
C141   C     0.56396   0.41520   0.67676   0.00000  Uiso   1.00
C142   C     0.54072   0.34311   0.70443   0.00000  Uiso   1.00
C143   C     0.47404   0.21757   0.75169   0.00000  Uiso   1.00
C144   C     0.74831   0.57756   0.56445   0.00000  Uiso   1.00
C145   C     0.76050   0.61281   0.50504   0.00000  Uiso   1.00
C146   C     0.82715   0.63108   0.45420   0.00000  Uiso   1.00
C147   C     0.92626   0.67224   0.35663   0.00000  Uiso   1.00
C148   C     0.71444   0.58953   0.66772   0.00000  Uiso   1.00
C149   C     0.69819   0.63486   0.69511   0.00000  Uiso   1.00
C150   C     0.73634   0.66323   0.73120   0.00000  Uiso   1.00
C151   C     0.78286   0.72298   0.79396   0.00000  Uiso   1.00
C152   C     0.77602   0.52246   0.64181   0.00000  Uiso   1.00
C153   C     0.69405   0.45381   0.66607   0.00000  Uiso   1.00
C154   C     0.67092   0.38178   0.69373   0.00000  Uiso   1.00
C155   C     0.59332   0.32667   0.71278   0.00000  Uiso   1.00
C156   C     0.80082   0.56116   0.57278   0.00000  Uiso   1.00
C157   C     0.86746   0.57938   0.52201   0.00000  Uiso   1.00
C158   C     0.87975   0.61464   0.46254   0.00000  Uiso   1.00
C159   C     0.76695   0.57313   0.67605   0.00000  Uiso   1.00
C160   C     0.80514   0.60143   0.71209   0.00000  Uiso   1.00
C161   C     0.78894   0.64679   0.73954   0.00000  Uiso   1.00
H162   H     0.63847   0.56545   0.61998   0.00000  Uiso   1.00
H163   H     0.52335   0.42792   0.67030   0.00000  Uiso   1.00
H164   H     0.71986   0.62550   0.49861   0.00000  Uiso   1.00
H165   H     0.65755   0.64755   0.68866   0.00000  Uiso   1.00
H166   H     0.41888   0.26821   0.72974   0.00000  Uiso   1.00
H167   H     0.83325   0.68484   0.36773   0.00000  Uiso   1.00
H168   H     0.70186   0.73133   0.76848   0.00000  Uiso   1.00
H169   H     0.81691   0.50969   0.64829   0.00000  Uiso   1.00
H170   H     0.71157   0.36910   0.70017   0.00000  Uiso   1.00
H171   H     0.90809   0.56668   0.52848   0.00000  Uiso   1.00
H172   H     0.84577   0.58872   0.71852   0.00000  Uiso   1.00
H173   H     0.57165   0.22047   0.75398   0.00000  Uiso   1.00
H174   H     0.98603   0.63710   0.39197   0.00000  Uiso   1.00
H175   H     0.85463   0.68358   0.79272   0.00000  Uiso   1.00
O176   O     0.42276   0.15286   0.77545   0.00000  Uiso   1.00
O177   O     0.96641   0.69947   0.30052   0.00000  Uiso   1.00
O178   O     0.79401   0.76046   0.82629   0.00000  Uiso   1.00
N179   N     0.46928   0.27627   0.72833   0.00000  Uiso   1.00
N180   N     0.85669   0.66578   0.38988   0.00000  Uiso   1.00
N181   N     0.73386   0.70926   0.76453   0.00000  Uiso   1.00
N182   N     0.55149   0.25058   0.74138   0.00000  Uiso   1.00
N183   N     0.93890   0.64009   0.40292   0.00000  Uiso   1.00
N184   N     0.81607   0.68357   0.77757   0.00000  Uiso   1.00
C185   C     0.81003   0.26759   0.43429   0.00000  Uiso   1.00
C186   C     0.85386   0.30285   0.36263   0.00000  Uiso   1.00
C187   C     0.84483   0.26574   0.32062   0.00000  Uiso   1.00
C188   C     0.89031   0.30794   0.25687   0.00000  Uiso   1.00
C189   C     0.95033   0.35106   0.14877   0.00000  Uiso   1.00
C190   C     0.77015   0.30717   0.45564   0.00000  Uiso   1.00
C191   C     0.69074   0.27369   0.49185   0.00000  Uiso   1.00
C192   C     0.66577   0.31953   0.50640   0.00000  Uiso   1.00
C193   C     0.59584   0.36934   0.54275   0.00000  Uiso   1.00
C194   C     0.87244   0.28933   0.45821   0.00000  Uiso   1.00
C195   C     0.87904   0.24086   0.49659   0.00000  Uiso   1.00
C196   C     0.94018   0.27168   0.51332   0.00000  Uiso   1.00
C197   C     0.02907   0.29379   0.55365   0.00000  Uiso   1.00
C198   C     0.90687   0.40853   0.39577   0.00000  Uiso   1.00
C199   C     0.90646   0.37940   0.34171   0.00000  Uiso   1.00
C200   C     0.95197   0.42167   0.27800   0.00000  Uiso   1.00
C201   C     0.94301   0.38463   0.23590   0.00000  Uiso   1.00
C202   C     0.82275   0.38372   0.43472   0.00000  Uiso   1.00
C203   C     0.79789   0.42962   0.44923   0.00000  Uiso   1.00
C204   C     0.71846   0.39622   0.48544   0.00000  Uiso   1.00
C205   C     0.92505   0.36588   0.43729   0.00000  Uiso   1.00
C206   C     0.98618   0.39679   0.45396   0.00000  Uiso   1.00
C207   C     0.99287   0.34837   0.49236   0.00000  Uiso   1.00
H208   H     0.76908   0.20799   0.45059   0.00000  Uiso   1.00
H209   H     0.80411   0.20650   0.33683   0.00000  Uiso   1.00
H210   H     0.65006   0.21445   0.50804   0.00000  Uiso   1.00
H211   H     0.83832   0.18162   0.51277   0.00000  Uiso   1.00
H212   H     0.86613   0.23861   0.20149   0.00000  Uiso   1.00
H213   H     0.54130   0.25537   0.56250   0.00000  Uiso   1.00
H214   H     0.93829   0.18614   0.57249   0.00000  Uiso   1.00
H215   H     0.94782   0.46813   0.37948   0.00000  Uiso   1.00
H216   H     0.99267   0.48091   0.26182   0.00000  Uiso   1.00
H217   H     0.83861   0.48886   0.43303   0.00000  Uiso   1.00
H218   H     0.02687   0.45603   0.43776   0.00000  Uiso   1.00
H219   H     0.01916   0.46133   0.14061   0.00000  Uiso   1.00
H220   H     0.69433   0.47809   0.50162   0.00000  Uiso   1.00
H221   H     0.09132   0.40886   0.51161   0.00000  Uiso   1.00
O222   O     0.96890   0.35369   0.09493   0.00000  Uiso   1.00
O223   O     0.54274   0.37567   0.56858   0.00000  Uiso   1.00
O224   O     0.06358   0.28484   0.58167   0.00000  Uiso   1.00
N225   N     0.89600   0.28927   0.20331   0.00000  Uiso   1.00
N226   N     0.59230   0.30494   0.54082   0.00000  Uiso   1.00
N227   N     0.96344   0.24021   0.55018   0.00000  Uiso   1.00
N228   N     0.97835   0.40912   0.17055   0.00000  Uiso   1.00
N229   N     0.67465   0.42478   0.50806   0.00000  Uiso   1.00
N230   N     0.04579   0.36006   0.51742   0.00000  Uiso   1.00
C231   C     0.85117   0.52305   0.10656   0.00000  Uiso   1.00
C232   C     0.82888   0.56706   0.14229   0.00000  Uiso   1.00
C233   C     0.79925   0.60680   0.12504   0.00000  Uiso   1.00
C234   C     0.78251   0.64332   0.16399   0.00000  Uiso   1.00
C235   C     0.74598   0.71209   0.21123   0.00000  Uiso   1.00
C236   C     0.80403   0.44454   0.15368   0.00000  Uiso   1.00
C237   C     0.75351   0.38128   0.14602   0.00000  Uiso   1.00
C238   C     0.71586   0.31467   0.19455   0.00000  Uiso   1.00
C239   C     0.64078   0.19325   0.25947   0.00000  Uiso   1.00
C240   C     0.93634   0.55356   0.09213   0.00000  Uiso   1.00
C241   C     0.99706   0.58195   0.03270   0.00000  Uiso   1.00
C242   C     0.07080   0.60710   0.02942   0.00000  Uiso   1.00
C243   C     0.20115   0.65494   0.99876   0.00000  Uiso   1.00
C244   C     0.87416   0.51724   0.20638   0.00000  Uiso   1.00
C245   C     0.84137   0.56389   0.19651   0.00000  Uiso   1.00
C246   C     0.82468   0.60037   0.23549   0.00000  Uiso   1.00
C247   C     0.79503   0.64016   0.21831   0.00000  Uiso   1.00
C248   C     0.81652   0.44138   0.20790   0.00000  Uiso   1.00
C249   C     0.77894   0.37485   0.25646   0.00000  Uiso   1.00
C250   C     0.72837   0.31151   0.24887   0.00000  Uiso   1.00
C251   C     0.94883   0.55041   0.14635   0.00000  Uiso   1.00
C252   C     0.02249   0.57552   0.14315   0.00000  Uiso   1.00
C253   C     0.08331   0.60394   0.08374   0.00000  Uiso   1.00
H254   H     0.84144   0.52550   0.06435   0.00000  Uiso   1.00
H255   H     0.78958   0.60922   0.08308   0.00000  Uiso   1.00
H256   H     0.74386   0.38374   0.10405   0.00000  Uiso   1.00
H257   H     0.98737   0.58438   0.99076   0.00000  Uiso   1.00
H258   H     0.73757   0.70062   0.12778   0.00000  Uiso   1.00
H259   H     0.64118   0.22519   0.17198   0.00000  Uiso   1.00
H260   H     0.15467   0.64827   0.93308   0.00000  Uiso   1.00
H261   H     0.88388   0.51478   0.24860   0.00000  Uiso   1.00
H262   H     0.83435   0.59791   0.27744   0.00000  Uiso   1.00
H263   H     0.78862   0.37243   0.29841   0.00000  Uiso   1.00
H264   H     0.03213   0.57307   0.18512   0.00000  Uiso   1.00
H265   H     0.77390   0.69144   0.28553   0.00000  Uiso   1.00
H266   H     0.67751   0.21600   0.32973   0.00000  Uiso   1.00
H267   H     0.19100   0.63908   0.09083   0.00000  Uiso   1.00
O268   O     0.72236   0.75089   0.22231   0.00000  Uiso   1.00
O269   O     0.59591   0.12714   0.28030   0.00000  Uiso   1.00
O270   O     0.26960   0.68221   0.96687   0.00000  Uiso   1.00
N271   N     0.75293   0.68707   0.16094   0.00000  Uiso   1.00
N272   N     0.66280   0.24256   0.20227   0.00000  Uiso   1.00
N273   N     0.14287   0.63809   0.97892   0.00000  Uiso   1.00
N274   N     0.77248   0.68213   0.24582   0.00000  Uiso   1.00
N275   N     0.68235   0.23762   0.28715   0.00000  Uiso   1.00
N276   N     0.16242   0.63315   0.06380   0.00000  Uiso   1.00
C277   C     0.51802   0.46171   0.94001   0.00000  Uiso   1.00
C278   C     0.57572   0.44092   0.91168   0.00000  Uiso   1.00
C279   C     0.64280   0.46113   0.91973   0.00000  Uiso   1.00
C280   C     0.68789   0.43654   0.88992   0.00000  Uiso   1.00
C281   C     0.78071   0.41080   0.85152   0.00000  Uiso   1.00
C282   C     0.43849   0.38914   0.97761   0.00000  Uiso   1.00
C283   C     0.39019   0.36583   0.04109   0.00000  Uiso   1.00
C284   C     0.31975   0.29767   0.06677   0.00000  Uiso   1.00
C285   C     0.19948   0.19158   0.13071   0.00000  Uiso   1.00
C286   C     0.51297   0.50052   0.88465   0.00000  Uiso   1.00
C287   C     0.52727   0.57084   0.86997   0.00000  Uiso   1.00
C288   C     0.51953   0.59644   0.81739   0.00000  Uiso   1.00
C289   C     0.51491   0.66327   0.73699   0.00000  Uiso   1.00
C290   C     0.47881   0.38211   0.87274   0.00000  Uiso   1.00
C291   C     0.55442   0.39768   0.87515   0.00000  Uiso   1.00
C292   C     0.59942   0.37306   0.84531   0.00000  Uiso   1.00
C293   C     0.66656   0.39323   0.85332   0.00000  Uiso   1.00
C294   C     0.41719   0.34591   0.94107   0.00000  Uiso   1.00
C295   C     0.34680   0.27777   0.96666   0.00000  Uiso   1.00
C296   C     0.29841   0.25436   0.03017   0.00000  Uiso   1.00
C297   C     0.49168   0.45728   0.84811   0.00000  Uiso   1.00
C298   C     0.48390   0.48277   0.79554   0.00000  Uiso   1.00
C299   C     0.49819   0.55313   0.78079   0.00000  Uiso   1.00
H300   H     0.53460   0.49537   0.96846   0.00000  Uiso   1.00
H301   H     0.65926   0.49458   0.94802   0.00000  Uiso   1.00
H302   H     0.40668   0.39931   0.06935   0.00000  Uiso   1.00
H303   H     0.54376   0.60428   0.89825   0.00000  Uiso   1.00
H304   H     0.78807   0.47462   0.90926   0.00000  Uiso   1.00
H305   H     0.25548   0.27374   0.16509   0.00000  Uiso   1.00
H306   H     0.54452   0.70597   0.80431   0.00000  Uiso   1.00
H307   H     0.46222   0.34845   0.84430   0.00000  Uiso   1.00
H308   H     0.58292   0.33960   0.81704   0.00000  Uiso   1.00
H309   H     0.33034   0.24433   0.93837   0.00000  Uiso   1.00
H310   H     0.46741   0.44930   0.76728   0.00000  Uiso   1.00
H311   H     0.72611   0.34883   0.80296   0.00000  Uiso   1.00
H312   H     0.19351   0.14795   0.05879   0.00000  Uiso   1.00
H313   H     0.48256   0.58018   0.69800   0.00000  Uiso   1.00
O314   O     0.83778   0.40853   0.84044   0.00000  Uiso   1.00
O315   O     0.13903   0.14500   0.17607   0.00000  Uiso   1.00
O316   O     0.51825   0.71207   0.70273   0.00000  Uiso   1.00
N317   N     0.75693   0.44624   0.88797   0.00000  Uiso   1.00
N318   N     0.25899   0.25843   0.12716   0.00000  Uiso   1.00
N319   N     0.52920   0.66252   0.78987   0.00000  Uiso   1.00
N320   N     0.72359   0.37856   0.83077   0.00000  Uiso   1.00
N321   N     0.22565   0.19074   0.06996   0.00000  Uiso   1.00
N322   N     0.49586   0.59483   0.73267   0.00000  Uiso   1.00
C323   C     0.42136   0.95318   0.09913   0.00000  Uiso   1.00
C324   C     0.33913   0.89441   0.15025   0.00000  Uiso   1.00
C325   C     0.32065   0.84508   0.20584   0.00000  Uiso   1.00
C326   C     0.24193   0.79560   0.24653   0.00000  Uiso   1.00
C327   C     0.12309   0.70439   0.32813   0.00000  Uiso   1.00
C328   C     0.42789   0.02648   0.09063   0.00000  Uiso   1.00
C329   C     0.48405   0.08819   0.09607   0.00000  Uiso   1.00
C330   C     0.48004   0.14988   0.08655   0.00000  Uiso   1.00
C331   C     0.49904   0.26372   0.07554   0.00000  Uiso   1.00
C332   C     0.42377   0.93855   0.03828   0.00000  Uiso   1.00
C333   C     0.47647   0.92634   0.99969   0.00000  Uiso   1.00
C334   C     0.46901   0.91403   0.94609   0.00000  Uiso   1.00
C335   C     0.48160   0.89134   0.85380   0.00000  Uiso   1.00
C336   C     0.31441   0.95303   0.07253   0.00000  Uiso   1.00
C337   C     0.28104   0.89433   0.13581   0.00000  Uiso   1.00
C338   C     0.20233   0.84491   0.17642   0.00000  Uiso   1.00
C339   C     0.18374   0.79551   0.23206   0.00000  Uiso   1.00
C340   C     0.36980   0.02640   0.07618   0.00000  Uiso   1.00
C341   C     0.36572   0.08802   0.06665   0.00000  Uiso   1.00
C342   C     0.42185   0.14980   0.07208   0.00000  Uiso   1.00
C343   C     0.36567   0.93846   0.02383   0.00000  Uiso   1.00
C344   C     0.35813   0.92617   0.97028   0.00000  Uiso   1.00
C345   C     0.41081   0.91395   0.93162   0.00000  Uiso   1.00
H346   H     0.46659   0.95324   0.11037   0.00000  Uiso   1.00
H347   H     0.36563   0.84516   0.21701   0.00000  Uiso   1.00
H348   H     0.52900   0.08823   0.10724   0.00000  Uiso   1.00
H349   H     0.52142   0.92641   0.01089   0.00000  Uiso   1.00
H350   H     0.22808   0.72532   0.32887   0.00000  Uiso   1.00
H351   H     0.57257   0.23785   0.09741   0.00000  Uiso   1.00
H352   H     0.55658   0.89662   0.89422   0.00000  Uiso   1.00
H353   H     0.26918   0.95297   0.06129   0.00000  Uiso   1.00
H354   H     0.15738   0.84486   0.16523   0.00000  Uiso   1.00
H355   H     0.32076   0.08794   0.05547   0.00000  Uiso   1.00
H356   H     0.31317   0.92611   0.95911   0.00000  Uiso   1.00
H357   H     0.05906   0.72508   0.28685   0.00000  Uiso   1.00
H358   H     0.40355   0.23762   0.05539   0.00000  Uiso   1.00
H359   H     0.38757   0.89638   0.85220   0.00000  Uiso   1.00
O360   O     0.07359   0.65411   0.37713   0.00000  Uiso   1.00
O361   O     0.52556   0.32654   0.07346   0.00000  Uiso   1.00
O362   O     0.50458   0.87884   0.80688   0.00000  Uiso   1.00
N363   N     0.20364   0.74009   0.30471   0.00000  Uiso   1.00
N364   N     0.52571   0.21927   0.08832   0.00000  Uiso   1.00
N365   N     0.51078   0.90027   0.89835   0.00000  Uiso   1.00
N366   N     0.11269   0.73996   0.28210   0.00000  Uiso   1.00
N367   N     0.43477   0.21914   0.06571   0.00000  Uiso   1.00
N368   N     0.41983   0.90014   0.87574   0.00000  Uiso   1.00
C369   C     0.82280   0.04813   0.39066   0.00000  Uiso   1.00
C370   C     0.89285   0.11667   0.33486   0.00000  Uiso   1.00
C371   C     0.96067   0.16943   0.33610   0.00000  Uiso   1.00
C372   C     0.01797   0.22804   0.28009   0.00000  Uiso   1.00
C373   C     0.12830   0.33360   0.20183   0.00000  Uiso   1.00
C374   C     0.81029   0.98259   0.36985   0.00000  Uiso   1.00
C375   C     0.80868   0.92261   0.40052   0.00000  Uiso   1.00
C376   C     0.79648   0.86834   0.37397   0.00000  Uiso   1.00
C377   C     0.77858   0.76571   0.35006   0.00000  Uiso   1.00
C378   C     0.75237   0.05216   0.39759   0.00000  Uiso   1.00
C379   C     0.70205   0.05066   0.45160   0.00000  Uiso   1.00
C380   C     0.64107   0.05496   0.44841   0.00000  Uiso   1.00
C381   C     0.53324   0.06035   0.46758   0.00000  Uiso   1.00
C382   C     0.80397   0.05840   0.28897   0.00000  Uiso   1.00
C383   C     0.88262   0.12225   0.27962   0.00000  Uiso   1.00
C384   C     0.93983   0.18079   0.22359   0.00000  Uiso   1.00
C385   C     0.00772   0.23363   0.22475   0.00000  Uiso   1.00
C386   C     0.80006   0.98816   0.31462   0.00000  Uiso   1.00
C387   C     0.78785   0.93397   0.28801   0.00000  Uiso   1.00
C388   C     0.78623   0.87393   0.31863   0.00000  Uiso   1.00
C389   C     0.74214   0.05774   0.34236   0.00000  Uiso   1.00
C390   C     0.68122   0.06203   0.33908   0.00000  Uiso   1.00
C391   C     0.63082   0.06054   0.39307   0.00000  Uiso   1.00
H392   H     0.83077   0.04378   0.43367   0.00000  Uiso   1.00
H393   H     0.96856   0.16509   0.37886   0.00000  Uiso   1.00
H394   H     0.81659   0.91830   0.44327   0.00000  Uiso   1.00
H395   H     0.70998   0.04634   0.49434   0.00000  Uiso   1.00
H396   H     0.11684   0.30202   0.29372   0.00000  Uiso   1.00
H397   H     0.79637   0.78165   0.42955   0.00000  Uiso   1.00
H398   H     0.57156   0.05165   0.53724   0.00000  Uiso   1.00
H399   H     0.79601   0.06274   0.24597   0.00000  Uiso   1.00
H400   H     0.93190   0.18510   0.18085   0.00000  Uiso   1.00
H401   H     0.77993   0.93831   0.24527   0.00000  Uiso   1.00
H402   H     0.67332   0.06635   0.29633   0.00000  Uiso   1.00
H403   H     0.08708   0.31826   0.13301   0.00000  Uiso   1.00
H404   H     0.76661   0.79788   0.26885   0.00000  Uiso   1.00
H405   H     0.54181   0.06789   0.37653   0.00000  Uiso   1.00
O406   O     0.19199   0.39028   0.17392   0.00000  Uiso   1.00
O407   O     0.77154   0.70756   0.35213   0.00000  Uiso   1.00
O408   O     0.47660   0.06179   0.49341   0.00000  Uiso   1.00
N409   N     0.09118   0.28906   0.26484   0.00000  Uiso   1.00
N410   N     0.79158   0.80255   0.39183   0.00000  Uiso   1.00
N411   N     0.58139   0.05495   0.49251   0.00000  Uiso   1.00
N412   N     0.07517   0.29780   0.17836   0.00000  Uiso   1.00
N413   N     0.77557   0.81129   0.30535   0.00000  Uiso   1.00
N414   N     0.56537   0.06369   0.40604   0.00000  Uiso   1.00
C415   C     0.37474   0.55942   0.39475   0.00000  Uiso   1.00
C416   C     0.42288   0.64126   0.35497   0.00000  Uiso   1.00
C417   C     0.49869   0.69258   0.34410   0.00000  Uiso   1.00
C418   C     0.53258   0.76476   0.30639   0.00000  Uiso   1.00
C419   C     0.61348   0.88879   0.24859   0.00000  Uiso   1.00
C420   C     0.29992   0.54439   0.44483   0.00000  Uiso   1.00
C421   C     0.27235   0.51425   0.50951   0.00000  Uiso   1.00
C422   C     0.20274   0.50488   0.54744   0.00000  Uiso   1.00
C423   C     0.09271   0.47846   0.62915   0.00000  Uiso   1.00
C424   C     0.35029   0.51792   0.35180   0.00000  Uiso   1.00
C425   C     0.36504   0.46551   0.33828   0.00000  Uiso   1.00
C426   C     0.33781   0.43384   0.29790   0.00000  Uiso   1.00
C427   C     0.30599   0.36632   0.23516   0.00000  Uiso   1.00
C428   C     0.30013   0.59634   0.34710   0.00000  Uiso   1.00
C429   C     0.38235   0.66131   0.32910   0.00000  Uiso   1.00
C430   C     0.41615   0.73343   0.29139   0.00000  Uiso   1.00
C431   C     0.49199   0.78485   0.28046   0.00000  Uiso   1.00
C432   C     0.25940   0.56444   0.41895   0.00000  Uiso   1.00
C433   C     0.18981   0.55510   0.45680   0.00000  Uiso   1.00
C434   C     0.16214   0.52497   0.52152   0.00000  Uiso   1.00
C435   C     0.30977   0.53797   0.32592   0.00000  Uiso   1.00
C436   C     0.28250   0.50636   0.28556   0.00000  Uiso   1.00
C437   C     0.29722   0.45392   0.27197   0.00000  Uiso   1.00
H438   H     0.40628   0.54381   0.41491   0.00000  Uiso   1.00
H439   H     0.53002   0.67705   0.36415   0.00000  Uiso   1.00
H440   H     0.30372   0.49874   0.52953   0.00000  Uiso   1.00
H441   H     0.39640   0.45001   0.35832   0.00000  Uiso   1.00
H442   H     0.64933   0.83361   0.29648   0.00000  Uiso   1.00
H443   H     0.17214   0.45761   0.64519   0.00000  Uiso   1.00
H444   H     0.36757   0.35486   0.28416   0.00000  Uiso   1.00
H445   H     0.26858   0.61195   0.32696   0.00000  Uiso   1.00
H446   H     0.38477   0.74893   0.27137   0.00000  Uiso   1.00
H447   H     0.15846   0.57062   0.43675   0.00000  Uiso   1.00
H448   H     0.25115   0.52189   0.26554   0.00000  Uiso   1.00
H449   H     0.53144   0.89196   0.22118   0.00000  Uiso   1.00
H450   H     0.05424   0.51595   0.56989   0.00000  Uiso   1.00
H451   H     0.24968   0.41320   0.20886   0.00000  Uiso   1.00
O452   O     0.66929   0.95167   0.22386   0.00000  Uiso   1.00
O453   O     0.04323   0.45836   0.68136   0.00000  Uiso   1.00
O454   O     0.29964   0.32355   0.20770   0.00000  Uiso   1.00
N455   N     0.60565   0.82854   0.28637   0.00000  Uiso   1.00
N456   N     0.15950   0.47702   0.61240   0.00000  Uiso   1.00
N457   N     0.34220   0.38093   0.27488   0.00000  Uiso   1.00
N458   N     0.54221   0.85994   0.24585   0.00000  Uiso   1.00
N459   N     0.09607   0.50841   0.57188   0.00000  Uiso   1.00
N460   N     0.27877   0.41233   0.23436   0.00000  Uiso   1.00
C461   C     0.29978   0.84710   0.55584   0.00000  Uiso   1.00
C462   C     0.24814   0.80107   0.62580   0.00000  Uiso   1.00
C463   C     0.24417   0.82839   0.67468   0.00000  Uiso   1.00
C464   C     0.19331   0.77726   0.73544   0.00000  Uiso   1.00
C465   C     0.12004   0.71729   0.84233   0.00000  Uiso   1.00
C466   C     0.34919   0.81665   0.53177   0.00000  Uiso   1.00
C467   C     0.43019   0.85707   0.50158   0.00000  Uiso   1.00
C468   C     0.46440   0.81905   0.48318   0.00000  Uiso   1.00
C469   C     0.54801   0.78328   0.44406   0.00000  Uiso   1.00
C470   C     0.24494   0.82807   0.52433   0.00000  Uiso   1.00
C471   C     0.23830   0.87809   0.48788   0.00000  Uiso   1.00
C472   C     0.18475   0.84969   0.46320   0.00000  Uiso   1.00
C473   C     0.10650   0.83166   0.41253   0.00000  Uiso   1.00
C474   C     0.21651   0.70772   0.57683   0.00000  Uiso   1.00
C475   C     0.20292   0.72536   0.63719   0.00000  Uiso   1.00
C476   C     0.15205   0.67417   0.69790   0.00000  Uiso   1.00
C477   C     0.14800   0.70141   0.74686   0.00000  Uiso   1.00
C478   C     0.30397   0.74094   0.54317   0.00000  Uiso   1.00
C479   C     0.33807   0.70286   0.52480   0.00000  Uiso   1.00
C480   C     0.41909   0.74321   0.49460   0.00000  Uiso   1.00
C481   C     0.19972   0.75236   0.53573   0.00000  Uiso   1.00
C482   C     0.14617   0.72388   0.51110   0.00000  Uiso   1.00
C483   C     0.13944   0.77385   0.47462   0.00000  Uiso   1.00
H484   H     0.33499   0.90604   0.54696   0.00000  Uiso   1.00
H485   H     0.27918   0.88698   0.66583   0.00000  Uiso   1.00
H486   H     0.46517   0.91566   0.49276   0.00000  Uiso   1.00
H487   H     0.27331   0.93668   0.47906   0.00000  Uiso   1.00
H488   H     0.19739   0.83245   0.80266   0.00000  Uiso   1.00
H489   H     0.58955   0.89293   0.43771   0.00000  Uiso   1.00
H490   H     0.18497   0.93725   0.40882   0.00000  Uiso   1.00
H491   H     0.18130   0.64877   0.58570   0.00000  Uiso   1.00
H492   H     0.11706   0.61559   0.70671   0.00000  Uiso   1.00
H493   H     0.30305   0.64427   0.53363   0.00000  Uiso   1.00
H494   H     0.11119   0.66529   0.51993   0.00000  Uiso   1.00
H495   H     0.06580   0.61218   0.83583   0.00000  Uiso   1.00
H496   H     0.45797   0.67266   0.47088   0.00000  Uiso   1.00
H497   H     0.05339   0.71698   0.44199   0.00000  Uiso   1.00
O498   O     0.09213   0.70513   0.89815   0.00000  Uiso   1.00
O499   O     0.60663   0.78447   0.41933   0.00000  Uiso   1.00
O500   O     0.07583   0.84263   0.38144   0.00000  Uiso   1.00
N501   N     0.17522   0.78517   0.79386   0.00000  Uiso   1.00
N502   N     0.54188   0.84170   0.45266   0.00000  Uiso   1.00
N503   N     0.16364   0.88315   0.42564   0.00000  Uiso   1.00
N504   N     0.10442   0.66664   0.81171   0.00000  Uiso   1.00
N505   N     0.47107   0.72318   0.47051   0.00000  Uiso   1.00
N506   N     0.09284   0.76463   0.44349   0.00000  Uiso   1.00
C507   C     0.23213   0.53596   0.85832   0.00000  Uiso   1.00
C508   C     0.24935   0.48499   0.82967   0.00000  Uiso   1.00
C509   C     0.27661   0.44530   0.85177   0.00000  Uiso   1.00
C510   C     0.28873   0.40181   0.81898   0.00000  Uiso   1.00
C511   C     0.31773   0.32325   0.78252   0.00000  Uiso   1.00
C512   C     0.28130   0.61090   0.80542   0.00000  Uiso   1.00
C513   C     0.33541   0.67707   0.80714   0.00000  Uiso   1.00
C514   C     0.37442   0.73957   0.75394   0.00000  Uiso   1.00
C515   C     0.45298   0.85649   0.67987   0.00000  Uiso   1.00
C516   C     0.14727   0.50743   0.87304   0.00000  Uiso   1.00
C517   C     0.08870   0.48662   0.93161   0.00000  Uiso   1.00
C518   C     0.01486   0.46203   0.93533   0.00000  Uiso   1.00
C519   C     0.88533   0.41830   0.96624   0.00000  Uiso   1.00
C520   C     0.20518   0.52931   0.76079   0.00000  Uiso   1.00
C521   C     0.23471   0.48138   0.77669   0.00000  Uiso   1.00
C522   C     0.24679   0.43794   0.74386   0.00000  Uiso   1.00
C523   C     0.27406   0.39819   0.76591   0.00000  Uiso   1.00
C524   C     0.26666   0.60729   0.75245   0.00000  Uiso   1.00
C525   C     0.30559   0.66971   0.69924   0.00000  Uiso   1.00
C526   C     0.35975   0.73595   0.70087   0.00000  Uiso   1.00
C527   C     0.13263   0.50382   0.82006   0.00000  Uiso   1.00
C528   C     0.05888   0.47926   0.82370   0.00000  Uiso   1.00
C529   C     0.00020   0.45841   0.88226   0.00000  Uiso   1.00
H530   H     0.24353   0.53877   0.89957   0.00000  Uiso   1.00
H531   H     0.28794   0.44811   0.89276   0.00000  Uiso   1.00
H532   H     0.34672   0.67984   0.84815   0.00000  Uiso   1.00
H533   H     0.10005   0.48942   0.97259   0.00000  Uiso   1.00
H534   H     0.33074   0.34603   0.86185   0.00000  Uiso   1.00
H535   H     0.45468   0.83465   0.76778   0.00000  Uiso   1.00
H536   H     0.93451   0.43311   0.03019   0.00000  Uiso   1.00
H537   H     0.19378   0.52650   0.71955   0.00000  Uiso   1.00
H538   H     0.23545   0.43516   0.70287   0.00000  Uiso   1.00
H539   H     0.29424   0.66689   0.65825   0.00000  Uiso   1.00
H540   H     0.04757   0.47647   0.78269   0.00000  Uiso   1.00
H541   H     0.28815   0.33552   0.70772   0.00000  Uiso   1.00
H542   H     0.41208   0.82414   0.61365   0.00000  Uiso   1.00
H543   H     0.89192   0.42260   0.87606   0.00000  Uiso   1.00
O544   O     0.33778   0.28093   0.77704   0.00000  Uiso   1.00
O545   O     0.50037   0.92198   0.65364   0.00000  Uiso   1.00
O546   O     0.81793   0.39517   0.99792   0.00000  Uiso   1.00
N547   N     0.31498   0.35608   0.82787   0.00000  Uiso   1.00
N548   N     0.43086   0.81291   0.73992   0.00000  Uiso   1.00
N549   N     0.94456   0.43752   0.98525   0.00000  Uiso   1.00
N550   N     0.29206   0.35042   0.74493   0.00000  Uiso   1.00
N551   N     0.40794   0.80725   0.65698   0.00000  Uiso   1.00
N552   N     0.92164   0.43187   0.90231   0.00000  Uiso   1.00
