data_job_01059
_audit_creation_date              2018-12-19
_audit_creation_method            'Materials Studio'
_symmetry_space_group_name_H-M    'P1'
_symmetry_Int_Tables_number       1
_symmetry_cell_setting            triclinic
loop_
_symmetry_equiv_pos_as_xyz
  x,y,z
_cell_length_a                    13.3256
_cell_length_b                    12.2429
_cell_length_c                    29.2507
_cell_angle_alpha                 90.0000
_cell_angle_beta                  90.0000
_cell_angle_gamma                 90.0000
loop_
_atom_site_label
_atom_site_type_symbol
_atom_site_fract_x
_atom_site_fract_y
_atom_site_fract_z
_atom_site_U_iso_or_equiv
_atom_site_adp_type
_atom_site_occupancy
C1     C     0.43289   0.83941   0.85556   0.00000  Uiso   1.00
C2     C     0.49126   0.92364   0.88327   0.00000  Uiso   1.00
C3     C     0.45470   0.02369   0.89810   0.00000  Uiso   1.00
C4     C     0.51989   0.08914   0.92301   0.00000  Uiso   1.00
C5     C     0.59560   0.22506   0.96454   0.00000  Uiso   1.00
C6     C     0.49468   0.81858   0.81255   0.00000  Uiso   1.00
C7     C     0.46099   0.83028   0.76792   0.00000  Uiso   1.00
C8     C     0.52906   0.80726   0.73330   0.00000  Uiso   1.00
C9     C     0.61006   0.77999   0.66505   0.00000  Uiso   1.00
C10    C     0.43664   0.73373   0.88310   0.00000  Uiso   1.00
C11    C     0.35415   0.67407   0.89777   0.00000  Uiso   1.00
C12    C     0.37337   0.57960   0.92254   0.00000  Uiso   1.00
C13    C     0.36424   0.42058   0.96381   0.00000  Uiso   1.00
C14    C     0.61368   0.77772   0.87343   0.00000  Uiso   1.00
C15    C     0.58946   0.89013   0.89297   0.00000  Uiso   1.00
C16    C     0.65472   0.95544   0.91787   0.00000  Uiso   1.00
C17    C     0.61827   0.05557   0.93273   0.00000  Uiso   1.00
C18    C     0.59288   0.78507   0.82226   0.00000  Uiso   1.00
C19    C     0.66101   0.76203   0.78769   0.00000  Uiso   1.00
C20    C     0.62744   0.77370   0.74303   0.00000  Uiso   1.00
C21    C     0.53484   0.70022   0.89280   0.00000  Uiso   1.00
C22    C     0.55418   0.60582   0.91754   0.00000  Uiso   1.00
C23    C     0.47174   0.54603   0.93226   0.00000  Uiso   1.00
H24    H     0.35644   0.86549   0.84800   0.00000  Uiso   1.00
H25    H     0.37870   0.04960   0.89058   0.00000  Uiso   1.00
H26    H     0.38499   0.85620   0.76042   0.00000  Uiso   1.00
H27    H     0.27818   0.70002   0.89025   0.00000  Uiso   1.00
H28    H     0.44670   0.23896   0.94205   0.00000  Uiso   1.00
H29    H     0.45995   0.83113   0.66761   0.00000  Uiso   1.00
H30    H     0.23470   0.50179   0.94138   0.00000  Uiso   1.00
H31    H     0.69014   0.75163   0.88098   0.00000  Uiso   1.00
H32    H     0.73071   0.92949   0.92537   0.00000  Uiso   1.00
H33    H     0.73700   0.73609   0.79522   0.00000  Uiso   1.00
H34    H     0.63018   0.57991   0.92505   0.00000  Uiso   1.00
H35    H     0.73240   0.14148   0.97029   0.00000  Uiso   1.00
H36    H     0.74565   0.73364   0.69585   0.00000  Uiso   1.00
H37    H     0.52041   0.40431   0.96962   0.00000  Uiso   1.00
O38    O     0.61023   0.30929   0.98476   0.00000  Uiso   1.00
O39    O     0.62760   0.77422   0.62471   0.00000  Uiso   1.00
O40    O     0.33209   0.34214   0.98390   0.00000  Uiso   1.00
N41    N     0.50837   0.19160   0.94261   0.00000  Uiso   1.00
N42    N     0.52076   0.81032   0.68603   0.00000  Uiso   1.00
N43    N     0.31017   0.50240   0.94197   0.00000  Uiso   1.00
N44    N     0.66210   0.13914   0.95780   0.00000  Uiso   1.00
N45    N     0.67449   0.75786   0.70123   0.00000  Uiso   1.00
N46    N     0.46390   0.44994   0.95717   0.00000  Uiso   1.00
C47    C     0.06711   0.16059   0.35556   0.00000  Uiso   1.00
C48    C     0.00874   0.07636   0.38327   0.00000  Uiso   1.00
C49    C     0.04530   0.97631   0.39810   0.00000  Uiso   1.00
C50    C     0.98011   0.91086   0.42301   0.00000  Uiso   1.00
C51    C     0.90440   0.77494   0.46454   0.00000  Uiso   1.00
C52    C     0.00532   0.18142   0.31255   0.00000  Uiso   1.00
C53    C     0.03901   0.16972   0.26792   0.00000  Uiso   1.00
C54    C     0.97094   0.19274   0.23330   0.00000  Uiso   1.00
C55    C     0.88994   0.22001   0.16505   0.00000  Uiso   1.00
C56    C     0.06336   0.26627   0.38310   0.00000  Uiso   1.00
C57    C     0.14585   0.32593   0.39777   0.00000  Uiso   1.00
C58    C     0.12663   0.42040   0.42254   0.00000  Uiso   1.00
C59    C     0.13576   0.57942   0.46381   0.00000  Uiso   1.00
C60    C     0.88632   0.22228   0.37343   0.00000  Uiso   1.00
C61    C     0.91054   0.10987   0.39297   0.00000  Uiso   1.00
C62    C     0.84528   0.04456   0.41787   0.00000  Uiso   1.00
C63    C     0.88173   0.94443   0.43273   0.00000  Uiso   1.00
C64    C     0.90712   0.21493   0.32226   0.00000  Uiso   1.00
C65    C     0.83899   0.23797   0.28769   0.00000  Uiso   1.00
C66    C     0.87256   0.22630   0.24303   0.00000  Uiso   1.00
C67    C     0.96516   0.29978   0.39280   0.00000  Uiso   1.00
C68    C     0.94582   0.39418   0.41754   0.00000  Uiso   1.00
C69    C     0.02826   0.45397   0.43226   0.00000  Uiso   1.00
H70    H     0.14356   0.13451   0.34800   0.00000  Uiso   1.00
H71    H     0.12130   0.95040   0.39058   0.00000  Uiso   1.00
H72    H     0.11501   0.14380   0.26042   0.00000  Uiso   1.00
H73    H     0.22182   0.29998   0.39025   0.00000  Uiso   1.00
H74    H     0.05330   0.76104   0.44205   0.00000  Uiso   1.00
H75    H     0.04005   0.16887   0.16761   0.00000  Uiso   1.00
H76    H     0.26530   0.49821   0.44138   0.00000  Uiso   1.00
H77    H     0.80986   0.24837   0.38098   0.00000  Uiso   1.00
H78    H     0.76929   0.07051   0.42537   0.00000  Uiso   1.00
H79    H     0.76300   0.26391   0.29522   0.00000  Uiso   1.00
H80    H     0.86982   0.42009   0.42505   0.00000  Uiso   1.00
H81    H     0.76760   0.85852   0.47029   0.00000  Uiso   1.00
H82    H     0.75435   0.26636   0.19585   0.00000  Uiso   1.00
H83    H     0.97959   0.59569   0.46962   0.00000  Uiso   1.00
O84    O     0.88977   0.69071   0.48476   0.00000  Uiso   1.00
O85    O     0.87240   0.22578   0.12471   0.00000  Uiso   1.00
O86    O     0.16791   0.65786   0.48390   0.00000  Uiso   1.00
N87    N     0.99163   0.80840   0.44261   0.00000  Uiso   1.00
N88    N     0.97924   0.18968   0.18603   0.00000  Uiso   1.00
N89    N     0.18983   0.49760   0.44197   0.00000  Uiso   1.00
N90    N     0.83790   0.86086   0.45780   0.00000  Uiso   1.00
N91    N     0.82551   0.24214   0.20123   0.00000  Uiso   1.00
N92    N     0.03610   0.55006   0.45717   0.00000  Uiso   1.00
C93    C     0.56711   0.33941   0.64444   0.00000  Uiso   1.00
C94    C     0.50874   0.42364   0.61673   0.00000  Uiso   1.00
C95    C     0.54530   0.52369   0.60190   0.00000  Uiso   1.00
C96    C     0.48011   0.58914   0.57699   0.00000  Uiso   1.00
C97    C     0.40440   0.72506   0.53546   0.00000  Uiso   1.00
C98    C     0.50532   0.31858   0.68745   0.00000  Uiso   1.00
C99    C     0.53901   0.33028   0.73208   0.00000  Uiso   1.00
C100   C     0.47094   0.30726   0.76670   0.00000  Uiso   1.00
C101   C     0.38994   0.27999   0.83495   0.00000  Uiso   1.00
C102   C     0.56336   0.23373   0.61690   0.00000  Uiso   1.00
C103   C     0.64585   0.17407   0.60223   0.00000  Uiso   1.00
C104   C     0.62663   0.07960   0.57746   0.00000  Uiso   1.00
C105   C     0.63576   0.92058   0.53619   0.00000  Uiso   1.00
C106   C     0.38632   0.27772   0.62657   0.00000  Uiso   1.00
C107   C     0.41054   0.39013   0.60703   0.00000  Uiso   1.00
C108   C     0.34528   0.45544   0.58213   0.00000  Uiso   1.00
C109   C     0.38173   0.55557   0.56727   0.00000  Uiso   1.00
C110   C     0.40712   0.28507   0.67774   0.00000  Uiso   1.00
C111   C     0.33899   0.26203   0.71231   0.00000  Uiso   1.00
C112   C     0.37256   0.27370   0.75697   0.00000  Uiso   1.00
C113   C     0.46516   0.20022   0.60720   0.00000  Uiso   1.00
C114   C     0.44582   0.10582   0.58246   0.00000  Uiso   1.00
C115   C     0.52826   0.04603   0.56774   0.00000  Uiso   1.00
H116   H     0.64356   0.36549   0.65200   0.00000  Uiso   1.00
H117   H     0.62130   0.54960   0.60942   0.00000  Uiso   1.00
H118   H     0.61501   0.35620   0.73958   0.00000  Uiso   1.00
H119   H     0.72182   0.20002   0.60975   0.00000  Uiso   1.00
H120   H     0.55330   0.73896   0.55795   0.00000  Uiso   1.00
H121   H     0.54005   0.33113   0.83239   0.00000  Uiso   1.00
H122   H     0.76530   0.00179   0.55862   0.00000  Uiso   1.00
H123   H     0.30986   0.25163   0.61902   0.00000  Uiso   1.00
H124   H     0.26929   0.42949   0.57463   0.00000  Uiso   1.00
H125   H     0.26300   0.23609   0.70478   0.00000  Uiso   1.00
H126   H     0.36982   0.07991   0.57495   0.00000  Uiso   1.00
H127   H     0.26760   0.64148   0.52971   0.00000  Uiso   1.00
H128   H     0.25435   0.23364   0.80415   0.00000  Uiso   1.00
H129   H     0.47959   0.90431   0.53038   0.00000  Uiso   1.00
O130   O     0.38977   0.80929   0.51524   0.00000  Uiso   1.00
O131   O     0.37240   0.27422   0.87529   0.00000  Uiso   1.00
O132   O     0.66791   0.84214   0.51610   0.00000  Uiso   1.00
N133   N     0.49163   0.69160   0.55739   0.00000  Uiso   1.00
N134   N     0.47924   0.31032   0.81397   0.00000  Uiso   1.00
N135   N     0.68983   0.00240   0.55803   0.00000  Uiso   1.00
N136   N     0.33790   0.63914   0.54220   0.00000  Uiso   1.00
N137   N     0.32551   0.25786   0.79877   0.00000  Uiso   1.00
N138   N     0.53610   0.94994   0.54283   0.00000  Uiso   1.00
C139   C     0.93289   0.66059   0.14444   0.00000  Uiso   1.00
C140   C     0.99126   0.57636   0.11673   0.00000  Uiso   1.00
C141   C     0.95470   0.47631   0.10190   0.00000  Uiso   1.00
C142   C     0.01989   0.41086   0.07699   0.00000  Uiso   1.00
C143   C     0.09560   0.27494   0.03546   0.00000  Uiso   1.00
C144   C     0.99468   0.68142   0.18745   0.00000  Uiso   1.00
C145   C     0.96099   0.66972   0.23208   0.00000  Uiso   1.00
C146   C     0.02906   0.69274   0.26670   0.00000  Uiso   1.00
C147   C     0.11006   0.72001   0.33495   0.00000  Uiso   1.00
C148   C     0.93664   0.76627   0.11690   0.00000  Uiso   1.00
C149   C     0.85415   0.82593   0.10223   0.00000  Uiso   1.00
C150   C     0.87337   0.92040   0.07746   0.00000  Uiso   1.00
C151   C     0.86424   0.07942   0.03619   0.00000  Uiso   1.00
C152   C     0.11368   0.72228   0.12657   0.00000  Uiso   1.00
C153   C     0.08946   0.60987   0.10703   0.00000  Uiso   1.00
C154   C     0.15472   0.54456   0.08213   0.00000  Uiso   1.00
C155   C     0.11827   0.44443   0.06727   0.00000  Uiso   1.00
C156   C     0.09288   0.71493   0.17774   0.00000  Uiso   1.00
C157   C     0.16101   0.73797   0.21231   0.00000  Uiso   1.00
C158   C     0.12744   0.72630   0.25697   0.00000  Uiso   1.00
C159   C     0.03484   0.79978   0.10720   0.00000  Uiso   1.00
C160   C     0.05418   0.89418   0.08246   0.00000  Uiso   1.00
C161   C     0.97174   0.95397   0.06774   0.00000  Uiso   1.00
H162   H     0.85644   0.63451   0.15200   0.00000  Uiso   1.00
H163   H     0.87870   0.45040   0.10942   0.00000  Uiso   1.00
H164   H     0.88499   0.64380   0.23958   0.00000  Uiso   1.00
H165   H     0.77818   0.79998   0.10975   0.00000  Uiso   1.00
H166   H     0.94670   0.26104   0.05795   0.00000  Uiso   1.00
H167   H     0.95995   0.66887   0.33239   0.00000  Uiso   1.00
H168   H     0.73470   0.99821   0.05862   0.00000  Uiso   1.00
H169   H     0.19014   0.74837   0.11902   0.00000  Uiso   1.00
H170   H     0.23071   0.57051   0.07463   0.00000  Uiso   1.00
H171   H     0.23700   0.76391   0.20478   0.00000  Uiso   1.00
H172   H     0.13018   0.92009   0.07495   0.00000  Uiso   1.00
H173   H     0.23240   0.35852   0.02971   0.00000  Uiso   1.00
H174   H     0.24565   0.76636   0.30415   0.00000  Uiso   1.00
H175   H     0.02041   0.09569   0.03038   0.00000  Uiso   1.00
O176   O     0.11023   0.19071   0.01524   0.00000  Uiso   1.00
O177   O     0.12760   0.72578   0.37529   0.00000  Uiso   1.00
O178   O     0.83209   0.15786   0.01610   0.00000  Uiso   1.00
N179   N     0.00837   0.30840   0.05739   0.00000  Uiso   1.00
N180   N     0.02076   0.68968   0.31397   0.00000  Uiso   1.00
N181   N     0.81017   0.99760   0.05803   0.00000  Uiso   1.00
N182   N     0.16210   0.36086   0.04220   0.00000  Uiso   1.00
N183   N     0.17449   0.74214   0.29877   0.00000  Uiso   1.00
N184   N     0.96390   0.05006   0.04283   0.00000  Uiso   1.00
C185   C     0.56711   0.16059   0.14444   0.00000  Uiso   1.00
C186   C     0.50874   0.07636   0.11673   0.00000  Uiso   1.00
C187   C     0.54530   0.97631   0.10190   0.00000  Uiso   1.00
C188   C     0.48011   0.91086   0.07699   0.00000  Uiso   1.00
C189   C     0.40440   0.77494   0.03546   0.00000  Uiso   1.00
C190   C     0.50532   0.18142   0.18745   0.00000  Uiso   1.00
C191   C     0.53901   0.16972   0.23208   0.00000  Uiso   1.00
C192   C     0.47094   0.19274   0.26670   0.00000  Uiso   1.00
C193   C     0.38994   0.22001   0.33495   0.00000  Uiso   1.00
C194   C     0.56336   0.26627   0.11690   0.00000  Uiso   1.00
C195   C     0.64585   0.32593   0.10223   0.00000  Uiso   1.00
C196   C     0.62663   0.42040   0.07746   0.00000  Uiso   1.00
C197   C     0.63576   0.57942   0.03619   0.00000  Uiso   1.00
C198   C     0.38632   0.22228   0.12657   0.00000  Uiso   1.00
C199   C     0.41054   0.10987   0.10703   0.00000  Uiso   1.00
C200   C     0.34528   0.04456   0.08213   0.00000  Uiso   1.00
C201   C     0.38173   0.94443   0.06727   0.00000  Uiso   1.00
C202   C     0.40712   0.21493   0.17774   0.00000  Uiso   1.00
C203   C     0.33899   0.23797   0.21231   0.00000  Uiso   1.00
C204   C     0.37256   0.22630   0.25697   0.00000  Uiso   1.00
C205   C     0.46516   0.29978   0.10720   0.00000  Uiso   1.00
C206   C     0.44582   0.39418   0.08246   0.00000  Uiso   1.00
C207   C     0.52826   0.45397   0.06774   0.00000  Uiso   1.00
H208   H     0.64356   0.13451   0.15200   0.00000  Uiso   1.00
H209   H     0.62130   0.95040   0.10942   0.00000  Uiso   1.00
H210   H     0.61501   0.14380   0.23958   0.00000  Uiso   1.00
H211   H     0.72182   0.29998   0.10975   0.00000  Uiso   1.00
H212   H     0.55330   0.76104   0.05795   0.00000  Uiso   1.00
H213   H     0.54005   0.16887   0.33239   0.00000  Uiso   1.00
H214   H     0.76530   0.49821   0.05862   0.00000  Uiso   1.00
H215   H     0.30986   0.24837   0.11902   0.00000  Uiso   1.00
H216   H     0.26929   0.07051   0.07463   0.00000  Uiso   1.00
H217   H     0.26300   0.26391   0.20478   0.00000  Uiso   1.00
H218   H     0.36982   0.42009   0.07495   0.00000  Uiso   1.00
H219   H     0.26760   0.85852   0.02971   0.00000  Uiso   1.00
H220   H     0.25435   0.26636   0.30415   0.00000  Uiso   1.00
H221   H     0.47959   0.59569   0.03038   0.00000  Uiso   1.00
O222   O     0.38977   0.69071   0.01524   0.00000  Uiso   1.00
O223   O     0.37240   0.22578   0.37529   0.00000  Uiso   1.00
O224   O     0.66791   0.65786   0.01610   0.00000  Uiso   1.00
N225   N     0.49163   0.80840   0.05739   0.00000  Uiso   1.00
N226   N     0.47924   0.18968   0.31397   0.00000  Uiso   1.00
N227   N     0.68983   0.49760   0.05803   0.00000  Uiso   1.00
N228   N     0.33790   0.86086   0.04220   0.00000  Uiso   1.00
N229   N     0.32551   0.24214   0.29877   0.00000  Uiso   1.00
N230   N     0.53610   0.55006   0.04283   0.00000  Uiso   1.00
C231   C     0.93289   0.83941   0.64444   0.00000  Uiso   1.00
C232   C     0.99126   0.92364   0.61673   0.00000  Uiso   1.00
C233   C     0.95470   0.02369   0.60190   0.00000  Uiso   1.00
C234   C     0.01989   0.08914   0.57699   0.00000  Uiso   1.00
C235   C     0.09560   0.22506   0.53546   0.00000  Uiso   1.00
C236   C     0.99468   0.81858   0.68745   0.00000  Uiso   1.00
C237   C     0.96099   0.83028   0.73208   0.00000  Uiso   1.00
C238   C     0.02906   0.80726   0.76670   0.00000  Uiso   1.00
C239   C     0.11006   0.77999   0.83495   0.00000  Uiso   1.00
C240   C     0.93664   0.73373   0.61690   0.00000  Uiso   1.00
C241   C     0.85415   0.67407   0.60223   0.00000  Uiso   1.00
C242   C     0.87337   0.57960   0.57746   0.00000  Uiso   1.00
C243   C     0.86424   0.42058   0.53619   0.00000  Uiso   1.00
C244   C     0.11368   0.77772   0.62657   0.00000  Uiso   1.00
C245   C     0.08946   0.89013   0.60703   0.00000  Uiso   1.00
C246   C     0.15472   0.95544   0.58213   0.00000  Uiso   1.00
C247   C     0.11827   0.05557   0.56727   0.00000  Uiso   1.00
C248   C     0.09288   0.78507   0.67774   0.00000  Uiso   1.00
C249   C     0.16101   0.76203   0.71231   0.00000  Uiso   1.00
C250   C     0.12744   0.77370   0.75697   0.00000  Uiso   1.00
C251   C     0.03484   0.70022   0.60720   0.00000  Uiso   1.00
C252   C     0.05418   0.60582   0.58246   0.00000  Uiso   1.00
C253   C     0.97174   0.54603   0.56774   0.00000  Uiso   1.00
H254   H     0.85644   0.86549   0.65200   0.00000  Uiso   1.00
H255   H     0.87870   0.04960   0.60942   0.00000  Uiso   1.00
H256   H     0.88499   0.85620   0.73958   0.00000  Uiso   1.00
H257   H     0.77818   0.70002   0.60975   0.00000  Uiso   1.00
H258   H     0.94670   0.23896   0.55795   0.00000  Uiso   1.00
H259   H     0.95995   0.83113   0.83239   0.00000  Uiso   1.00
H260   H     0.73470   0.50179   0.55862   0.00000  Uiso   1.00
H261   H     0.19014   0.75163   0.61902   0.00000  Uiso   1.00
H262   H     0.23071   0.92949   0.57463   0.00000  Uiso   1.00
H263   H     0.23700   0.73609   0.70478   0.00000  Uiso   1.00
H264   H     0.13018   0.57991   0.57495   0.00000  Uiso   1.00
H265   H     0.23240   0.14148   0.52971   0.00000  Uiso   1.00
H266   H     0.24565   0.73364   0.80415   0.00000  Uiso   1.00
H267   H     0.02041   0.40431   0.53038   0.00000  Uiso   1.00
O268   O     0.11023   0.30929   0.51524   0.00000  Uiso   1.00
O269   O     0.12760   0.77422   0.87529   0.00000  Uiso   1.00
O270   O     0.83209   0.34214   0.51610   0.00000  Uiso   1.00
N271   N     0.00837   0.19160   0.55739   0.00000  Uiso   1.00
N272   N     0.02076   0.81032   0.81397   0.00000  Uiso   1.00
N273   N     0.81017   0.50240   0.55803   0.00000  Uiso   1.00
N274   N     0.16210   0.13914   0.54220   0.00000  Uiso   1.00
N275   N     0.17449   0.75786   0.79877   0.00000  Uiso   1.00
N276   N     0.96390   0.44994   0.54283   0.00000  Uiso   1.00
C277   C     0.43289   0.66059   0.35556   0.00000  Uiso   1.00
C278   C     0.49126   0.57636   0.38327   0.00000  Uiso   1.00
C279   C     0.45470   0.47631   0.39810   0.00000  Uiso   1.00
C280   C     0.51989   0.41086   0.42301   0.00000  Uiso   1.00
C281   C     0.59560   0.27494   0.46454   0.00000  Uiso   1.00
C282   C     0.49468   0.68142   0.31255   0.00000  Uiso   1.00
C283   C     0.46099   0.66972   0.26792   0.00000  Uiso   1.00
C284   C     0.52906   0.69274   0.23330   0.00000  Uiso   1.00
C285   C     0.61006   0.72001   0.16505   0.00000  Uiso   1.00
C286   C     0.43664   0.76627   0.38310   0.00000  Uiso   1.00
C287   C     0.35415   0.82593   0.39777   0.00000  Uiso   1.00
C288   C     0.37337   0.92040   0.42254   0.00000  Uiso   1.00
C289   C     0.36424   0.07942   0.46381   0.00000  Uiso   1.00
C290   C     0.61368   0.72228   0.37343   0.00000  Uiso   1.00
C291   C     0.58946   0.60987   0.39297   0.00000  Uiso   1.00
C292   C     0.65472   0.54456   0.41787   0.00000  Uiso   1.00
C293   C     0.61827   0.44443   0.43273   0.00000  Uiso   1.00
C294   C     0.59288   0.71493   0.32226   0.00000  Uiso   1.00
C295   C     0.66101   0.73797   0.28769   0.00000  Uiso   1.00
C296   C     0.62744   0.72630   0.24303   0.00000  Uiso   1.00
C297   C     0.53484   0.79978   0.39280   0.00000  Uiso   1.00
C298   C     0.55418   0.89418   0.41754   0.00000  Uiso   1.00
C299   C     0.47174   0.95397   0.43226   0.00000  Uiso   1.00
H300   H     0.35644   0.63451   0.34800   0.00000  Uiso   1.00
H301   H     0.37870   0.45040   0.39058   0.00000  Uiso   1.00
H302   H     0.38499   0.64380   0.26042   0.00000  Uiso   1.00
H303   H     0.27818   0.79998   0.39025   0.00000  Uiso   1.00
H304   H     0.44670   0.26104   0.44205   0.00000  Uiso   1.00
H305   H     0.45995   0.66887   0.16761   0.00000  Uiso   1.00
H306   H     0.23470   0.99821   0.44138   0.00000  Uiso   1.00
H307   H     0.69014   0.74837   0.38098   0.00000  Uiso   1.00
H308   H     0.73071   0.57051   0.42537   0.00000  Uiso   1.00
H309   H     0.73700   0.76391   0.29522   0.00000  Uiso   1.00
H310   H     0.63018   0.92009   0.42505   0.00000  Uiso   1.00
H311   H     0.73240   0.35852   0.47029   0.00000  Uiso   1.00
H312   H     0.74565   0.76636   0.19585   0.00000  Uiso   1.00
H313   H     0.52041   0.09569   0.46962   0.00000  Uiso   1.00
O314   O     0.61023   0.19071   0.48476   0.00000  Uiso   1.00
O315   O     0.62760   0.72578   0.12471   0.00000  Uiso   1.00
O316   O     0.33209   0.15786   0.48390   0.00000  Uiso   1.00
N317   N     0.50837   0.30840   0.44261   0.00000  Uiso   1.00
N318   N     0.52076   0.68968   0.18603   0.00000  Uiso   1.00
N319   N     0.31017   0.99760   0.44197   0.00000  Uiso   1.00
N320   N     0.66210   0.36086   0.45780   0.00000  Uiso   1.00
N321   N     0.67449   0.74214   0.20123   0.00000  Uiso   1.00
N322   N     0.46390   0.05006   0.45717   0.00000  Uiso   1.00
C323   C     0.06711   0.33941   0.85556   0.00000  Uiso   1.00
C324   C     0.00874   0.42364   0.88327   0.00000  Uiso   1.00
C325   C     0.04530   0.52369   0.89810   0.00000  Uiso   1.00
C326   C     0.98011   0.58914   0.92301   0.00000  Uiso   1.00
C327   C     0.90440   0.72506   0.96454   0.00000  Uiso   1.00
C328   C     0.00532   0.31858   0.81255   0.00000  Uiso   1.00
C329   C     0.03901   0.33028   0.76792   0.00000  Uiso   1.00
C330   C     0.97094   0.30726   0.73330   0.00000  Uiso   1.00
C331   C     0.88994   0.27999   0.66505   0.00000  Uiso   1.00
C332   C     0.06336   0.23373   0.88310   0.00000  Uiso   1.00
C333   C     0.14585   0.17407   0.89777   0.00000  Uiso   1.00
C334   C     0.12663   0.07960   0.92254   0.00000  Uiso   1.00
C335   C     0.13576   0.92058   0.96381   0.00000  Uiso   1.00
C336   C     0.88632   0.27772   0.87343   0.00000  Uiso   1.00
C337   C     0.91054   0.39013   0.89297   0.00000  Uiso   1.00
C338   C     0.84528   0.45544   0.91787   0.00000  Uiso   1.00
C339   C     0.88173   0.55557   0.93273   0.00000  Uiso   1.00
C340   C     0.90712   0.28507   0.82226   0.00000  Uiso   1.00
C341   C     0.83899   0.26203   0.78769   0.00000  Uiso   1.00
C342   C     0.87256   0.27370   0.74303   0.00000  Uiso   1.00
C343   C     0.96516   0.20022   0.89280   0.00000  Uiso   1.00
C344   C     0.94582   0.10582   0.91754   0.00000  Uiso   1.00
C345   C     0.02826   0.04603   0.93226   0.00000  Uiso   1.00
H346   H     0.14356   0.36549   0.84800   0.00000  Uiso   1.00
H347   H     0.12130   0.54960   0.89058   0.00000  Uiso   1.00
H348   H     0.11501   0.35620   0.76042   0.00000  Uiso   1.00
H349   H     0.22182   0.20002   0.89025   0.00000  Uiso   1.00
H350   H     0.05330   0.73896   0.94205   0.00000  Uiso   1.00
H351   H     0.04005   0.33113   0.66761   0.00000  Uiso   1.00
H352   H     0.26530   0.00179   0.94138   0.00000  Uiso   1.00
H353   H     0.80986   0.25163   0.88098   0.00000  Uiso   1.00
H354   H     0.76929   0.42949   0.92537   0.00000  Uiso   1.00
H355   H     0.76300   0.23609   0.79522   0.00000  Uiso   1.00
H356   H     0.86982   0.07991   0.92505   0.00000  Uiso   1.00
H357   H     0.76760   0.64148   0.97029   0.00000  Uiso   1.00
H358   H     0.75435   0.23364   0.69585   0.00000  Uiso   1.00
H359   H     0.97959   0.90431   0.96962   0.00000  Uiso   1.00
O360   O     0.88977   0.80929   0.98476   0.00000  Uiso   1.00
O361   O     0.87240   0.27422   0.62471   0.00000  Uiso   1.00
O362   O     0.16791   0.84214   0.98390   0.00000  Uiso   1.00
N363   N     0.99163   0.69160   0.94261   0.00000  Uiso   1.00
N364   N     0.97924   0.31032   0.68603   0.00000  Uiso   1.00
N365   N     0.18983   0.00240   0.94197   0.00000  Uiso   1.00
N366   N     0.83790   0.63914   0.95780   0.00000  Uiso   1.00
N367   N     0.82551   0.25786   0.70123   0.00000  Uiso   1.00
N368   N     0.03610   0.94994   0.95717   0.00000  Uiso   1.00
