data_job_05421
_audit_creation_date              2018-12-19
_audit_creation_method            'Materials Studio'
_symmetry_space_group_name_H-M    'P1'
_symmetry_Int_Tables_number       1
_symmetry_cell_setting            triclinic
loop_
_symmetry_equiv_pos_as_xyz
  x,y,z
_cell_length_a                    20.7039
_cell_length_b                    13.5703
_cell_length_c                    9.6977
_cell_angle_alpha                 90.0000
_cell_angle_beta                  103.0011
_cell_angle_gamma                 90.0000
loop_
_atom_site_label
_atom_site_type_symbol
_atom_site_fract_x
_atom_site_fract_y
_atom_site_fract_z
_atom_site_U_iso_or_equiv
_atom_site_adp_type
_atom_site_occupancy
C1     C     0.20953   0.98897   0.20257   0.00000  Uiso   1.00
C2     C     0.27464   0.03716   0.19098   0.00000  Uiso   1.00
C3     C     0.32142   0.99667   0.12514   0.00000  Uiso   1.00
C4     C     0.37772   0.05242   0.12593   0.00000  Uiso   1.00
C5     C     0.47744   0.11311   0.09821   0.00000  Uiso   1.00
C6     C     0.21047   0.98518   0.36017   0.00000  Uiso   1.00
C7     C     0.20328   0.90098   0.43656   0.00000  Uiso   1.00
C8     C     0.20556   0.91298   0.57976   0.00000  Uiso   1.00
C9     C     0.20560   0.89296   0.81467   0.00000  Uiso   1.00
C10    C     0.15502   0.06176   0.13777   0.00000  Uiso   1.00
C11    C     0.10121   0.04194   0.02719   0.00000  Uiso   1.00
C12    C     0.05680   0.11841   0.98317   0.00000  Uiso   1.00
C13    C     0.97075   0.21729   0.87278   0.00000  Uiso   1.00
C14    C     0.22635   0.15999   0.32105   0.00000  Uiso   1.00
C15    C     0.28377   0.13006   0.25534   0.00000  Uiso   1.00
C16    C     0.34002   0.18589   0.25622   0.00000  Uiso   1.00
C17    C     0.38687   0.14549   0.19039   0.00000  Uiso   1.00
C18    C     0.21960   0.07807   0.42452   0.00000  Uiso   1.00
C19    C     0.22188   0.09020   0.56764   0.00000  Uiso   1.00
C20    C     0.21471   0.00604   0.64423   0.00000  Uiso   1.00
C21    C     0.16415   0.15465   0.20212   0.00000  Uiso   1.00
C22    C     0.11982   0.23116   0.15827   0.00000  Uiso   1.00
C23    C     0.06595   0.21147   0.04764   0.00000  Uiso   1.00
H24    H     0.20242   0.91664   0.15248   0.00000  Uiso   1.00
H25    H     0.31433   0.92477   0.07536   0.00000  Uiso   1.00
H26    H     0.19621   0.82910   0.38673   0.00000  Uiso   1.00
H27    H     0.09416   0.97005   0.97742   0.00000  Uiso   1.00
H28    H     0.44244   0.97474   0.01829   0.00000  Uiso   1.00
H29    H     0.19335   0.77301   0.67481   0.00000  Uiso   1.00
H30    H     0.97815   0.07022   0.81171   0.00000  Uiso   1.00
H31    H     0.23346   0.23232   0.37115   0.00000  Uiso   1.00
H32    H     0.34707   0.25777   0.30603   0.00000  Uiso   1.00
H33    H     0.22895   0.16210   0.61740   0.00000  Uiso   1.00
H34    H     0.12690   0.30304   0.20809   0.00000  Uiso   1.00
H35    H     0.46902   0.24501   0.20551   0.00000  Uiso   1.00
H36    H     0.21992   0.04328   0.86203   0.00000  Uiso   1.00
H37    H     0.00473   0.34049   0.99893   0.00000  Uiso   1.00
O38    O     0.52992   0.12091   0.06516   0.00000  Uiso   1.00
O39    O     0.20311   0.85626   0.92647   0.00000  Uiso   1.00
O40    O     0.92078   0.24618   0.79410   0.00000  Uiso   1.00
N41    N     0.43310   0.03486   0.07127   0.00000  Uiso   1.00
N42    N     0.20022   0.84626   0.68508   0.00000  Uiso   1.00
N43    N     0.99902   0.12411   0.87817   0.00000  Uiso   1.00
N44    N     0.44740   0.18030   0.17201   0.00000  Uiso   1.00
N45    N     0.21452   0.99169   0.78582   0.00000  Uiso   1.00
N46    N     0.01332   0.26954   0.97891   0.00000  Uiso   1.00
C47    C     0.79047   0.48897   0.29743   0.00000  Uiso   1.00
C48    C     0.72536   0.53716   0.30902   0.00000  Uiso   1.00
C49    C     0.67858   0.49667   0.37486   0.00000  Uiso   1.00
C50    C     0.62228   0.55242   0.37407   0.00000  Uiso   1.00
C51    C     0.52256   0.61311   0.40179   0.00000  Uiso   1.00
C52    C     0.78953   0.48518   0.13983   0.00000  Uiso   1.00
C53    C     0.79672   0.40098   0.06344   0.00000  Uiso   1.00
C54    C     0.79444   0.41298   0.92024   0.00000  Uiso   1.00
C55    C     0.79440   0.39296   0.68533   0.00000  Uiso   1.00
C56    C     0.84498   0.56176   0.36223   0.00000  Uiso   1.00
C57    C     0.89879   0.54194   0.47281   0.00000  Uiso   1.00
C58    C     0.94320   0.61841   0.51683   0.00000  Uiso   1.00
C59    C     0.02925   0.71729   0.62722   0.00000  Uiso   1.00
C60    C     0.77365   0.65999   0.17895   0.00000  Uiso   1.00
C61    C     0.71623   0.63006   0.24466   0.00000  Uiso   1.00
C62    C     0.65998   0.68589   0.24378   0.00000  Uiso   1.00
C63    C     0.61313   0.64549   0.30961   0.00000  Uiso   1.00
C64    C     0.78040   0.57807   0.07548   0.00000  Uiso   1.00
C65    C     0.77812   0.59020   0.93236   0.00000  Uiso   1.00
C66    C     0.78529   0.50604   0.85577   0.00000  Uiso   1.00
C67    C     0.83585   0.65465   0.29788   0.00000  Uiso   1.00
C68    C     0.88018   0.73116   0.34173   0.00000  Uiso   1.00
C69    C     0.93405   0.71147   0.45236   0.00000  Uiso   1.00
H70    H     0.79758   0.41664   0.34752   0.00000  Uiso   1.00
H71    H     0.68567   0.42477   0.42464   0.00000  Uiso   1.00
H72    H     0.80379   0.32910   0.11327   0.00000  Uiso   1.00
H73    H     0.90584   0.47005   0.52258   0.00000  Uiso   1.00
H74    H     0.55756   0.47474   0.48171   0.00000  Uiso   1.00
H75    H     0.80665   0.27301   0.82519   0.00000  Uiso   1.00
H76    H     0.02185   0.57022   0.68829   0.00000  Uiso   1.00
H77    H     0.76654   0.73232   0.12885   0.00000  Uiso   1.00
H78    H     0.65293   0.75777   0.19397   0.00000  Uiso   1.00
H79    H     0.77105   0.66210   0.88260   0.00000  Uiso   1.00
H80    H     0.87310   0.80304   0.29191   0.00000  Uiso   1.00
H81    H     0.53098   0.74501   0.29449   0.00000  Uiso   1.00
H82    H     0.78008   0.54328   0.63797   0.00000  Uiso   1.00
H83    H     0.99527   0.84049   0.50107   0.00000  Uiso   1.00
O84    O     0.47008   0.62091   0.43484   0.00000  Uiso   1.00
O85    O     0.79689   0.35626   0.57353   0.00000  Uiso   1.00
O86    O     0.07922   0.74618   0.70590   0.00000  Uiso   1.00
N87    N     0.56690   0.53486   0.42873   0.00000  Uiso   1.00
N88    N     0.79978   0.34626   0.81492   0.00000  Uiso   1.00
N89    N     0.00098   0.62411   0.62183   0.00000  Uiso   1.00
N90    N     0.55260   0.68030   0.32799   0.00000  Uiso   1.00
N91    N     0.78548   0.49169   0.71418   0.00000  Uiso   1.00
N92    N     0.98668   0.76954   0.52109   0.00000  Uiso   1.00
C93    C     0.79047   0.01103   0.79743   0.00000  Uiso   1.00
C94    C     0.72536   0.96284   0.80902   0.00000  Uiso   1.00
C95    C     0.67858   0.00333   0.87486   0.00000  Uiso   1.00
C96    C     0.62228   0.94758   0.87407   0.00000  Uiso   1.00
C97    C     0.52256   0.88689   0.90179   0.00000  Uiso   1.00
C98    C     0.78953   0.01482   0.63983   0.00000  Uiso   1.00
C99    C     0.79672   0.09902   0.56344   0.00000  Uiso   1.00
C100   C     0.79444   0.08702   0.42024   0.00000  Uiso   1.00
C101   C     0.79440   0.10704   0.18533   0.00000  Uiso   1.00
C102   C     0.84498   0.93824   0.86223   0.00000  Uiso   1.00
C103   C     0.89879   0.95806   0.97281   0.00000  Uiso   1.00
C104   C     0.94320   0.88159   0.01683   0.00000  Uiso   1.00
C105   C     0.02925   0.78271   0.12722   0.00000  Uiso   1.00
C106   C     0.77365   0.84001   0.67895   0.00000  Uiso   1.00
C107   C     0.71623   0.86994   0.74466   0.00000  Uiso   1.00
C108   C     0.65998   0.81411   0.74378   0.00000  Uiso   1.00
C109   C     0.61313   0.85451   0.80961   0.00000  Uiso   1.00
C110   C     0.78040   0.92193   0.57548   0.00000  Uiso   1.00
C111   C     0.77812   0.90980   0.43236   0.00000  Uiso   1.00
C112   C     0.78529   0.99396   0.35577   0.00000  Uiso   1.00
C113   C     0.83585   0.84535   0.79788   0.00000  Uiso   1.00
C114   C     0.88018   0.76884   0.84173   0.00000  Uiso   1.00
C115   C     0.93405   0.78853   0.95236   0.00000  Uiso   1.00
H116   H     0.79758   0.08336   0.84752   0.00000  Uiso   1.00
H117   H     0.68567   0.07523   0.92464   0.00000  Uiso   1.00
H118   H     0.80379   0.17090   0.61327   0.00000  Uiso   1.00
H119   H     0.90584   0.02995   0.02258   0.00000  Uiso   1.00
H120   H     0.55756   0.02526   0.98171   0.00000  Uiso   1.00
H121   H     0.80665   0.22699   0.32519   0.00000  Uiso   1.00
H122   H     0.02185   0.92978   0.18829   0.00000  Uiso   1.00
H123   H     0.76654   0.76768   0.62885   0.00000  Uiso   1.00
H124   H     0.65293   0.74223   0.69397   0.00000  Uiso   1.00
H125   H     0.77105   0.83790   0.38260   0.00000  Uiso   1.00
H126   H     0.87310   0.69696   0.79191   0.00000  Uiso   1.00
H127   H     0.53098   0.75499   0.79449   0.00000  Uiso   1.00
H128   H     0.78008   0.95672   0.13797   0.00000  Uiso   1.00
H129   H     0.99527   0.65951   0.00107   0.00000  Uiso   1.00
O130   O     0.47008   0.87909   0.93484   0.00000  Uiso   1.00
O131   O     0.79689   0.14374   0.07353   0.00000  Uiso   1.00
O132   O     0.07922   0.75382   0.20590   0.00000  Uiso   1.00
N133   N     0.56690   0.96514   0.92873   0.00000  Uiso   1.00
N134   N     0.79978   0.15374   0.31492   0.00000  Uiso   1.00
N135   N     0.00098   0.87589   0.12183   0.00000  Uiso   1.00
N136   N     0.55260   0.81970   0.82799   0.00000  Uiso   1.00
N137   N     0.78548   0.00831   0.21418   0.00000  Uiso   1.00
N138   N     0.98668   0.73046   0.02109   0.00000  Uiso   1.00
C139   C     0.20953   0.51103   0.70257   0.00000  Uiso   1.00
C140   C     0.27464   0.46284   0.69098   0.00000  Uiso   1.00
C141   C     0.32142   0.50333   0.62514   0.00000  Uiso   1.00
C142   C     0.37772   0.44758   0.62593   0.00000  Uiso   1.00
C143   C     0.47744   0.38689   0.59821   0.00000  Uiso   1.00
C144   C     0.21047   0.51482   0.86017   0.00000  Uiso   1.00
C145   C     0.20328   0.59902   0.93656   0.00000  Uiso   1.00
C146   C     0.20556   0.58702   0.07976   0.00000  Uiso   1.00
C147   C     0.20560   0.60704   0.31467   0.00000  Uiso   1.00
C148   C     0.15502   0.43824   0.63777   0.00000  Uiso   1.00
C149   C     0.10121   0.45806   0.52719   0.00000  Uiso   1.00
C150   C     0.05680   0.38159   0.48317   0.00000  Uiso   1.00
C151   C     0.97075   0.28271   0.37278   0.00000  Uiso   1.00
C152   C     0.22635   0.34001   0.82105   0.00000  Uiso   1.00
C153   C     0.28377   0.36994   0.75534   0.00000  Uiso   1.00
C154   C     0.34002   0.31411   0.75622   0.00000  Uiso   1.00
C155   C     0.38687   0.35451   0.69039   0.00000  Uiso   1.00
C156   C     0.21960   0.42193   0.92452   0.00000  Uiso   1.00
C157   C     0.22188   0.40980   0.06764   0.00000  Uiso   1.00
C158   C     0.21471   0.49396   0.14423   0.00000  Uiso   1.00
C159   C     0.16415   0.34535   0.70212   0.00000  Uiso   1.00
C160   C     0.11982   0.26884   0.65827   0.00000  Uiso   1.00
C161   C     0.06595   0.28853   0.54764   0.00000  Uiso   1.00
H162   H     0.20242   0.58336   0.65248   0.00000  Uiso   1.00
H163   H     0.31433   0.57523   0.57536   0.00000  Uiso   1.00
H164   H     0.19621   0.67090   0.88673   0.00000  Uiso   1.00
H165   H     0.09416   0.52995   0.47742   0.00000  Uiso   1.00
H166   H     0.44244   0.52526   0.51829   0.00000  Uiso   1.00
H167   H     0.19335   0.72699   0.17481   0.00000  Uiso   1.00
H168   H     0.97815   0.42978   0.31171   0.00000  Uiso   1.00
H169   H     0.23346   0.26768   0.87115   0.00000  Uiso   1.00
H170   H     0.34707   0.24223   0.80603   0.00000  Uiso   1.00
H171   H     0.22895   0.33790   0.11740   0.00000  Uiso   1.00
H172   H     0.12690   0.19696   0.70809   0.00000  Uiso   1.00
H173   H     0.46902   0.25499   0.70551   0.00000  Uiso   1.00
H174   H     0.21992   0.45672   0.36203   0.00000  Uiso   1.00
H175   H     0.00473   0.15951   0.49893   0.00000  Uiso   1.00
O176   O     0.52992   0.37909   0.56516   0.00000  Uiso   1.00
O177   O     0.20311   0.64374   0.42647   0.00000  Uiso   1.00
O178   O     0.92078   0.25382   0.29410   0.00000  Uiso   1.00
N179   N     0.43310   0.46514   0.57127   0.00000  Uiso   1.00
N180   N     0.20022   0.65374   0.18508   0.00000  Uiso   1.00
N181   N     0.99902   0.37589   0.37817   0.00000  Uiso   1.00
N182   N     0.44740   0.31970   0.67201   0.00000  Uiso   1.00
N183   N     0.21452   0.50831   0.28582   0.00000  Uiso   1.00
N184   N     0.01332   0.23046   0.47891   0.00000  Uiso   1.00
