data_job_03373
_audit_creation_date              2018-12-19
_audit_creation_method            'Materials Studio'
_symmetry_space_group_name_H-M    'P1'
_symmetry_Int_Tables_number       1
_symmetry_cell_setting            triclinic
loop_
_symmetry_equiv_pos_as_xyz
  x,y,z
_cell_length_a                    14.4954
_cell_length_b                    17.1052
_cell_length_c                    32.5862
_cell_angle_alpha                 90.0000
_cell_angle_beta                  117.9240
_cell_angle_gamma                 90.0000
loop_
_atom_site_label
_atom_site_type_symbol
_atom_site_fract_x
_atom_site_fract_y
_atom_site_fract_z
_atom_site_U_iso_or_equiv
_atom_site_adp_type
_atom_site_occupancy
C1     C     0.71139   0.56030   0.11204   0.00000  Uiso   1.00
C2     C     0.64154   0.63228   0.10037   0.00000  Uiso   1.00
C3     C     0.53475   0.63390   0.07097   0.00000  Uiso   1.00
C4     C     0.48495   0.70555   0.06481   0.00000  Uiso   1.00
C5     C     0.36810   0.80705   0.04326   0.00000  Uiso   1.00
C6     C     0.79711   0.58090   0.09927   0.00000  Uiso   1.00
C7     C     0.82113   0.53930   0.06894   0.00000  Uiso   1.00
C8     C     0.90231   0.56769   0.06186   0.00000  Uiso   1.00
C9     C     0.02705   0.58938   0.03863   0.00000  Uiso   1.00
C10    C     0.76507   0.55294   0.16481   0.00000  Uiso   1.00
C11    C     0.76217   0.48784   0.18959   0.00000  Uiso   1.00
C12    C     0.81639   0.49268   0.23770   0.00000  Uiso   1.00
C13    C     0.89137   0.47097   0.31623   0.00000  Uiso   1.00
C14    C     0.81286   0.68466   0.15339   0.00000  Uiso   1.00
C15    C     0.69665   0.69983   0.12283   0.00000  Uiso   1.00
C16    C     0.64700   0.77149   0.11672   0.00000  Uiso   1.00
C17    C     0.54015   0.77322   0.08731   0.00000  Uiso   1.00
C18    C     0.85222   0.64844   0.12173   0.00000  Uiso   1.00
C19    C     0.93339   0.67689   0.11469   0.00000  Uiso   1.00
C20    C     0.95752   0.63536   0.08436   0.00000  Uiso   1.00
C21    C     0.82018   0.62049   0.18727   0.00000  Uiso   1.00
C22    C     0.87442   0.62543   0.23535   0.00000  Uiso   1.00
C23    C     0.87160   0.56035   0.26020   0.00000  Uiso   1.00
H24    H     0.66849   0.50771   0.09455   0.00000  Uiso   1.00
H25    H     0.49212   0.58162   0.05359   0.00000  Uiso   1.00
H26    H     0.77848   0.48703   0.05157   0.00000  Uiso   1.00
H27    H     0.71952   0.43558   0.17220   0.00000  Uiso   1.00
H28    H     0.32090   0.69335   0.01806   0.00000  Uiso   1.00
H29    H     0.92471   0.49389   0.01382   0.00000  Uiso   1.00
H30    H     0.80038   0.38539   0.26820   0.00000  Uiso   1.00
H31    H     0.85577   0.73725   0.17088   0.00000  Uiso   1.00
H32    H     0.68967   0.82375   0.13410   0.00000  Uiso   1.00
H33    H     0.97602   0.72916   0.13208   0.00000  Uiso   1.00
H34    H     0.91706   0.67771   0.25272   0.00000  Uiso   1.00
H35    H     0.48123   0.88988   0.08341   0.00000  Uiso   1.00
H36    H     0.08505   0.69041   0.07917   0.00000  Uiso   1.00
H37    H     0.96072   0.58192   0.33355   0.00000  Uiso   1.00
O38    O     0.28843   0.84438   0.02516   0.00000  Uiso   1.00
O39    O     0.08062   0.58269   0.01960   0.00000  Uiso   1.00
O40    O     0.91749   0.44035   0.35333   0.00000  Uiso   1.00
N41    N     0.38142   0.72773   0.03850   0.00000  Uiso   1.00
N42    N     0.94594   0.54125   0.03452   0.00000  Uiso   1.00
N43    N     0.82973   0.43981   0.27235   0.00000  Uiso   1.00
N44    N     0.46770   0.83348   0.07366   0.00000  Uiso   1.00
N45    N     0.03222   0.64700   0.06969   0.00000  Uiso   1.00
N46    N     0.91600   0.54556   0.30751   0.00000  Uiso   1.00
C47    C     0.21139   0.06030   0.11204   0.00000  Uiso   1.00
C48    C     0.14154   0.13228   0.10037   0.00000  Uiso   1.00
C49    C     0.03475   0.13390   0.07097   0.00000  Uiso   1.00
C50    C     0.98495   0.20555   0.06481   0.00000  Uiso   1.00
C51    C     0.86810   0.30705   0.04326   0.00000  Uiso   1.00
C52    C     0.29711   0.08090   0.09927   0.00000  Uiso   1.00
C53    C     0.32113   0.03930   0.06894   0.00000  Uiso   1.00
C54    C     0.40231   0.06769   0.06186   0.00000  Uiso   1.00
C55    C     0.52705   0.08938   0.03863   0.00000  Uiso   1.00
C56    C     0.26507   0.05294   0.16481   0.00000  Uiso   1.00
C57    C     0.26217   0.98784   0.18959   0.00000  Uiso   1.00
C58    C     0.31639   0.99268   0.23770   0.00000  Uiso   1.00
C59    C     0.39137   0.97097   0.31623   0.00000  Uiso   1.00
C60    C     0.31286   0.18466   0.15339   0.00000  Uiso   1.00
C61    C     0.19665   0.19983   0.12283   0.00000  Uiso   1.00
C62    C     0.14700   0.27149   0.11672   0.00000  Uiso   1.00
C63    C     0.04015   0.27322   0.08731   0.00000  Uiso   1.00
C64    C     0.35222   0.14844   0.12173   0.00000  Uiso   1.00
C65    C     0.43339   0.17689   0.11469   0.00000  Uiso   1.00
C66    C     0.45752   0.13536   0.08436   0.00000  Uiso   1.00
C67    C     0.32018   0.12049   0.18727   0.00000  Uiso   1.00
C68    C     0.37442   0.12543   0.23535   0.00000  Uiso   1.00
C69    C     0.37160   0.06035   0.26020   0.00000  Uiso   1.00
H70    H     0.16849   0.00771   0.09455   0.00000  Uiso   1.00
H71    H     0.99212   0.08162   0.05359   0.00000  Uiso   1.00
H72    H     0.27848   0.98703   0.05157   0.00000  Uiso   1.00
H73    H     0.21952   0.93558   0.17220   0.00000  Uiso   1.00
H74    H     0.82090   0.19335   0.01806   0.00000  Uiso   1.00
H75    H     0.42471   0.99389   0.01382   0.00000  Uiso   1.00
H76    H     0.30038   0.88539   0.26820   0.00000  Uiso   1.00
H77    H     0.35577   0.23725   0.17088   0.00000  Uiso   1.00
H78    H     0.18967   0.32375   0.13410   0.00000  Uiso   1.00
H79    H     0.47602   0.22916   0.13208   0.00000  Uiso   1.00
H80    H     0.41706   0.17771   0.25272   0.00000  Uiso   1.00
H81    H     0.98123   0.38988   0.08341   0.00000  Uiso   1.00
H82    H     0.58505   0.19041   0.07917   0.00000  Uiso   1.00
H83    H     0.46072   0.08192   0.33355   0.00000  Uiso   1.00
O84    O     0.78843   0.34438   0.02516   0.00000  Uiso   1.00
O85    O     0.58062   0.08269   0.01960   0.00000  Uiso   1.00
O86    O     0.41749   0.94035   0.35333   0.00000  Uiso   1.00
N87    N     0.88142   0.22773   0.03850   0.00000  Uiso   1.00
N88    N     0.44594   0.04125   0.03452   0.00000  Uiso   1.00
N89    N     0.32973   0.93981   0.27235   0.00000  Uiso   1.00
N90    N     0.96770   0.33348   0.07366   0.00000  Uiso   1.00
N91    N     0.53222   0.14700   0.06969   0.00000  Uiso   1.00
N92    N     0.41600   0.04556   0.30751   0.00000  Uiso   1.00
C93    C     0.28861   0.56030   0.38796   0.00000  Uiso   1.00
C94    C     0.35846   0.63228   0.39963   0.00000  Uiso   1.00
C95    C     0.46525   0.63390   0.42903   0.00000  Uiso   1.00
C96    C     0.51505   0.70555   0.43519   0.00000  Uiso   1.00
C97    C     0.63190   0.80705   0.45674   0.00000  Uiso   1.00
C98    C     0.20289   0.58090   0.40073   0.00000  Uiso   1.00
C99    C     0.17887   0.53930   0.43106   0.00000  Uiso   1.00
C100   C     0.09769   0.56769   0.43814   0.00000  Uiso   1.00
C101   C     0.97295   0.58938   0.46137   0.00000  Uiso   1.00
C102   C     0.23493   0.55294   0.33519   0.00000  Uiso   1.00
C103   C     0.23783   0.48784   0.31041   0.00000  Uiso   1.00
C104   C     0.18361   0.49268   0.26230   0.00000  Uiso   1.00
C105   C     0.10863   0.47097   0.18377   0.00000  Uiso   1.00
C106   C     0.18714   0.68466   0.34661   0.00000  Uiso   1.00
C107   C     0.30335   0.69983   0.37717   0.00000  Uiso   1.00
C108   C     0.35300   0.77149   0.38328   0.00000  Uiso   1.00
C109   C     0.45985   0.77322   0.41269   0.00000  Uiso   1.00
C110   C     0.14778   0.64844   0.37827   0.00000  Uiso   1.00
C111   C     0.06661   0.67689   0.38531   0.00000  Uiso   1.00
C112   C     0.04248   0.63536   0.41564   0.00000  Uiso   1.00
C113   C     0.17982   0.62049   0.31273   0.00000  Uiso   1.00
C114   C     0.12558   0.62543   0.26465   0.00000  Uiso   1.00
C115   C     0.12840   0.56035   0.23980   0.00000  Uiso   1.00
H116   H     0.33151   0.50771   0.40545   0.00000  Uiso   1.00
H117   H     0.50788   0.58162   0.44641   0.00000  Uiso   1.00
H118   H     0.22152   0.48703   0.44843   0.00000  Uiso   1.00
H119   H     0.28048   0.43558   0.32780   0.00000  Uiso   1.00
H120   H     0.67910   0.69335   0.48194   0.00000  Uiso   1.00
H121   H     0.07529   0.49389   0.48618   0.00000  Uiso   1.00
H122   H     0.19962   0.38539   0.23180   0.00000  Uiso   1.00
H123   H     0.14423   0.73725   0.32912   0.00000  Uiso   1.00
H124   H     0.31033   0.82375   0.36590   0.00000  Uiso   1.00
H125   H     0.02398   0.72916   0.36792   0.00000  Uiso   1.00
H126   H     0.08294   0.67771   0.24728   0.00000  Uiso   1.00
H127   H     0.51877   0.88988   0.41659   0.00000  Uiso   1.00
H128   H     0.91495   0.69041   0.42083   0.00000  Uiso   1.00
H129   H     0.03928   0.58192   0.16645   0.00000  Uiso   1.00
O130   O     0.71157   0.84438   0.47484   0.00000  Uiso   1.00
O131   O     0.91938   0.58269   0.48040   0.00000  Uiso   1.00
O132   O     0.08251   0.44035   0.14667   0.00000  Uiso   1.00
N133   N     0.61858   0.72773   0.46150   0.00000  Uiso   1.00
N134   N     0.05406   0.54125   0.46548   0.00000  Uiso   1.00
N135   N     0.17027   0.43981   0.22765   0.00000  Uiso   1.00
N136   N     0.53230   0.83348   0.42634   0.00000  Uiso   1.00
N137   N     0.96778   0.64700   0.43031   0.00000  Uiso   1.00
N138   N     0.08400   0.54556   0.19249   0.00000  Uiso   1.00
C139   C     0.78861   0.06030   0.38796   0.00000  Uiso   1.00
C140   C     0.85846   0.13228   0.39963   0.00000  Uiso   1.00
C141   C     0.96525   0.13390   0.42903   0.00000  Uiso   1.00
C142   C     0.01505   0.20555   0.43519   0.00000  Uiso   1.00
C143   C     0.13190   0.30705   0.45674   0.00000  Uiso   1.00
C144   C     0.70289   0.08090   0.40073   0.00000  Uiso   1.00
C145   C     0.67887   0.03930   0.43106   0.00000  Uiso   1.00
C146   C     0.59769   0.06769   0.43814   0.00000  Uiso   1.00
C147   C     0.47295   0.08938   0.46137   0.00000  Uiso   1.00
C148   C     0.73493   0.05294   0.33519   0.00000  Uiso   1.00
C149   C     0.73783   0.98784   0.31041   0.00000  Uiso   1.00
C150   C     0.68361   0.99268   0.26230   0.00000  Uiso   1.00
C151   C     0.60863   0.97097   0.18377   0.00000  Uiso   1.00
C152   C     0.68714   0.18466   0.34661   0.00000  Uiso   1.00
C153   C     0.80335   0.19983   0.37717   0.00000  Uiso   1.00
C154   C     0.85300   0.27149   0.38328   0.00000  Uiso   1.00
C155   C     0.95985   0.27322   0.41269   0.00000  Uiso   1.00
C156   C     0.64778   0.14844   0.37827   0.00000  Uiso   1.00
C157   C     0.56661   0.17689   0.38531   0.00000  Uiso   1.00
C158   C     0.54248   0.13536   0.41564   0.00000  Uiso   1.00
C159   C     0.67982   0.12049   0.31273   0.00000  Uiso   1.00
C160   C     0.62558   0.12543   0.26465   0.00000  Uiso   1.00
C161   C     0.62840   0.06035   0.23980   0.00000  Uiso   1.00
H162   H     0.83151   0.00771   0.40545   0.00000  Uiso   1.00
H163   H     0.00788   0.08162   0.44641   0.00000  Uiso   1.00
H164   H     0.72152   0.98703   0.44843   0.00000  Uiso   1.00
H165   H     0.78048   0.93558   0.32780   0.00000  Uiso   1.00
H166   H     0.17910   0.19335   0.48194   0.00000  Uiso   1.00
H167   H     0.57529   0.99389   0.48618   0.00000  Uiso   1.00
H168   H     0.69962   0.88539   0.23180   0.00000  Uiso   1.00
H169   H     0.64423   0.23725   0.32912   0.00000  Uiso   1.00
H170   H     0.81033   0.32375   0.36590   0.00000  Uiso   1.00
H171   H     0.52398   0.22916   0.36792   0.00000  Uiso   1.00
H172   H     0.58294   0.17771   0.24728   0.00000  Uiso   1.00
H173   H     0.01877   0.38988   0.41659   0.00000  Uiso   1.00
H174   H     0.41495   0.19041   0.42083   0.00000  Uiso   1.00
H175   H     0.53928   0.08192   0.16645   0.00000  Uiso   1.00
O176   O     0.21157   0.34438   0.47484   0.00000  Uiso   1.00
O177   O     0.41938   0.08269   0.48040   0.00000  Uiso   1.00
O178   O     0.58251   0.94035   0.14667   0.00000  Uiso   1.00
N179   N     0.11858   0.22773   0.46150   0.00000  Uiso   1.00
N180   N     0.55406   0.04125   0.46548   0.00000  Uiso   1.00
N181   N     0.67027   0.93981   0.22765   0.00000  Uiso   1.00
N182   N     0.03230   0.33348   0.42634   0.00000  Uiso   1.00
N183   N     0.46778   0.14700   0.43031   0.00000  Uiso   1.00
N184   N     0.58400   0.04556   0.19249   0.00000  Uiso   1.00
C185   C     0.28861   0.43970   0.88796   0.00000  Uiso   1.00
C186   C     0.35846   0.36772   0.89963   0.00000  Uiso   1.00
C187   C     0.46525   0.36610   0.92903   0.00000  Uiso   1.00
C188   C     0.51505   0.29445   0.93519   0.00000  Uiso   1.00
C189   C     0.63190   0.19295   0.95674   0.00000  Uiso   1.00
C190   C     0.20289   0.41910   0.90073   0.00000  Uiso   1.00
C191   C     0.17887   0.46070   0.93106   0.00000  Uiso   1.00
C192   C     0.09769   0.43231   0.93814   0.00000  Uiso   1.00
C193   C     0.97295   0.41062   0.96137   0.00000  Uiso   1.00
C194   C     0.23493   0.44706   0.83519   0.00000  Uiso   1.00
C195   C     0.23783   0.51216   0.81041   0.00000  Uiso   1.00
C196   C     0.18361   0.50732   0.76230   0.00000  Uiso   1.00
C197   C     0.10863   0.52903   0.68377   0.00000  Uiso   1.00
C198   C     0.18714   0.31534   0.84661   0.00000  Uiso   1.00
C199   C     0.30335   0.30017   0.87717   0.00000  Uiso   1.00
C200   C     0.35300   0.22851   0.88328   0.00000  Uiso   1.00
C201   C     0.45985   0.22678   0.91269   0.00000  Uiso   1.00
C202   C     0.14778   0.35156   0.87827   0.00000  Uiso   1.00
C203   C     0.06661   0.32311   0.88531   0.00000  Uiso   1.00
C204   C     0.04248   0.36464   0.91564   0.00000  Uiso   1.00
C205   C     0.17982   0.37951   0.81273   0.00000  Uiso   1.00
C206   C     0.12558   0.37457   0.76465   0.00000  Uiso   1.00
C207   C     0.12840   0.43965   0.73980   0.00000  Uiso   1.00
H208   H     0.33151   0.49229   0.90545   0.00000  Uiso   1.00
H209   H     0.50788   0.41838   0.94641   0.00000  Uiso   1.00
H210   H     0.22152   0.51297   0.94843   0.00000  Uiso   1.00
H211   H     0.28048   0.56442   0.82780   0.00000  Uiso   1.00
H212   H     0.67910   0.30665   0.98194   0.00000  Uiso   1.00
H213   H     0.07529   0.50611   0.98618   0.00000  Uiso   1.00
H214   H     0.19962   0.61461   0.73180   0.00000  Uiso   1.00
H215   H     0.14423   0.26275   0.82912   0.00000  Uiso   1.00
H216   H     0.31033   0.17625   0.86590   0.00000  Uiso   1.00
H217   H     0.02398   0.27084   0.86792   0.00000  Uiso   1.00
H218   H     0.08294   0.32229   0.74728   0.00000  Uiso   1.00
H219   H     0.51877   0.11012   0.91659   0.00000  Uiso   1.00
H220   H     0.91495   0.30959   0.92083   0.00000  Uiso   1.00
H221   H     0.03928   0.41808   0.66645   0.00000  Uiso   1.00
O222   O     0.71157   0.15562   0.97484   0.00000  Uiso   1.00
O223   O     0.91938   0.41731   0.98040   0.00000  Uiso   1.00
O224   O     0.08251   0.55965   0.64667   0.00000  Uiso   1.00
N225   N     0.61858   0.27227   0.96150   0.00000  Uiso   1.00
N226   N     0.05406   0.45875   0.96548   0.00000  Uiso   1.00
N227   N     0.17027   0.56019   0.72765   0.00000  Uiso   1.00
N228   N     0.53230   0.16652   0.92634   0.00000  Uiso   1.00
N229   N     0.96778   0.35300   0.93031   0.00000  Uiso   1.00
N230   N     0.08400   0.45444   0.69249   0.00000  Uiso   1.00
C231   C     0.78861   0.93970   0.88796   0.00000  Uiso   1.00
C232   C     0.85846   0.86772   0.89963   0.00000  Uiso   1.00
C233   C     0.96525   0.86610   0.92903   0.00000  Uiso   1.00
C234   C     0.01505   0.79445   0.93519   0.00000  Uiso   1.00
C235   C     0.13190   0.69295   0.95674   0.00000  Uiso   1.00
C236   C     0.70289   0.91910   0.90073   0.00000  Uiso   1.00
C237   C     0.67887   0.96070   0.93106   0.00000  Uiso   1.00
C238   C     0.59769   0.93231   0.93814   0.00000  Uiso   1.00
C239   C     0.47295   0.91062   0.96137   0.00000  Uiso   1.00
C240   C     0.73493   0.94706   0.83519   0.00000  Uiso   1.00
C241   C     0.73783   0.01216   0.81041   0.00000  Uiso   1.00
C242   C     0.68361   0.00732   0.76230   0.00000  Uiso   1.00
C243   C     0.60863   0.02903   0.68377   0.00000  Uiso   1.00
C244   C     0.68714   0.81534   0.84661   0.00000  Uiso   1.00
C245   C     0.80335   0.80017   0.87717   0.00000  Uiso   1.00
C246   C     0.85300   0.72851   0.88328   0.00000  Uiso   1.00
C247   C     0.95985   0.72678   0.91269   0.00000  Uiso   1.00
C248   C     0.64778   0.85156   0.87827   0.00000  Uiso   1.00
C249   C     0.56661   0.82311   0.88531   0.00000  Uiso   1.00
C250   C     0.54248   0.86464   0.91564   0.00000  Uiso   1.00
C251   C     0.67982   0.87951   0.81273   0.00000  Uiso   1.00
C252   C     0.62558   0.87457   0.76465   0.00000  Uiso   1.00
C253   C     0.62840   0.93965   0.73980   0.00000  Uiso   1.00
H254   H     0.83151   0.99229   0.90545   0.00000  Uiso   1.00
H255   H     0.00788   0.91838   0.94641   0.00000  Uiso   1.00
H256   H     0.72152   0.01297   0.94843   0.00000  Uiso   1.00
H257   H     0.78048   0.06442   0.82780   0.00000  Uiso   1.00
H258   H     0.17910   0.80665   0.98194   0.00000  Uiso   1.00
H259   H     0.57529   0.00611   0.98618   0.00000  Uiso   1.00
H260   H     0.69962   0.11461   0.73180   0.00000  Uiso   1.00
H261   H     0.64423   0.76275   0.82912   0.00000  Uiso   1.00
H262   H     0.81033   0.67625   0.86590   0.00000  Uiso   1.00
H263   H     0.52398   0.77084   0.86792   0.00000  Uiso   1.00
H264   H     0.58294   0.82229   0.74728   0.00000  Uiso   1.00
H265   H     0.01877   0.61012   0.91659   0.00000  Uiso   1.00
H266   H     0.41495   0.80959   0.92083   0.00000  Uiso   1.00
H267   H     0.53928   0.91808   0.66645   0.00000  Uiso   1.00
O268   O     0.21157   0.65562   0.97484   0.00000  Uiso   1.00
O269   O     0.41938   0.91731   0.98040   0.00000  Uiso   1.00
O270   O     0.58251   0.05965   0.64667   0.00000  Uiso   1.00
N271   N     0.11858   0.77227   0.96150   0.00000  Uiso   1.00
N272   N     0.55406   0.95875   0.96548   0.00000  Uiso   1.00
N273   N     0.67027   0.06019   0.72765   0.00000  Uiso   1.00
N274   N     0.03230   0.66652   0.92634   0.00000  Uiso   1.00
N275   N     0.46778   0.85300   0.93031   0.00000  Uiso   1.00
N276   N     0.58400   0.95444   0.69249   0.00000  Uiso   1.00
C277   C     0.71139   0.43970   0.61204   0.00000  Uiso   1.00
C278   C     0.64154   0.36772   0.60037   0.00000  Uiso   1.00
C279   C     0.53475   0.36610   0.57097   0.00000  Uiso   1.00
C280   C     0.48495   0.29445   0.56481   0.00000  Uiso   1.00
C281   C     0.36810   0.19295   0.54326   0.00000  Uiso   1.00
C282   C     0.79711   0.41910   0.59927   0.00000  Uiso   1.00
C283   C     0.82113   0.46070   0.56894   0.00000  Uiso   1.00
C284   C     0.90231   0.43231   0.56186   0.00000  Uiso   1.00
C285   C     0.02705   0.41062   0.53863   0.00000  Uiso   1.00
C286   C     0.76507   0.44706   0.66481   0.00000  Uiso   1.00
C287   C     0.76217   0.51216   0.68959   0.00000  Uiso   1.00
C288   C     0.81639   0.50732   0.73770   0.00000  Uiso   1.00
C289   C     0.89137   0.52903   0.81623   0.00000  Uiso   1.00
C290   C     0.81286   0.31534   0.65339   0.00000  Uiso   1.00
C291   C     0.69665   0.30017   0.62283   0.00000  Uiso   1.00
C292   C     0.64700   0.22851   0.61672   0.00000  Uiso   1.00
C293   C     0.54015   0.22678   0.58731   0.00000  Uiso   1.00
C294   C     0.85222   0.35156   0.62173   0.00000  Uiso   1.00
C295   C     0.93339   0.32311   0.61469   0.00000  Uiso   1.00
C296   C     0.95752   0.36464   0.58436   0.00000  Uiso   1.00
C297   C     0.82018   0.37951   0.68727   0.00000  Uiso   1.00
C298   C     0.87442   0.37457   0.73535   0.00000  Uiso   1.00
C299   C     0.87160   0.43965   0.76020   0.00000  Uiso   1.00
H300   H     0.66849   0.49229   0.59455   0.00000  Uiso   1.00
H301   H     0.49212   0.41838   0.55359   0.00000  Uiso   1.00
H302   H     0.77848   0.51297   0.55157   0.00000  Uiso   1.00
H303   H     0.71952   0.56442   0.67220   0.00000  Uiso   1.00
H304   H     0.32090   0.30665   0.51806   0.00000  Uiso   1.00
H305   H     0.92471   0.50611   0.51382   0.00000  Uiso   1.00
H306   H     0.80038   0.61461   0.76820   0.00000  Uiso   1.00
H307   H     0.85577   0.26275   0.67088   0.00000  Uiso   1.00
H308   H     0.68967   0.17625   0.63410   0.00000  Uiso   1.00
H309   H     0.97602   0.27084   0.63208   0.00000  Uiso   1.00
H310   H     0.91706   0.32229   0.75272   0.00000  Uiso   1.00
H311   H     0.48123   0.11012   0.58341   0.00000  Uiso   1.00
H312   H     0.08505   0.30959   0.57917   0.00000  Uiso   1.00
H313   H     0.96072   0.41808   0.83355   0.00000  Uiso   1.00
O314   O     0.28843   0.15562   0.52516   0.00000  Uiso   1.00
O315   O     0.08062   0.41731   0.51960   0.00000  Uiso   1.00
O316   O     0.91749   0.55965   0.85333   0.00000  Uiso   1.00
N317   N     0.38142   0.27227   0.53850   0.00000  Uiso   1.00
N318   N     0.94594   0.45875   0.53452   0.00000  Uiso   1.00
N319   N     0.82973   0.56019   0.77235   0.00000  Uiso   1.00
N320   N     0.46770   0.16652   0.57366   0.00000  Uiso   1.00
N321   N     0.03222   0.35300   0.56969   0.00000  Uiso   1.00
N322   N     0.91600   0.45444   0.80751   0.00000  Uiso   1.00
C323   C     0.21139   0.93970   0.61204   0.00000  Uiso   1.00
C324   C     0.14154   0.86772   0.60037   0.00000  Uiso   1.00
C325   C     0.03475   0.86610   0.57097   0.00000  Uiso   1.00
C326   C     0.98495   0.79445   0.56481   0.00000  Uiso   1.00
C327   C     0.86810   0.69295   0.54326   0.00000  Uiso   1.00
C328   C     0.29711   0.91910   0.59927   0.00000  Uiso   1.00
C329   C     0.32113   0.96070   0.56894   0.00000  Uiso   1.00
C330   C     0.40231   0.93231   0.56186   0.00000  Uiso   1.00
C331   C     0.52705   0.91062   0.53863   0.00000  Uiso   1.00
C332   C     0.26507   0.94706   0.66481   0.00000  Uiso   1.00
C333   C     0.26217   0.01216   0.68959   0.00000  Uiso   1.00
C334   C     0.31639   0.00732   0.73770   0.00000  Uiso   1.00
C335   C     0.39137   0.02903   0.81623   0.00000  Uiso   1.00
C336   C     0.31286   0.81534   0.65339   0.00000  Uiso   1.00
C337   C     0.19665   0.80017   0.62283   0.00000  Uiso   1.00
C338   C     0.14700   0.72851   0.61672   0.00000  Uiso   1.00
C339   C     0.04015   0.72678   0.58731   0.00000  Uiso   1.00
C340   C     0.35222   0.85156   0.62173   0.00000  Uiso   1.00
C341   C     0.43339   0.82311   0.61469   0.00000  Uiso   1.00
C342   C     0.45752   0.86464   0.58436   0.00000  Uiso   1.00
C343   C     0.32018   0.87951   0.68727   0.00000  Uiso   1.00
C344   C     0.37442   0.87457   0.73535   0.00000  Uiso   1.00
C345   C     0.37160   0.93965   0.76020   0.00000  Uiso   1.00
H346   H     0.16849   0.99229   0.59455   0.00000  Uiso   1.00
H347   H     0.99212   0.91838   0.55359   0.00000  Uiso   1.00
H348   H     0.27848   0.01297   0.55157   0.00000  Uiso   1.00
H349   H     0.21952   0.06442   0.67220   0.00000  Uiso   1.00
H350   H     0.82090   0.80665   0.51806   0.00000  Uiso   1.00
H351   H     0.42471   0.00611   0.51382   0.00000  Uiso   1.00
H352   H     0.30038   0.11461   0.76820   0.00000  Uiso   1.00
H353   H     0.35577   0.76275   0.67088   0.00000  Uiso   1.00
H354   H     0.18967   0.67625   0.63410   0.00000  Uiso   1.00
H355   H     0.47602   0.77084   0.63208   0.00000  Uiso   1.00
H356   H     0.41706   0.82229   0.75272   0.00000  Uiso   1.00
H357   H     0.98123   0.61012   0.58341   0.00000  Uiso   1.00
H358   H     0.58505   0.80959   0.57917   0.00000  Uiso   1.00
H359   H     0.46072   0.91808   0.83355   0.00000  Uiso   1.00
O360   O     0.78843   0.65562   0.52516   0.00000  Uiso   1.00
O361   O     0.58062   0.91731   0.51960   0.00000  Uiso   1.00
O362   O     0.41749   0.05965   0.85333   0.00000  Uiso   1.00
N363   N     0.88142   0.77227   0.53850   0.00000  Uiso   1.00
N364   N     0.44594   0.95875   0.53452   0.00000  Uiso   1.00
N365   N     0.32973   0.06019   0.77235   0.00000  Uiso   1.00
N366   N     0.96770   0.66652   0.57366   0.00000  Uiso   1.00
N367   N     0.53222   0.85300   0.56969   0.00000  Uiso   1.00
N368   N     0.41600   0.95444   0.80751   0.00000  Uiso   1.00
