data_job_00159
_audit_creation_date              2018-12-19
_audit_creation_method            'Materials Studio'
_symmetry_space_group_name_H-M    'P1'
_symmetry_Int_Tables_number       1
_symmetry_cell_setting            triclinic
loop_
_symmetry_equiv_pos_as_xyz
  x,y,z
_cell_length_a                    29.0227
_cell_length_b                    14.8501
_cell_length_c                    9.7799
_cell_angle_alpha                 90.0000
_cell_angle_beta                  100.8811
_cell_angle_gamma                 90.0000
loop_
_atom_site_label
_atom_site_type_symbol
_atom_site_fract_x
_atom_site_fract_y
_atom_site_fract_z
_atom_site_U_iso_or_equiv
_atom_site_adp_type
_atom_site_occupancy
C1     C     0.39954   0.65821   0.79090   0.00000  Uiso   1.00
C2     C     0.40325   0.75631   0.74821   0.00000  Uiso   1.00
C3     C     0.43735   0.79169   0.68144   0.00000  Uiso   1.00
C4     C     0.43467   0.88312   0.65131   0.00000  Uiso   1.00
C5     C     0.44585   0.02725   0.57969   0.00000  Uiso   1.00
C6     C     0.40000   0.65932   0.94707   0.00000  Uiso   1.00
C7     C     0.43136   0.61313   0.04750   0.00000  Uiso   1.00
C8     C     0.42594   0.62290   0.18477   0.00000  Uiso   1.00
C9     C     0.43205   0.61638   0.42187   0.00000  Uiso   1.00
C10    C     0.35056   0.62715   0.72212   0.00000  Uiso   1.00
C11    C     0.34035   0.55390   0.63345   0.00000  Uiso   1.00
C12    C     0.29330   0.53657   0.58135   0.00000  Uiso   1.00
C13    C     0.22264   0.48011   0.46920   0.00000  Uiso   1.00
C14    C     0.33414   0.75766   0.85610   0.00000  Uiso   1.00
C15    C     0.36773   0.81033   0.78363   0.00000  Uiso   1.00
C16    C     0.36499   0.90173   0.75358   0.00000  Uiso   1.00
C17    C     0.39909   0.93724   0.68678   0.00000  Uiso   1.00
C18    C     0.36448   0.71333   0.98249   0.00000  Uiso   1.00
C19    C     0.35901   0.72316   0.11964   0.00000  Uiso   1.00
C20    C     0.39035   0.67701   0.22025   0.00000  Uiso   1.00
C21    C     0.31503   0.68117   0.75754   0.00000  Uiso   1.00
C22    C     0.26799   0.66394   0.70558   0.00000  Uiso   1.00
C23    C     0.25771   0.59068   0.61684   0.00000  Uiso   1.00
H24    H     0.42720   0.61615   0.76334   0.00000  Uiso   1.00
H25    H     0.46484   0.74987   0.65407   0.00000  Uiso   1.00
H26    H     0.45885   0.57133   0.02006   0.00000  Uiso   1.00
H27    H     0.36785   0.51211   0.60607   0.00000  Uiso   1.00
H28    H     0.49092   0.92195   0.54858   0.00000  Uiso   1.00
H29    H     0.47827   0.54546   0.32029   0.00000  Uiso   1.00
H30    H     0.28638   0.42059   0.44731   0.00000  Uiso   1.00
H31    H     0.30648   0.79972   0.88368   0.00000  Uiso   1.00
H32    H     0.33750   0.94351   0.78100   0.00000  Uiso   1.00
H33    H     0.33151   0.76497   0.14700   0.00000  Uiso   1.00
H34    H     0.24051   0.70575   0.73301   0.00000  Uiso   1.00
H35    H     0.38757   0.07912   0.65161   0.00000  Uiso   1.00
H36    H     0.37492   0.70263   0.42333   0.00000  Uiso   1.00
H37    H     0.18303   0.57776   0.55034   0.00000  Uiso   1.00
O38    O     0.46184   0.09182   0.53042   0.00000  Uiso   1.00
O39    O     0.44524   0.59787   0.54287   0.00000  Uiso   1.00
O40    O     0.19348   0.43405   0.39754   0.00000  Uiso   1.00
N41    N     0.46233   0.93920   0.58689   0.00000  Uiso   1.00
N42    N     0.45051   0.58722   0.30840   0.00000  Uiso   1.00
N43    N     0.27111   0.47046   0.49227   0.00000  Uiso   1.00
N44    N     0.40672   0.02378   0.64233   0.00000  Uiso   1.00
N45    N     0.39490   0.67179   0.36384   0.00000  Uiso   1.00
N46    N     0.21550   0.55503   0.54771   0.00000  Uiso   1.00
C47    C     0.89954   0.15821   0.79090   0.00000  Uiso   1.00
C48    C     0.90325   0.25631   0.74821   0.00000  Uiso   1.00
C49    C     0.93735   0.29169   0.68144   0.00000  Uiso   1.00
C50    C     0.93467   0.38312   0.65131   0.00000  Uiso   1.00
C51    C     0.94585   0.52725   0.57969   0.00000  Uiso   1.00
C52    C     0.90000   0.15932   0.94707   0.00000  Uiso   1.00
C53    C     0.93136   0.11313   0.04750   0.00000  Uiso   1.00
C54    C     0.92594   0.12290   0.18477   0.00000  Uiso   1.00
C55    C     0.93205   0.11638   0.42187   0.00000  Uiso   1.00
C56    C     0.85056   0.12715   0.72212   0.00000  Uiso   1.00
C57    C     0.84035   0.05390   0.63345   0.00000  Uiso   1.00
C58    C     0.79330   0.03657   0.58135   0.00000  Uiso   1.00
C59    C     0.72264   0.98011   0.46920   0.00000  Uiso   1.00
C60    C     0.83414   0.25766   0.85610   0.00000  Uiso   1.00
C61    C     0.86773   0.31033   0.78363   0.00000  Uiso   1.00
C62    C     0.86499   0.40173   0.75358   0.00000  Uiso   1.00
C63    C     0.89909   0.43724   0.68678   0.00000  Uiso   1.00
C64    C     0.86448   0.21333   0.98249   0.00000  Uiso   1.00
C65    C     0.85901   0.22316   0.11964   0.00000  Uiso   1.00
C66    C     0.89035   0.17701   0.22025   0.00000  Uiso   1.00
C67    C     0.81503   0.18117   0.75754   0.00000  Uiso   1.00
C68    C     0.76799   0.16394   0.70558   0.00000  Uiso   1.00
C69    C     0.75771   0.09068   0.61684   0.00000  Uiso   1.00
H70    H     0.92720   0.11615   0.76334   0.00000  Uiso   1.00
H71    H     0.96484   0.24987   0.65407   0.00000  Uiso   1.00
H72    H     0.95885   0.07133   0.02006   0.00000  Uiso   1.00
H73    H     0.86785   0.01211   0.60607   0.00000  Uiso   1.00
H74    H     0.99092   0.42195   0.54858   0.00000  Uiso   1.00
H75    H     0.97827   0.04546   0.32029   0.00000  Uiso   1.00
H76    H     0.78638   0.92059   0.44731   0.00000  Uiso   1.00
H77    H     0.80648   0.29972   0.88368   0.00000  Uiso   1.00
H78    H     0.83750   0.44351   0.78100   0.00000  Uiso   1.00
H79    H     0.83151   0.26497   0.14700   0.00000  Uiso   1.00
H80    H     0.74051   0.20575   0.73301   0.00000  Uiso   1.00
H81    H     0.88757   0.57912   0.65161   0.00000  Uiso   1.00
H82    H     0.87492   0.20263   0.42333   0.00000  Uiso   1.00
H83    H     0.68303   0.07776   0.55034   0.00000  Uiso   1.00
O84    O     0.96184   0.59182   0.53042   0.00000  Uiso   1.00
O85    O     0.94524   0.09787   0.54287   0.00000  Uiso   1.00
O86    O     0.69348   0.93405   0.39754   0.00000  Uiso   1.00
N87    N     0.96233   0.43920   0.58689   0.00000  Uiso   1.00
N88    N     0.95051   0.08722   0.30840   0.00000  Uiso   1.00
N89    N     0.77111   0.97046   0.49227   0.00000  Uiso   1.00
N90    N     0.90672   0.52378   0.64233   0.00000  Uiso   1.00
N91    N     0.89490   0.17179   0.36384   0.00000  Uiso   1.00
N92    N     0.71550   0.05503   0.54771   0.00000  Uiso   1.00
C93    C     0.60046   0.65821   0.70910   0.00000  Uiso   1.00
C94    C     0.59675   0.75631   0.75179   0.00000  Uiso   1.00
C95    C     0.56265   0.79169   0.81856   0.00000  Uiso   1.00
C96    C     0.56533   0.88312   0.84869   0.00000  Uiso   1.00
C97    C     0.55415   0.02725   0.92031   0.00000  Uiso   1.00
C98    C     0.60000   0.65932   0.55293   0.00000  Uiso   1.00
C99    C     0.56864   0.61313   0.45250   0.00000  Uiso   1.00
C100   C     0.57406   0.62290   0.31523   0.00000  Uiso   1.00
C101   C     0.56795   0.61638   0.07813   0.00000  Uiso   1.00
C102   C     0.64944   0.62715   0.77788   0.00000  Uiso   1.00
C103   C     0.65965   0.55390   0.86655   0.00000  Uiso   1.00
C104   C     0.70670   0.53657   0.91865   0.00000  Uiso   1.00
C105   C     0.77736   0.48011   0.03080   0.00000  Uiso   1.00
C106   C     0.66586   0.75766   0.64390   0.00000  Uiso   1.00
C107   C     0.63227   0.81033   0.71637   0.00000  Uiso   1.00
C108   C     0.63501   0.90173   0.74642   0.00000  Uiso   1.00
C109   C     0.60091   0.93724   0.81322   0.00000  Uiso   1.00
C110   C     0.63552   0.71333   0.51751   0.00000  Uiso   1.00
C111   C     0.64099   0.72316   0.38036   0.00000  Uiso   1.00
C112   C     0.60965   0.67701   0.27975   0.00000  Uiso   1.00
C113   C     0.68497   0.68117   0.74246   0.00000  Uiso   1.00
C114   C     0.73201   0.66394   0.79442   0.00000  Uiso   1.00
C115   C     0.74229   0.59068   0.88316   0.00000  Uiso   1.00
H116   H     0.57280   0.61615   0.73666   0.00000  Uiso   1.00
H117   H     0.53516   0.74987   0.84593   0.00000  Uiso   1.00
H118   H     0.54115   0.57133   0.47994   0.00000  Uiso   1.00
H119   H     0.63215   0.51211   0.89393   0.00000  Uiso   1.00
H120   H     0.50908   0.92195   0.95142   0.00000  Uiso   1.00
H121   H     0.52173   0.54546   0.17971   0.00000  Uiso   1.00
H122   H     0.71362   0.42059   0.05269   0.00000  Uiso   1.00
H123   H     0.69352   0.79972   0.61632   0.00000  Uiso   1.00
H124   H     0.66250   0.94351   0.71900   0.00000  Uiso   1.00
H125   H     0.66849   0.76497   0.35300   0.00000  Uiso   1.00
H126   H     0.75949   0.70575   0.76699   0.00000  Uiso   1.00
H127   H     0.61243   0.07912   0.84839   0.00000  Uiso   1.00
H128   H     0.62508   0.70263   0.07667   0.00000  Uiso   1.00
H129   H     0.81697   0.57776   0.94966   0.00000  Uiso   1.00
O130   O     0.53816   0.09182   0.96958   0.00000  Uiso   1.00
O131   O     0.55476   0.59787   0.95713   0.00000  Uiso   1.00
O132   O     0.80652   0.43405   0.10246   0.00000  Uiso   1.00
N133   N     0.53767   0.93920   0.91311   0.00000  Uiso   1.00
N134   N     0.54949   0.58722   0.19160   0.00000  Uiso   1.00
N135   N     0.72889   0.47046   0.00773   0.00000  Uiso   1.00
N136   N     0.59328   0.02378   0.85767   0.00000  Uiso   1.00
N137   N     0.60510   0.67179   0.13616   0.00000  Uiso   1.00
N138   N     0.78450   0.55503   0.95229   0.00000  Uiso   1.00
C139   C     0.10046   0.15821   0.70910   0.00000  Uiso   1.00
C140   C     0.09675   0.25631   0.75179   0.00000  Uiso   1.00
C141   C     0.06265   0.29169   0.81856   0.00000  Uiso   1.00
C142   C     0.06533   0.38312   0.84869   0.00000  Uiso   1.00
C143   C     0.05415   0.52725   0.92031   0.00000  Uiso   1.00
C144   C     0.10000   0.15932   0.55293   0.00000  Uiso   1.00
C145   C     0.06864   0.11313   0.45250   0.00000  Uiso   1.00
C146   C     0.07406   0.12290   0.31523   0.00000  Uiso   1.00
C147   C     0.06795   0.11638   0.07813   0.00000  Uiso   1.00
C148   C     0.14944   0.12715   0.77788   0.00000  Uiso   1.00
C149   C     0.15965   0.05390   0.86655   0.00000  Uiso   1.00
C150   C     0.20670   0.03657   0.91865   0.00000  Uiso   1.00
C151   C     0.27736   0.98011   0.03080   0.00000  Uiso   1.00
C152   C     0.16586   0.25766   0.64390   0.00000  Uiso   1.00
C153   C     0.13227   0.31033   0.71637   0.00000  Uiso   1.00
C154   C     0.13501   0.40173   0.74642   0.00000  Uiso   1.00
C155   C     0.10091   0.43724   0.81322   0.00000  Uiso   1.00
C156   C     0.13552   0.21333   0.51751   0.00000  Uiso   1.00
C157   C     0.14099   0.22316   0.38036   0.00000  Uiso   1.00
C158   C     0.10965   0.17701   0.27975   0.00000  Uiso   1.00
C159   C     0.18497   0.18117   0.74246   0.00000  Uiso   1.00
C160   C     0.23201   0.16394   0.79442   0.00000  Uiso   1.00
C161   C     0.24229   0.09068   0.88316   0.00000  Uiso   1.00
H162   H     0.07280   0.11615   0.73666   0.00000  Uiso   1.00
H163   H     0.03516   0.24987   0.84593   0.00000  Uiso   1.00
H164   H     0.04115   0.07133   0.47994   0.00000  Uiso   1.00
H165   H     0.13215   0.01211   0.89393   0.00000  Uiso   1.00
H166   H     0.00908   0.42195   0.95142   0.00000  Uiso   1.00
H167   H     0.02173   0.04546   0.17971   0.00000  Uiso   1.00
H168   H     0.21362   0.92059   0.05269   0.00000  Uiso   1.00
H169   H     0.19352   0.29972   0.61632   0.00000  Uiso   1.00
H170   H     0.16250   0.44351   0.71900   0.00000  Uiso   1.00
H171   H     0.16849   0.26497   0.35300   0.00000  Uiso   1.00
H172   H     0.25949   0.20575   0.76699   0.00000  Uiso   1.00
H173   H     0.11243   0.57912   0.84839   0.00000  Uiso   1.00
H174   H     0.12508   0.20263   0.07667   0.00000  Uiso   1.00
H175   H     0.31697   0.07776   0.94966   0.00000  Uiso   1.00
O176   O     0.03816   0.59182   0.96958   0.00000  Uiso   1.00
O177   O     0.05476   0.09787   0.95713   0.00000  Uiso   1.00
O178   O     0.30652   0.93405   0.10246   0.00000  Uiso   1.00
N179   N     0.03767   0.43920   0.91311   0.00000  Uiso   1.00
N180   N     0.04949   0.08722   0.19160   0.00000  Uiso   1.00
N181   N     0.22889   0.97046   0.00773   0.00000  Uiso   1.00
N182   N     0.09328   0.52378   0.85767   0.00000  Uiso   1.00
N183   N     0.10510   0.17179   0.13616   0.00000  Uiso   1.00
N184   N     0.28450   0.05503   0.95229   0.00000  Uiso   1.00
C185   C     0.60046   0.34179   0.20910   0.00000  Uiso   1.00
C186   C     0.59675   0.24369   0.25179   0.00000  Uiso   1.00
C187   C     0.56265   0.20831   0.31856   0.00000  Uiso   1.00
C188   C     0.56533   0.11688   0.34869   0.00000  Uiso   1.00
C189   C     0.55415   0.97275   0.42031   0.00000  Uiso   1.00
C190   C     0.60000   0.34068   0.05293   0.00000  Uiso   1.00
C191   C     0.56864   0.38687   0.95250   0.00000  Uiso   1.00
C192   C     0.57406   0.37710   0.81523   0.00000  Uiso   1.00
C193   C     0.56795   0.38362   0.57813   0.00000  Uiso   1.00
C194   C     0.64944   0.37285   0.27788   0.00000  Uiso   1.00
C195   C     0.65965   0.44610   0.36655   0.00000  Uiso   1.00
C196   C     0.70670   0.46343   0.41865   0.00000  Uiso   1.00
C197   C     0.77736   0.51989   0.53080   0.00000  Uiso   1.00
C198   C     0.66586   0.24234   0.14390   0.00000  Uiso   1.00
C199   C     0.63227   0.18967   0.21637   0.00000  Uiso   1.00
C200   C     0.63501   0.09827   0.24642   0.00000  Uiso   1.00
C201   C     0.60091   0.06276   0.31322   0.00000  Uiso   1.00
C202   C     0.63552   0.28667   0.01751   0.00000  Uiso   1.00
C203   C     0.64099   0.27684   0.88036   0.00000  Uiso   1.00
C204   C     0.60965   0.32299   0.77975   0.00000  Uiso   1.00
C205   C     0.68497   0.31883   0.24246   0.00000  Uiso   1.00
C206   C     0.73201   0.33606   0.29442   0.00000  Uiso   1.00
C207   C     0.74229   0.40932   0.38316   0.00000  Uiso   1.00
H208   H     0.57280   0.38385   0.23666   0.00000  Uiso   1.00
H209   H     0.53516   0.25013   0.34593   0.00000  Uiso   1.00
H210   H     0.54115   0.42867   0.97994   0.00000  Uiso   1.00
H211   H     0.63215   0.48789   0.39393   0.00000  Uiso   1.00
H212   H     0.50908   0.07805   0.45142   0.00000  Uiso   1.00
H213   H     0.52173   0.45454   0.67971   0.00000  Uiso   1.00
H214   H     0.71362   0.57941   0.55269   0.00000  Uiso   1.00
H215   H     0.69352   0.20028   0.11632   0.00000  Uiso   1.00
H216   H     0.66250   0.05649   0.21900   0.00000  Uiso   1.00
H217   H     0.66849   0.23503   0.85300   0.00000  Uiso   1.00
H218   H     0.75949   0.29425   0.26699   0.00000  Uiso   1.00
H219   H     0.61243   0.92088   0.34839   0.00000  Uiso   1.00
H220   H     0.62508   0.29737   0.57667   0.00000  Uiso   1.00
H221   H     0.81697   0.42224   0.44966   0.00000  Uiso   1.00
O222   O     0.53816   0.90818   0.46958   0.00000  Uiso   1.00
O223   O     0.55476   0.40213   0.45713   0.00000  Uiso   1.00
O224   O     0.80652   0.56595   0.60246   0.00000  Uiso   1.00
N225   N     0.53767   0.06080   0.41311   0.00000  Uiso   1.00
N226   N     0.54949   0.41278   0.69160   0.00000  Uiso   1.00
N227   N     0.72889   0.52954   0.50773   0.00000  Uiso   1.00
N228   N     0.59328   0.97622   0.35767   0.00000  Uiso   1.00
N229   N     0.60510   0.32821   0.63616   0.00000  Uiso   1.00
N230   N     0.78450   0.44497   0.45229   0.00000  Uiso   1.00
C231   C     0.10046   0.84179   0.20910   0.00000  Uiso   1.00
C232   C     0.09675   0.74369   0.25179   0.00000  Uiso   1.00
C233   C     0.06265   0.70831   0.31856   0.00000  Uiso   1.00
C234   C     0.06533   0.61688   0.34869   0.00000  Uiso   1.00
C235   C     0.05415   0.47275   0.42031   0.00000  Uiso   1.00
C236   C     0.10000   0.84068   0.05293   0.00000  Uiso   1.00
C237   C     0.06864   0.88687   0.95250   0.00000  Uiso   1.00
C238   C     0.07406   0.87710   0.81523   0.00000  Uiso   1.00
C239   C     0.06795   0.88362   0.57813   0.00000  Uiso   1.00
C240   C     0.14944   0.87285   0.27788   0.00000  Uiso   1.00
C241   C     0.15965   0.94610   0.36655   0.00000  Uiso   1.00
C242   C     0.20670   0.96343   0.41865   0.00000  Uiso   1.00
C243   C     0.27736   0.01989   0.53080   0.00000  Uiso   1.00
C244   C     0.16586   0.74234   0.14390   0.00000  Uiso   1.00
C245   C     0.13227   0.68967   0.21637   0.00000  Uiso   1.00
C246   C     0.13501   0.59827   0.24642   0.00000  Uiso   1.00
C247   C     0.10091   0.56276   0.31322   0.00000  Uiso   1.00
C248   C     0.13552   0.78667   0.01751   0.00000  Uiso   1.00
C249   C     0.14099   0.77684   0.88036   0.00000  Uiso   1.00
C250   C     0.10965   0.82299   0.77975   0.00000  Uiso   1.00
C251   C     0.18497   0.81883   0.24246   0.00000  Uiso   1.00
C252   C     0.23201   0.83606   0.29442   0.00000  Uiso   1.00
C253   C     0.24229   0.90932   0.38316   0.00000  Uiso   1.00
H254   H     0.07280   0.88385   0.23666   0.00000  Uiso   1.00
H255   H     0.03516   0.75013   0.34593   0.00000  Uiso   1.00
H256   H     0.04115   0.92867   0.97994   0.00000  Uiso   1.00
H257   H     0.13215   0.98789   0.39393   0.00000  Uiso   1.00
H258   H     0.00908   0.57805   0.45142   0.00000  Uiso   1.00
H259   H     0.02173   0.95454   0.67971   0.00000  Uiso   1.00
H260   H     0.21362   0.07941   0.55269   0.00000  Uiso   1.00
H261   H     0.19352   0.70028   0.11632   0.00000  Uiso   1.00
H262   H     0.16250   0.55649   0.21900   0.00000  Uiso   1.00
H263   H     0.16849   0.73503   0.85300   0.00000  Uiso   1.00
H264   H     0.25949   0.79425   0.26699   0.00000  Uiso   1.00
H265   H     0.11243   0.42088   0.34839   0.00000  Uiso   1.00
H266   H     0.12508   0.79737   0.57667   0.00000  Uiso   1.00
H267   H     0.31697   0.92224   0.44966   0.00000  Uiso   1.00
O268   O     0.03816   0.40818   0.46958   0.00000  Uiso   1.00
O269   O     0.05476   0.90213   0.45713   0.00000  Uiso   1.00
O270   O     0.30652   0.06595   0.60246   0.00000  Uiso   1.00
N271   N     0.03767   0.56080   0.41311   0.00000  Uiso   1.00
N272   N     0.04949   0.91278   0.69160   0.00000  Uiso   1.00
N273   N     0.22889   0.02954   0.50773   0.00000  Uiso   1.00
N274   N     0.09328   0.47622   0.35767   0.00000  Uiso   1.00
N275   N     0.10510   0.82821   0.63616   0.00000  Uiso   1.00
N276   N     0.28450   0.94497   0.45229   0.00000  Uiso   1.00
C277   C     0.39954   0.34179   0.29090   0.00000  Uiso   1.00
C278   C     0.40325   0.24369   0.24821   0.00000  Uiso   1.00
C279   C     0.43735   0.20831   0.18144   0.00000  Uiso   1.00
C280   C     0.43467   0.11688   0.15131   0.00000  Uiso   1.00
C281   C     0.44585   0.97275   0.07969   0.00000  Uiso   1.00
C282   C     0.40000   0.34068   0.44707   0.00000  Uiso   1.00
C283   C     0.43136   0.38687   0.54750   0.00000  Uiso   1.00
C284   C     0.42594   0.37710   0.68477   0.00000  Uiso   1.00
C285   C     0.43205   0.38362   0.92187   0.00000  Uiso   1.00
C286   C     0.35056   0.37285   0.22212   0.00000  Uiso   1.00
C287   C     0.34035   0.44610   0.13345   0.00000  Uiso   1.00
C288   C     0.29330   0.46343   0.08135   0.00000  Uiso   1.00
C289   C     0.22264   0.51989   0.96920   0.00000  Uiso   1.00
C290   C     0.33414   0.24234   0.35610   0.00000  Uiso   1.00
C291   C     0.36773   0.18967   0.28363   0.00000  Uiso   1.00
C292   C     0.36499   0.09827   0.25358   0.00000  Uiso   1.00
C293   C     0.39909   0.06276   0.18678   0.00000  Uiso   1.00
C294   C     0.36448   0.28667   0.48249   0.00000  Uiso   1.00
C295   C     0.35901   0.27684   0.61964   0.00000  Uiso   1.00
C296   C     0.39035   0.32299   0.72025   0.00000  Uiso   1.00
C297   C     0.31503   0.31883   0.25754   0.00000  Uiso   1.00
C298   C     0.26799   0.33606   0.20558   0.00000  Uiso   1.00
C299   C     0.25771   0.40932   0.11684   0.00000  Uiso   1.00
H300   H     0.42720   0.38385   0.26334   0.00000  Uiso   1.00
H301   H     0.46484   0.25013   0.15407   0.00000  Uiso   1.00
H302   H     0.45885   0.42867   0.52006   0.00000  Uiso   1.00
H303   H     0.36785   0.48789   0.10607   0.00000  Uiso   1.00
H304   H     0.49092   0.07805   0.04858   0.00000  Uiso   1.00
H305   H     0.47827   0.45454   0.82029   0.00000  Uiso   1.00
H306   H     0.28638   0.57941   0.94731   0.00000  Uiso   1.00
H307   H     0.30648   0.20028   0.38368   0.00000  Uiso   1.00
H308   H     0.33750   0.05649   0.28100   0.00000  Uiso   1.00
H309   H     0.33151   0.23503   0.64700   0.00000  Uiso   1.00
H310   H     0.24051   0.29425   0.23301   0.00000  Uiso   1.00
H311   H     0.38757   0.92088   0.15161   0.00000  Uiso   1.00
H312   H     0.37492   0.29737   0.92333   0.00000  Uiso   1.00
H313   H     0.18303   0.42224   0.05034   0.00000  Uiso   1.00
O314   O     0.46184   0.90818   0.03042   0.00000  Uiso   1.00
O315   O     0.44524   0.40213   0.04287   0.00000  Uiso   1.00
O316   O     0.19348   0.56595   0.89754   0.00000  Uiso   1.00
N317   N     0.46233   0.06080   0.08689   0.00000  Uiso   1.00
N318   N     0.45051   0.41278   0.80840   0.00000  Uiso   1.00
N319   N     0.27111   0.52954   0.99227   0.00000  Uiso   1.00
N320   N     0.40672   0.97622   0.14233   0.00000  Uiso   1.00
N321   N     0.39490   0.32821   0.86384   0.00000  Uiso   1.00
N322   N     0.21550   0.44497   0.04771   0.00000  Uiso   1.00
C323   C     0.89954   0.84179   0.29090   0.00000  Uiso   1.00
C324   C     0.90325   0.74369   0.24821   0.00000  Uiso   1.00
C325   C     0.93735   0.70831   0.18144   0.00000  Uiso   1.00
C326   C     0.93467   0.61688   0.15131   0.00000  Uiso   1.00
C327   C     0.94585   0.47275   0.07969   0.00000  Uiso   1.00
C328   C     0.90000   0.84068   0.44707   0.00000  Uiso   1.00
C329   C     0.93136   0.88687   0.54750   0.00000  Uiso   1.00
C330   C     0.92594   0.87710   0.68477   0.00000  Uiso   1.00
C331   C     0.93205   0.88362   0.92187   0.00000  Uiso   1.00
C332   C     0.85056   0.87285   0.22212   0.00000  Uiso   1.00
C333   C     0.84035   0.94610   0.13345   0.00000  Uiso   1.00
C334   C     0.79330   0.96343   0.08135   0.00000  Uiso   1.00
C335   C     0.72264   0.01989   0.96920   0.00000  Uiso   1.00
C336   C     0.83414   0.74234   0.35610   0.00000  Uiso   1.00
C337   C     0.86773   0.68967   0.28363   0.00000  Uiso   1.00
C338   C     0.86499   0.59827   0.25358   0.00000  Uiso   1.00
C339   C     0.89909   0.56276   0.18678   0.00000  Uiso   1.00
C340   C     0.86448   0.78667   0.48249   0.00000  Uiso   1.00
C341   C     0.85901   0.77684   0.61964   0.00000  Uiso   1.00
C342   C     0.89035   0.82299   0.72025   0.00000  Uiso   1.00
C343   C     0.81503   0.81883   0.25754   0.00000  Uiso   1.00
C344   C     0.76799   0.83606   0.20558   0.00000  Uiso   1.00
C345   C     0.75771   0.90932   0.11684   0.00000  Uiso   1.00
H346   H     0.92720   0.88385   0.26334   0.00000  Uiso   1.00
H347   H     0.96484   0.75013   0.15407   0.00000  Uiso   1.00
H348   H     0.95885   0.92867   0.52006   0.00000  Uiso   1.00
H349   H     0.86785   0.98789   0.10607   0.00000  Uiso   1.00
H350   H     0.99092   0.57805   0.04858   0.00000  Uiso   1.00
H351   H     0.97827   0.95454   0.82029   0.00000  Uiso   1.00
H352   H     0.78638   0.07941   0.94731   0.00000  Uiso   1.00
H353   H     0.80648   0.70028   0.38368   0.00000  Uiso   1.00
H354   H     0.83750   0.55649   0.28100   0.00000  Uiso   1.00
H355   H     0.83151   0.73503   0.64700   0.00000  Uiso   1.00
H356   H     0.74051   0.79425   0.23301   0.00000  Uiso   1.00
H357   H     0.88757   0.42088   0.15161   0.00000  Uiso   1.00
H358   H     0.87492   0.79737   0.92333   0.00000  Uiso   1.00
H359   H     0.68303   0.92224   0.05034   0.00000  Uiso   1.00
O360   O     0.96184   0.40818   0.03042   0.00000  Uiso   1.00
O361   O     0.94524   0.90213   0.04287   0.00000  Uiso   1.00
O362   O     0.69348   0.06595   0.89754   0.00000  Uiso   1.00
N363   N     0.96233   0.56080   0.08689   0.00000  Uiso   1.00
N364   N     0.95051   0.91278   0.80840   0.00000  Uiso   1.00
N365   N     0.77111   0.02954   0.99227   0.00000  Uiso   1.00
N366   N     0.90672   0.47622   0.14233   0.00000  Uiso   1.00
N367   N     0.89490   0.82821   0.86384   0.00000  Uiso   1.00
N368   N     0.71550   0.94497   0.04771   0.00000  Uiso   1.00
