data_job_04899
_audit_creation_date              2018-12-19
_audit_creation_method            'Materials Studio'
_symmetry_space_group_name_H-M    'P1'
_symmetry_Int_Tables_number       1
_symmetry_cell_setting            triclinic
loop_
_symmetry_equiv_pos_as_xyz
  x,y,z
_cell_length_a                    14.0625
_cell_length_b                    23.3288
_cell_length_c                    10.0391
_cell_angle_alpha                 90.0000
_cell_angle_beta                  81.4909
_cell_angle_gamma                 90.0000
loop_
_atom_site_label
_atom_site_type_symbol
_atom_site_fract_x
_atom_site_fract_y
_atom_site_fract_z
_atom_site_U_iso_or_equiv
_atom_site_adp_type
_atom_site_occupancy
C1     C     0.19672   0.62170   0.34397   0.00000  Uiso   1.00
C2     C     0.20153   0.62168   0.49473   0.00000  Uiso   1.00
C3     C     0.12316   0.62169   0.59654   0.00000  Uiso   1.00
C4     C     0.14265   0.62169   0.72814   0.00000  Uiso   1.00
C5     C     0.13574   0.62170   0.95787   0.00000  Uiso   1.00
C6     C     0.25394   0.67391   0.28666   0.00000  Uiso   1.00
C7     C     0.21964   0.71783   0.21352   0.00000  Uiso   1.00
C8     C     0.28326   0.76179   0.16995   0.00000  Uiso   1.00
C9     C     0.35774   0.84287   0.07657   0.00000  Uiso   1.00
C10    C     0.25392   0.56949   0.28660   0.00000  Uiso   1.00
C11    C     0.21962   0.52560   0.21338   0.00000  Uiso   1.00
C12    C     0.28324   0.48164   0.16973   0.00000  Uiso   1.00
C13    C     0.35769   0.40058   0.07627   0.00000  Uiso   1.00
C14    C     0.37070   0.62168   0.39662   0.00000  Uiso   1.00
C15    C     0.29602   0.62168   0.52332   0.00000  Uiso   1.00
C16    C     0.31564   0.62167   0.65479   0.00000  Uiso   1.00
C17    C     0.23732   0.62168   0.75679   0.00000  Uiso   1.00
C18    C     0.34843   0.67391   0.31525   0.00000  Uiso   1.00
C19    C     0.41212   0.71781   0.27177   0.00000  Uiso   1.00
C20    C     0.37793   0.76178   0.19859   0.00000  Uiso   1.00
C21    C     0.34842   0.56947   0.31520   0.00000  Uiso   1.00
C22    C     0.41211   0.52558   0.27164   0.00000  Uiso   1.00
C23    C     0.37791   0.48164   0.19838   0.00000  Uiso   1.00
H24    H     0.12315   0.62171   0.32170   0.00000  Uiso   1.00
H25    H     0.05004   0.62170   0.57437   0.00000  Uiso   1.00
H26    H     0.14651   0.71782   0.19139   0.00000  Uiso   1.00
H27    H     0.14649   0.52562   0.19127   0.00000  Uiso   1.00
H28    H     0.01065   0.62172   0.86711   0.00000  Uiso   1.00
H29    H     0.21408   0.82438   0.05955   0.00000  Uiso   1.00
H30    H     0.21404   0.41909   0.05928   0.00000  Uiso   1.00
H31    H     0.44427   0.62167   0.41888   0.00000  Uiso   1.00
H32    H     0.38878   0.62167   0.67689   0.00000  Uiso   1.00
H33    H     0.48525   0.71779   0.29391   0.00000  Uiso   1.00
H34    H     0.48523   0.52559   0.29379   0.00000  Uiso   1.00
H35    H     0.28559   0.62169   0.95032   0.00000  Uiso   1.00
H36    H     0.48901   0.82435   0.14275   0.00000  Uiso   1.00
H37    H     0.48897   0.41906   0.14249   0.00000  Uiso   1.00
O38    O     0.10582   0.62172   0.07669   0.00000  Uiso   1.00
O39    O     0.37271   0.88760   0.01718   0.00000  Uiso   1.00
O40    O     0.37265   0.35587   0.01683   0.00000  Uiso   1.00
N41    N     0.08298   0.62170   0.85129   0.00000  Uiso   1.00
N42    N     0.27316   0.81118   0.09628   0.00000  Uiso   1.00
N43    N     0.27313   0.43228   0.09600   0.00000  Uiso   1.00
N44    N     0.23091   0.62169   0.89606   0.00000  Uiso   1.00
N45    N     0.42110   0.81117   0.14106   0.00000  Uiso   1.00
N46    N     0.42107   0.43226   0.14077   0.00000  Uiso   1.00
C47    C     0.69672   0.12170   0.34397   0.00000  Uiso   1.00
C48    C     0.70153   0.12168   0.49473   0.00000  Uiso   1.00
C49    C     0.62316   0.12169   0.59654   0.00000  Uiso   1.00
C50    C     0.64265   0.12169   0.72814   0.00000  Uiso   1.00
C51    C     0.63574   0.12170   0.95787   0.00000  Uiso   1.00
C52    C     0.75394   0.17391   0.28666   0.00000  Uiso   1.00
C53    C     0.71964   0.21783   0.21352   0.00000  Uiso   1.00
C54    C     0.78326   0.26179   0.16995   0.00000  Uiso   1.00
C55    C     0.85774   0.34287   0.07657   0.00000  Uiso   1.00
C56    C     0.75392   0.06949   0.28660   0.00000  Uiso   1.00
C57    C     0.71962   0.02560   0.21338   0.00000  Uiso   1.00
C58    C     0.78324   0.98164   0.16973   0.00000  Uiso   1.00
C59    C     0.85769   0.90058   0.07627   0.00000  Uiso   1.00
C60    C     0.87070   0.12168   0.39662   0.00000  Uiso   1.00
C61    C     0.79602   0.12168   0.52332   0.00000  Uiso   1.00
C62    C     0.81564   0.12167   0.65479   0.00000  Uiso   1.00
C63    C     0.73732   0.12168   0.75679   0.00000  Uiso   1.00
C64    C     0.84843   0.17391   0.31525   0.00000  Uiso   1.00
C65    C     0.91212   0.21781   0.27177   0.00000  Uiso   1.00
C66    C     0.87793   0.26178   0.19859   0.00000  Uiso   1.00
C67    C     0.84842   0.06947   0.31520   0.00000  Uiso   1.00
C68    C     0.91211   0.02558   0.27164   0.00000  Uiso   1.00
C69    C     0.87791   0.98164   0.19838   0.00000  Uiso   1.00
H70    H     0.62315   0.12171   0.32170   0.00000  Uiso   1.00
H71    H     0.55004   0.12170   0.57437   0.00000  Uiso   1.00
H72    H     0.64651   0.21782   0.19139   0.00000  Uiso   1.00
H73    H     0.64649   0.02562   0.19127   0.00000  Uiso   1.00
H74    H     0.51065   0.12172   0.86711   0.00000  Uiso   1.00
H75    H     0.71408   0.32438   0.05955   0.00000  Uiso   1.00
H76    H     0.71404   0.91909   0.05928   0.00000  Uiso   1.00
H77    H     0.94427   0.12167   0.41888   0.00000  Uiso   1.00
H78    H     0.88878   0.12167   0.67689   0.00000  Uiso   1.00
H79    H     0.98525   0.21779   0.29391   0.00000  Uiso   1.00
H80    H     0.98523   0.02559   0.29379   0.00000  Uiso   1.00
H81    H     0.78559   0.12169   0.95032   0.00000  Uiso   1.00
H82    H     0.98901   0.32435   0.14275   0.00000  Uiso   1.00
H83    H     0.98897   0.91906   0.14249   0.00000  Uiso   1.00
O84    O     0.60582   0.12172   0.07669   0.00000  Uiso   1.00
O85    O     0.87271   0.38760   0.01718   0.00000  Uiso   1.00
O86    O     0.87265   0.85587   0.01683   0.00000  Uiso   1.00
N87    N     0.58298   0.12170   0.85129   0.00000  Uiso   1.00
N88    N     0.77316   0.31118   0.09628   0.00000  Uiso   1.00
N89    N     0.77313   0.93228   0.09600   0.00000  Uiso   1.00
N90    N     0.73091   0.12169   0.89606   0.00000  Uiso   1.00
N91    N     0.92110   0.31117   0.14106   0.00000  Uiso   1.00
N92    N     0.92107   0.93226   0.14077   0.00000  Uiso   1.00
C93    C     0.80328   0.62170   0.65603   0.00000  Uiso   1.00
C94    C     0.79847   0.62168   0.50527   0.00000  Uiso   1.00
C95    C     0.87684   0.62169   0.40346   0.00000  Uiso   1.00
C96    C     0.85735   0.62169   0.27186   0.00000  Uiso   1.00
C97    C     0.86426   0.62170   0.04213   0.00000  Uiso   1.00
C98    C     0.74606   0.67391   0.71334   0.00000  Uiso   1.00
C99    C     0.78036   0.71783   0.78648   0.00000  Uiso   1.00
C100   C     0.71674   0.76179   0.83005   0.00000  Uiso   1.00
C101   C     0.64226   0.84287   0.92343   0.00000  Uiso   1.00
C102   C     0.74608   0.56949   0.71340   0.00000  Uiso   1.00
C103   C     0.78038   0.52560   0.78662   0.00000  Uiso   1.00
C104   C     0.71676   0.48164   0.83027   0.00000  Uiso   1.00
C105   C     0.64231   0.40058   0.92373   0.00000  Uiso   1.00
C106   C     0.62930   0.62168   0.60338   0.00000  Uiso   1.00
C107   C     0.70398   0.62168   0.47668   0.00000  Uiso   1.00
C108   C     0.68436   0.62167   0.34521   0.00000  Uiso   1.00
C109   C     0.76268   0.62168   0.24321   0.00000  Uiso   1.00
C110   C     0.65157   0.67391   0.68475   0.00000  Uiso   1.00
C111   C     0.58788   0.71781   0.72823   0.00000  Uiso   1.00
C112   C     0.62207   0.76178   0.80141   0.00000  Uiso   1.00
C113   C     0.65158   0.56947   0.68480   0.00000  Uiso   1.00
C114   C     0.58789   0.52558   0.72836   0.00000  Uiso   1.00
C115   C     0.62209   0.48164   0.80162   0.00000  Uiso   1.00
H116   H     0.87685   0.62171   0.67830   0.00000  Uiso   1.00
H117   H     0.94996   0.62170   0.42563   0.00000  Uiso   1.00
H118   H     0.85349   0.71782   0.80861   0.00000  Uiso   1.00
H119   H     0.85351   0.52562   0.80873   0.00000  Uiso   1.00
H120   H     0.98935   0.62172   0.13289   0.00000  Uiso   1.00
H121   H     0.78592   0.82438   0.94045   0.00000  Uiso   1.00
H122   H     0.78596   0.41909   0.94072   0.00000  Uiso   1.00
H123   H     0.55573   0.62167   0.58112   0.00000  Uiso   1.00
H124   H     0.61122   0.62167   0.32311   0.00000  Uiso   1.00
H125   H     0.51475   0.71779   0.70609   0.00000  Uiso   1.00
H126   H     0.51477   0.52559   0.70621   0.00000  Uiso   1.00
H127   H     0.71441   0.62169   0.04968   0.00000  Uiso   1.00
H128   H     0.51099   0.82435   0.85725   0.00000  Uiso   1.00
H129   H     0.51103   0.41906   0.85751   0.00000  Uiso   1.00
O130   O     0.89418   0.62172   0.92331   0.00000  Uiso   1.00
O131   O     0.62729   0.88760   0.98282   0.00000  Uiso   1.00
O132   O     0.62735   0.35587   0.98317   0.00000  Uiso   1.00
N133   N     0.91702   0.62170   0.14871   0.00000  Uiso   1.00
N134   N     0.72684   0.81118   0.90372   0.00000  Uiso   1.00
N135   N     0.72687   0.43228   0.90400   0.00000  Uiso   1.00
N136   N     0.76909   0.62169   0.10394   0.00000  Uiso   1.00
N137   N     0.57890   0.81117   0.85894   0.00000  Uiso   1.00
N138   N     0.57893   0.43226   0.85923   0.00000  Uiso   1.00
C139   C     0.30328   0.12170   0.65603   0.00000  Uiso   1.00
C140   C     0.29847   0.12168   0.50527   0.00000  Uiso   1.00
C141   C     0.37684   0.12169   0.40346   0.00000  Uiso   1.00
C142   C     0.35735   0.12169   0.27186   0.00000  Uiso   1.00
C143   C     0.36426   0.12170   0.04213   0.00000  Uiso   1.00
C144   C     0.24606   0.17391   0.71334   0.00000  Uiso   1.00
C145   C     0.28036   0.21783   0.78648   0.00000  Uiso   1.00
C146   C     0.21674   0.26179   0.83005   0.00000  Uiso   1.00
C147   C     0.14226   0.34287   0.92343   0.00000  Uiso   1.00
C148   C     0.24608   0.06949   0.71340   0.00000  Uiso   1.00
C149   C     0.28038   0.02560   0.78662   0.00000  Uiso   1.00
C150   C     0.21676   0.98164   0.83027   0.00000  Uiso   1.00
C151   C     0.14231   0.90058   0.92373   0.00000  Uiso   1.00
C152   C     0.12930   0.12168   0.60338   0.00000  Uiso   1.00
C153   C     0.20398   0.12168   0.47668   0.00000  Uiso   1.00
C154   C     0.18436   0.12167   0.34521   0.00000  Uiso   1.00
C155   C     0.26268   0.12168   0.24321   0.00000  Uiso   1.00
C156   C     0.15157   0.17391   0.68475   0.00000  Uiso   1.00
C157   C     0.08788   0.21781   0.72823   0.00000  Uiso   1.00
C158   C     0.12207   0.26178   0.80141   0.00000  Uiso   1.00
C159   C     0.15158   0.06947   0.68480   0.00000  Uiso   1.00
C160   C     0.08789   0.02558   0.72836   0.00000  Uiso   1.00
C161   C     0.12209   0.98164   0.80162   0.00000  Uiso   1.00
H162   H     0.37685   0.12171   0.67830   0.00000  Uiso   1.00
H163   H     0.44996   0.12170   0.42563   0.00000  Uiso   1.00
H164   H     0.35349   0.21782   0.80861   0.00000  Uiso   1.00
H165   H     0.35351   0.02562   0.80873   0.00000  Uiso   1.00
H166   H     0.48935   0.12172   0.13289   0.00000  Uiso   1.00
H167   H     0.28592   0.32438   0.94045   0.00000  Uiso   1.00
H168   H     0.28596   0.91909   0.94072   0.00000  Uiso   1.00
H169   H     0.05573   0.12167   0.58112   0.00000  Uiso   1.00
H170   H     0.11122   0.12167   0.32311   0.00000  Uiso   1.00
H171   H     0.01475   0.21779   0.70609   0.00000  Uiso   1.00
H172   H     0.01477   0.02559   0.70621   0.00000  Uiso   1.00
H173   H     0.21441   0.12169   0.04968   0.00000  Uiso   1.00
H174   H     0.01099   0.32435   0.85725   0.00000  Uiso   1.00
H175   H     0.01103   0.91906   0.85751   0.00000  Uiso   1.00
O176   O     0.39418   0.12172   0.92331   0.00000  Uiso   1.00
O177   O     0.12729   0.38760   0.98282   0.00000  Uiso   1.00
O178   O     0.12735   0.85587   0.98317   0.00000  Uiso   1.00
N179   N     0.41702   0.12170   0.14871   0.00000  Uiso   1.00
N180   N     0.22684   0.31118   0.90372   0.00000  Uiso   1.00
N181   N     0.22687   0.93228   0.90400   0.00000  Uiso   1.00
N182   N     0.26909   0.12169   0.10394   0.00000  Uiso   1.00
N183   N     0.07890   0.31117   0.85894   0.00000  Uiso   1.00
N184   N     0.07893   0.93226   0.85923   0.00000  Uiso   1.00
