data_job_05434
_audit_creation_date              2018-12-19
_audit_creation_method            'Materials Studio'
_symmetry_space_group_name_H-M    'P1'
_symmetry_Int_Tables_number       1
_symmetry_cell_setting            triclinic
loop_
_symmetry_equiv_pos_as_xyz
  x,y,z
_cell_length_a                    16.1215
_cell_length_b                    13.2182
_cell_length_c                    21.8370
_cell_angle_alpha                 90.0000
_cell_angle_beta                  90.0000
_cell_angle_gamma                 90.0000
loop_
_atom_site_label
_atom_site_type_symbol
_atom_site_fract_x
_atom_site_fract_y
_atom_site_fract_z
_atom_site_U_iso_or_equiv
_atom_site_adp_type
_atom_site_occupancy
C1     C     0.84960   0.80747   0.95710   0.00000  Uiso   1.00
C2     C     0.92014   0.78307   0.91298   0.00000  Uiso   1.00
C3     C     0.98407   0.84808   0.89677   0.00000  Uiso   1.00
C4     C     0.04258   0.81152   0.85570   0.00000  Uiso   1.00
C5     C     0.15289   0.78856   0.79081   0.00000  Uiso   1.00
C6     C     0.76955   0.78951   0.92152   0.00000  Uiso   1.00
C7     C     0.70687   0.85992   0.91250   0.00000  Uiso   1.00
C8     C     0.63861   0.82876   0.87863   0.00000  Uiso   1.00
C9     C     0.51511   0.81578   0.82704   0.00000  Uiso   1.00
C10    C     0.85240   0.72612   0.00657   0.00000  Uiso   1.00
C11    C     0.85936   0.74323   0.06906   0.00000  Uiso   1.00
C12    C     0.86084   0.65870   0.10679   0.00000  Uiso   1.00
C13    C     0.86597   0.54730   0.18725   0.00000  Uiso   1.00
C14    C     0.83982   0.62693   0.91299   0.00000  Uiso   1.00
C15    C     0.91482   0.68501   0.88902   0.00000  Uiso   1.00
C16    C     0.97325   0.64834   0.84796   0.00000  Uiso   1.00
C17    C     0.03726   0.71328   0.83170   0.00000  Uiso   1.00
C18    C     0.76424   0.69145   0.89756   0.00000  Uiso   1.00
C19    C     0.69605   0.66018   0.86369   0.00000  Uiso   1.00
C20    C     0.63329   0.73052   0.85462   0.00000  Uiso   1.00
C21    C     0.84709   0.62806   0.98261   0.00000  Uiso   1.00
C22    C     0.84855   0.54349   0.02025   0.00000  Uiso   1.00
C23    C     0.85551   0.56047   0.08279   0.00000  Uiso   1.00
H24    H     0.85373   0.88382   0.97575   0.00000  Uiso   1.00
H25    H     0.98815   0.92397   0.91532   0.00000  Uiso   1.00
H26    H     0.71100   0.93580   0.93105   0.00000  Uiso   1.00
H27    H     0.86347   0.81913   0.08758   0.00000  Uiso   1.00
H28    H     0.13483   0.92525   0.83773   0.00000  Uiso   1.00
H29    H     0.55042   0.95018   0.87093   0.00000  Uiso   1.00
H30    H     0.87193   0.70416   0.20100   0.00000  Uiso   1.00
H31    H     0.83568   0.55059   0.89433   0.00000  Uiso   1.00
H32    H     0.96912   0.57245   0.82943   0.00000  Uiso   1.00
H33    H     0.69196   0.58428   0.84516   0.00000  Uiso   1.00
H34    H     0.84443   0.46761   0.00169   0.00000  Uiso   1.00
H35    H     0.11938   0.63994   0.76802   0.00000  Uiso   1.00
H36    H     0.53496   0.66488   0.80121   0.00000  Uiso   1.00
H37    H     0.85648   0.41886   0.13129   0.00000  Uiso   1.00
O38    O     0.21519   0.80300   0.76163   0.00000  Uiso   1.00
O39    O     0.44846   0.83571   0.80519   0.00000  Uiso   1.00
O40    O     0.87028   0.51294   0.23825   0.00000  Uiso   1.00
N41    N     0.11289   0.85509   0.83024   0.00000  Uiso   1.00
N42    N     0.56651   0.87841   0.86127   0.00000  Uiso   1.00
N43    N     0.86707   0.64840   0.16986   0.00000  Uiso   1.00
N44    N     0.10458   0.70157   0.79273   0.00000  Uiso   1.00
N45    N     0.55819   0.72489   0.82376   0.00000  Uiso   1.00
N46    N     0.85876   0.49488   0.13235   0.00000  Uiso   1.00
C47    C     0.65040   0.19253   0.95710   0.00000  Uiso   1.00
C48    C     0.57986   0.21693   0.91298   0.00000  Uiso   1.00
C49    C     0.51593   0.15192   0.89677   0.00000  Uiso   1.00
C50    C     0.45742   0.18848   0.85570   0.00000  Uiso   1.00
C51    C     0.34711   0.21144   0.79081   0.00000  Uiso   1.00
C52    C     0.73045   0.21049   0.92152   0.00000  Uiso   1.00
C53    C     0.79313   0.14008   0.91250   0.00000  Uiso   1.00
C54    C     0.86139   0.17124   0.87863   0.00000  Uiso   1.00
C55    C     0.98489   0.18422   0.82704   0.00000  Uiso   1.00
C56    C     0.64760   0.27388   0.00657   0.00000  Uiso   1.00
C57    C     0.64064   0.25677   0.06906   0.00000  Uiso   1.00
C58    C     0.63916   0.34130   0.10679   0.00000  Uiso   1.00
C59    C     0.63403   0.45270   0.18725   0.00000  Uiso   1.00
C60    C     0.66018   0.37307   0.91299   0.00000  Uiso   1.00
C61    C     0.58518   0.31499   0.88902   0.00000  Uiso   1.00
C62    C     0.52675   0.35166   0.84796   0.00000  Uiso   1.00
C63    C     0.46274   0.28672   0.83170   0.00000  Uiso   1.00
C64    C     0.73576   0.30855   0.89756   0.00000  Uiso   1.00
C65    C     0.80395   0.33982   0.86369   0.00000  Uiso   1.00
C66    C     0.86671   0.26948   0.85462   0.00000  Uiso   1.00
C67    C     0.65291   0.37194   0.98261   0.00000  Uiso   1.00
C68    C     0.65145   0.45651   0.02025   0.00000  Uiso   1.00
C69    C     0.64449   0.43953   0.08279   0.00000  Uiso   1.00
H70    H     0.64627   0.11618   0.97575   0.00000  Uiso   1.00
H71    H     0.51185   0.07603   0.91532   0.00000  Uiso   1.00
H72    H     0.78900   0.06420   0.93105   0.00000  Uiso   1.00
H73    H     0.63653   0.18087   0.08758   0.00000  Uiso   1.00
H74    H     0.36517   0.07475   0.83773   0.00000  Uiso   1.00
H75    H     0.94958   0.04982   0.87093   0.00000  Uiso   1.00
H76    H     0.62807   0.29584   0.20100   0.00000  Uiso   1.00
H77    H     0.66432   0.44941   0.89433   0.00000  Uiso   1.00
H78    H     0.53088   0.42755   0.82943   0.00000  Uiso   1.00
H79    H     0.80804   0.41572   0.84516   0.00000  Uiso   1.00
H80    H     0.65557   0.53239   0.00169   0.00000  Uiso   1.00
H81    H     0.38062   0.36006   0.76802   0.00000  Uiso   1.00
H82    H     0.96504   0.33512   0.80121   0.00000  Uiso   1.00
H83    H     0.64352   0.58114   0.13129   0.00000  Uiso   1.00
O84    O     0.28481   0.19700   0.76163   0.00000  Uiso   1.00
O85    O     0.05154   0.16429   0.80519   0.00000  Uiso   1.00
O86    O     0.62972   0.48706   0.23825   0.00000  Uiso   1.00
N87    N     0.38711   0.14491   0.83024   0.00000  Uiso   1.00
N88    N     0.93349   0.12159   0.86127   0.00000  Uiso   1.00
N89    N     0.63293   0.35160   0.16986   0.00000  Uiso   1.00
N90    N     0.39542   0.29843   0.79273   0.00000  Uiso   1.00
N91    N     0.94181   0.27511   0.82376   0.00000  Uiso   1.00
N92    N     0.64124   0.50512   0.13235   0.00000  Uiso   1.00
C93    C     0.15040   0.80747   0.54290   0.00000  Uiso   1.00
C94    C     0.07986   0.78307   0.58702   0.00000  Uiso   1.00
C95    C     0.01593   0.84808   0.60323   0.00000  Uiso   1.00
C96    C     0.95742   0.81152   0.64430   0.00000  Uiso   1.00
C97    C     0.84711   0.78856   0.70919   0.00000  Uiso   1.00
C98    C     0.23045   0.78951   0.57848   0.00000  Uiso   1.00
C99    C     0.29313   0.85992   0.58750   0.00000  Uiso   1.00
C100   C     0.36139   0.82876   0.62137   0.00000  Uiso   1.00
C101   C     0.48489   0.81578   0.67296   0.00000  Uiso   1.00
C102   C     0.14760   0.72612   0.49343   0.00000  Uiso   1.00
C103   C     0.14064   0.74323   0.43094   0.00000  Uiso   1.00
C104   C     0.13916   0.65870   0.39321   0.00000  Uiso   1.00
C105   C     0.13403   0.54730   0.31275   0.00000  Uiso   1.00
C106   C     0.16018   0.62693   0.58701   0.00000  Uiso   1.00
C107   C     0.08518   0.68501   0.61098   0.00000  Uiso   1.00
C108   C     0.02675   0.64834   0.65204   0.00000  Uiso   1.00
C109   C     0.96274   0.71328   0.66830   0.00000  Uiso   1.00
C110   C     0.23576   0.69145   0.60244   0.00000  Uiso   1.00
C111   C     0.30395   0.66018   0.63631   0.00000  Uiso   1.00
C112   C     0.36671   0.73052   0.64538   0.00000  Uiso   1.00
C113   C     0.15291   0.62806   0.51739   0.00000  Uiso   1.00
C114   C     0.15145   0.54349   0.47975   0.00000  Uiso   1.00
C115   C     0.14449   0.56047   0.41721   0.00000  Uiso   1.00
H116   H     0.14627   0.88382   0.52425   0.00000  Uiso   1.00
H117   H     0.01185   0.92397   0.58468   0.00000  Uiso   1.00
H118   H     0.28900   0.93580   0.56895   0.00000  Uiso   1.00
H119   H     0.13653   0.81913   0.41242   0.00000  Uiso   1.00
H120   H     0.86517   0.92525   0.66227   0.00000  Uiso   1.00
H121   H     0.44958   0.95018   0.62907   0.00000  Uiso   1.00
H122   H     0.12807   0.70416   0.29900   0.00000  Uiso   1.00
H123   H     0.16432   0.55059   0.60567   0.00000  Uiso   1.00
H124   H     0.03088   0.57245   0.67057   0.00000  Uiso   1.00
H125   H     0.30804   0.58428   0.65484   0.00000  Uiso   1.00
H126   H     0.15557   0.46761   0.49831   0.00000  Uiso   1.00
H127   H     0.88062   0.63994   0.73198   0.00000  Uiso   1.00
H128   H     0.46504   0.66488   0.69879   0.00000  Uiso   1.00
H129   H     0.14352   0.41886   0.36871   0.00000  Uiso   1.00
O130   O     0.78481   0.80300   0.73837   0.00000  Uiso   1.00
O131   O     0.55154   0.83571   0.69481   0.00000  Uiso   1.00
O132   O     0.12972   0.51294   0.26175   0.00000  Uiso   1.00
N133   N     0.88711   0.85509   0.66976   0.00000  Uiso   1.00
N134   N     0.43349   0.87841   0.63873   0.00000  Uiso   1.00
N135   N     0.13293   0.64840   0.33014   0.00000  Uiso   1.00
N136   N     0.89542   0.70157   0.70727   0.00000  Uiso   1.00
N137   N     0.44181   0.72489   0.67624   0.00000  Uiso   1.00
N138   N     0.14124   0.49488   0.36765   0.00000  Uiso   1.00
C139   C     0.34960   0.19253   0.54290   0.00000  Uiso   1.00
C140   C     0.42014   0.21693   0.58702   0.00000  Uiso   1.00
C141   C     0.48407   0.15192   0.60323   0.00000  Uiso   1.00
C142   C     0.54258   0.18848   0.64430   0.00000  Uiso   1.00
C143   C     0.65289   0.21144   0.70919   0.00000  Uiso   1.00
C144   C     0.26955   0.21049   0.57848   0.00000  Uiso   1.00
C145   C     0.20687   0.14008   0.58750   0.00000  Uiso   1.00
C146   C     0.13861   0.17124   0.62137   0.00000  Uiso   1.00
C147   C     0.01511   0.18422   0.67296   0.00000  Uiso   1.00
C148   C     0.35240   0.27388   0.49343   0.00000  Uiso   1.00
C149   C     0.35936   0.25677   0.43094   0.00000  Uiso   1.00
C150   C     0.36084   0.34130   0.39321   0.00000  Uiso   1.00
C151   C     0.36597   0.45270   0.31275   0.00000  Uiso   1.00
C152   C     0.33982   0.37307   0.58701   0.00000  Uiso   1.00
C153   C     0.41482   0.31499   0.61098   0.00000  Uiso   1.00
C154   C     0.47325   0.35166   0.65204   0.00000  Uiso   1.00
C155   C     0.53726   0.28672   0.66830   0.00000  Uiso   1.00
C156   C     0.26424   0.30855   0.60244   0.00000  Uiso   1.00
C157   C     0.19605   0.33982   0.63631   0.00000  Uiso   1.00
C158   C     0.13329   0.26948   0.64538   0.00000  Uiso   1.00
C159   C     0.34709   0.37194   0.51739   0.00000  Uiso   1.00
C160   C     0.34855   0.45651   0.47975   0.00000  Uiso   1.00
C161   C     0.35551   0.43953   0.41721   0.00000  Uiso   1.00
H162   H     0.35373   0.11618   0.52425   0.00000  Uiso   1.00
H163   H     0.48815   0.07603   0.58468   0.00000  Uiso   1.00
H164   H     0.21100   0.06420   0.56895   0.00000  Uiso   1.00
H165   H     0.36347   0.18087   0.41242   0.00000  Uiso   1.00
H166   H     0.63483   0.07475   0.66227   0.00000  Uiso   1.00
H167   H     0.05042   0.04982   0.62907   0.00000  Uiso   1.00
H168   H     0.37193   0.29584   0.29900   0.00000  Uiso   1.00
H169   H     0.33568   0.44941   0.60567   0.00000  Uiso   1.00
H170   H     0.46912   0.42755   0.67057   0.00000  Uiso   1.00
H171   H     0.19196   0.41572   0.65484   0.00000  Uiso   1.00
H172   H     0.34443   0.53239   0.49831   0.00000  Uiso   1.00
H173   H     0.61938   0.36006   0.73198   0.00000  Uiso   1.00
H174   H     0.03496   0.33512   0.69879   0.00000  Uiso   1.00
H175   H     0.35648   0.58114   0.36871   0.00000  Uiso   1.00
O176   O     0.71519   0.19700   0.73837   0.00000  Uiso   1.00
O177   O     0.94846   0.16429   0.69481   0.00000  Uiso   1.00
O178   O     0.37028   0.48706   0.26175   0.00000  Uiso   1.00
N179   N     0.61289   0.14491   0.66976   0.00000  Uiso   1.00
N180   N     0.06651   0.12159   0.63873   0.00000  Uiso   1.00
N181   N     0.36707   0.35160   0.33014   0.00000  Uiso   1.00
N182   N     0.60458   0.29843   0.70727   0.00000  Uiso   1.00
N183   N     0.05819   0.27511   0.67624   0.00000  Uiso   1.00
N184   N     0.35876   0.50512   0.36765   0.00000  Uiso   1.00
C185   C     0.15040   0.19253   0.04290   0.00000  Uiso   1.00
C186   C     0.07986   0.21693   0.08702   0.00000  Uiso   1.00
C187   C     0.01593   0.15192   0.10323   0.00000  Uiso   1.00
C188   C     0.95742   0.18848   0.14430   0.00000  Uiso   1.00
C189   C     0.84711   0.21144   0.20919   0.00000  Uiso   1.00
C190   C     0.23045   0.21049   0.07848   0.00000  Uiso   1.00
C191   C     0.29313   0.14008   0.08750   0.00000  Uiso   1.00
C192   C     0.36139   0.17124   0.12137   0.00000  Uiso   1.00
C193   C     0.48489   0.18422   0.17296   0.00000  Uiso   1.00
C194   C     0.14760   0.27388   0.99343   0.00000  Uiso   1.00
C195   C     0.14064   0.25677   0.93094   0.00000  Uiso   1.00
C196   C     0.13916   0.34130   0.89321   0.00000  Uiso   1.00
C197   C     0.13403   0.45270   0.81275   0.00000  Uiso   1.00
C198   C     0.16018   0.37307   0.08701   0.00000  Uiso   1.00
C199   C     0.08518   0.31499   0.11098   0.00000  Uiso   1.00
C200   C     0.02675   0.35166   0.15204   0.00000  Uiso   1.00
C201   C     0.96274   0.28672   0.16830   0.00000  Uiso   1.00
C202   C     0.23576   0.30855   0.10244   0.00000  Uiso   1.00
C203   C     0.30395   0.33982   0.13631   0.00000  Uiso   1.00
C204   C     0.36671   0.26948   0.14538   0.00000  Uiso   1.00
C205   C     0.15291   0.37194   0.01739   0.00000  Uiso   1.00
C206   C     0.15145   0.45651   0.97975   0.00000  Uiso   1.00
C207   C     0.14449   0.43953   0.91721   0.00000  Uiso   1.00
H208   H     0.14627   0.11618   0.02425   0.00000  Uiso   1.00
H209   H     0.01185   0.07603   0.08468   0.00000  Uiso   1.00
H210   H     0.28900   0.06420   0.06895   0.00000  Uiso   1.00
H211   H     0.13653   0.18087   0.91242   0.00000  Uiso   1.00
H212   H     0.86517   0.07475   0.16227   0.00000  Uiso   1.00
H213   H     0.44958   0.04982   0.12907   0.00000  Uiso   1.00
H214   H     0.12807   0.29584   0.79900   0.00000  Uiso   1.00
H215   H     0.16432   0.44941   0.10567   0.00000  Uiso   1.00
H216   H     0.03088   0.42755   0.17057   0.00000  Uiso   1.00
H217   H     0.30804   0.41572   0.15484   0.00000  Uiso   1.00
H218   H     0.15557   0.53239   0.99831   0.00000  Uiso   1.00
H219   H     0.88062   0.36006   0.23198   0.00000  Uiso   1.00
H220   H     0.46504   0.33512   0.19879   0.00000  Uiso   1.00
H221   H     0.14352   0.58114   0.86871   0.00000  Uiso   1.00
O222   O     0.78481   0.19700   0.23837   0.00000  Uiso   1.00
O223   O     0.55154   0.16429   0.19481   0.00000  Uiso   1.00
O224   O     0.12972   0.48706   0.76175   0.00000  Uiso   1.00
N225   N     0.88711   0.14491   0.16976   0.00000  Uiso   1.00
N226   N     0.43349   0.12159   0.13873   0.00000  Uiso   1.00
N227   N     0.13293   0.35160   0.83014   0.00000  Uiso   1.00
N228   N     0.89542   0.29843   0.20727   0.00000  Uiso   1.00
N229   N     0.44181   0.27511   0.17624   0.00000  Uiso   1.00
N230   N     0.14124   0.50512   0.86765   0.00000  Uiso   1.00
C231   C     0.34960   0.80747   0.04290   0.00000  Uiso   1.00
C232   C     0.42014   0.78307   0.08702   0.00000  Uiso   1.00
C233   C     0.48407   0.84808   0.10323   0.00000  Uiso   1.00
C234   C     0.54258   0.81152   0.14430   0.00000  Uiso   1.00
C235   C     0.65289   0.78856   0.20919   0.00000  Uiso   1.00
C236   C     0.26955   0.78951   0.07848   0.00000  Uiso   1.00
C237   C     0.20687   0.85992   0.08750   0.00000  Uiso   1.00
C238   C     0.13861   0.82876   0.12137   0.00000  Uiso   1.00
C239   C     0.01511   0.81578   0.17296   0.00000  Uiso   1.00
C240   C     0.35240   0.72612   0.99343   0.00000  Uiso   1.00
C241   C     0.35936   0.74323   0.93094   0.00000  Uiso   1.00
C242   C     0.36084   0.65870   0.89321   0.00000  Uiso   1.00
C243   C     0.36597   0.54730   0.81275   0.00000  Uiso   1.00
C244   C     0.33982   0.62693   0.08701   0.00000  Uiso   1.00
C245   C     0.41482   0.68501   0.11098   0.00000  Uiso   1.00
C246   C     0.47325   0.64834   0.15204   0.00000  Uiso   1.00
C247   C     0.53726   0.71328   0.16830   0.00000  Uiso   1.00
C248   C     0.26424   0.69145   0.10244   0.00000  Uiso   1.00
C249   C     0.19605   0.66018   0.13631   0.00000  Uiso   1.00
C250   C     0.13329   0.73052   0.14538   0.00000  Uiso   1.00
C251   C     0.34709   0.62806   0.01739   0.00000  Uiso   1.00
C252   C     0.34855   0.54349   0.97975   0.00000  Uiso   1.00
C253   C     0.35551   0.56047   0.91721   0.00000  Uiso   1.00
H254   H     0.35373   0.88382   0.02425   0.00000  Uiso   1.00
H255   H     0.48815   0.92397   0.08468   0.00000  Uiso   1.00
H256   H     0.21100   0.93580   0.06895   0.00000  Uiso   1.00
H257   H     0.36347   0.81913   0.91242   0.00000  Uiso   1.00
H258   H     0.63483   0.92525   0.16227   0.00000  Uiso   1.00
H259   H     0.05042   0.95018   0.12907   0.00000  Uiso   1.00
H260   H     0.37193   0.70416   0.79900   0.00000  Uiso   1.00
H261   H     0.33568   0.55059   0.10567   0.00000  Uiso   1.00
H262   H     0.46912   0.57245   0.17057   0.00000  Uiso   1.00
H263   H     0.19196   0.58428   0.15484   0.00000  Uiso   1.00
H264   H     0.34443   0.46761   0.99831   0.00000  Uiso   1.00
H265   H     0.61938   0.63994   0.23198   0.00000  Uiso   1.00
H266   H     0.03496   0.66488   0.19879   0.00000  Uiso   1.00
H267   H     0.35648   0.41886   0.86871   0.00000  Uiso   1.00
O268   O     0.71519   0.80300   0.23837   0.00000  Uiso   1.00
O269   O     0.94846   0.83571   0.19481   0.00000  Uiso   1.00
O270   O     0.37028   0.51294   0.76175   0.00000  Uiso   1.00
N271   N     0.61289   0.85509   0.16976   0.00000  Uiso   1.00
N272   N     0.06651   0.87841   0.13873   0.00000  Uiso   1.00
N273   N     0.36707   0.64840   0.83014   0.00000  Uiso   1.00
N274   N     0.60458   0.70157   0.20727   0.00000  Uiso   1.00
N275   N     0.05819   0.72489   0.17624   0.00000  Uiso   1.00
N276   N     0.35876   0.49488   0.86765   0.00000  Uiso   1.00
C277   C     0.84960   0.19253   0.45710   0.00000  Uiso   1.00
C278   C     0.92014   0.21693   0.41298   0.00000  Uiso   1.00
C279   C     0.98407   0.15192   0.39677   0.00000  Uiso   1.00
C280   C     0.04258   0.18848   0.35570   0.00000  Uiso   1.00
C281   C     0.15289   0.21144   0.29081   0.00000  Uiso   1.00
C282   C     0.76955   0.21049   0.42152   0.00000  Uiso   1.00
C283   C     0.70687   0.14008   0.41250   0.00000  Uiso   1.00
C284   C     0.63861   0.17124   0.37863   0.00000  Uiso   1.00
C285   C     0.51511   0.18422   0.32704   0.00000  Uiso   1.00
C286   C     0.85240   0.27388   0.50657   0.00000  Uiso   1.00
C287   C     0.85936   0.25677   0.56906   0.00000  Uiso   1.00
C288   C     0.86084   0.34130   0.60679   0.00000  Uiso   1.00
C289   C     0.86597   0.45270   0.68725   0.00000  Uiso   1.00
C290   C     0.83982   0.37307   0.41299   0.00000  Uiso   1.00
C291   C     0.91482   0.31499   0.38902   0.00000  Uiso   1.00
C292   C     0.97325   0.35166   0.34796   0.00000  Uiso   1.00
C293   C     0.03726   0.28672   0.33170   0.00000  Uiso   1.00
C294   C     0.76424   0.30855   0.39756   0.00000  Uiso   1.00
C295   C     0.69605   0.33982   0.36369   0.00000  Uiso   1.00
C296   C     0.63329   0.26948   0.35462   0.00000  Uiso   1.00
C297   C     0.84709   0.37194   0.48261   0.00000  Uiso   1.00
C298   C     0.84855   0.45651   0.52025   0.00000  Uiso   1.00
C299   C     0.85551   0.43953   0.58279   0.00000  Uiso   1.00
H300   H     0.85373   0.11618   0.47575   0.00000  Uiso   1.00
H301   H     0.98815   0.07603   0.41532   0.00000  Uiso   1.00
H302   H     0.71100   0.06420   0.43105   0.00000  Uiso   1.00
H303   H     0.86347   0.18087   0.58758   0.00000  Uiso   1.00
H304   H     0.13483   0.07475   0.33773   0.00000  Uiso   1.00
H305   H     0.55042   0.04982   0.37093   0.00000  Uiso   1.00
H306   H     0.87193   0.29584   0.70100   0.00000  Uiso   1.00
H307   H     0.83568   0.44941   0.39433   0.00000  Uiso   1.00
H308   H     0.96912   0.42755   0.32943   0.00000  Uiso   1.00
H309   H     0.69196   0.41572   0.34516   0.00000  Uiso   1.00
H310   H     0.84443   0.53239   0.50169   0.00000  Uiso   1.00
H311   H     0.11938   0.36006   0.26802   0.00000  Uiso   1.00
H312   H     0.53496   0.33512   0.30121   0.00000  Uiso   1.00
H313   H     0.85648   0.58114   0.63129   0.00000  Uiso   1.00
O314   O     0.21519   0.19700   0.26163   0.00000  Uiso   1.00
O315   O     0.44846   0.16429   0.30519   0.00000  Uiso   1.00
O316   O     0.87028   0.48706   0.73825   0.00000  Uiso   1.00
N317   N     0.11289   0.14491   0.33024   0.00000  Uiso   1.00
N318   N     0.56651   0.12159   0.36127   0.00000  Uiso   1.00
N319   N     0.86707   0.35160   0.66986   0.00000  Uiso   1.00
N320   N     0.10458   0.29843   0.29273   0.00000  Uiso   1.00
N321   N     0.55819   0.27511   0.32376   0.00000  Uiso   1.00
N322   N     0.85876   0.50512   0.63235   0.00000  Uiso   1.00
C323   C     0.65040   0.80747   0.45710   0.00000  Uiso   1.00
C324   C     0.57986   0.78307   0.41298   0.00000  Uiso   1.00
C325   C     0.51593   0.84808   0.39677   0.00000  Uiso   1.00
C326   C     0.45742   0.81152   0.35570   0.00000  Uiso   1.00
C327   C     0.34711   0.78856   0.29081   0.00000  Uiso   1.00
C328   C     0.73045   0.78951   0.42152   0.00000  Uiso   1.00
C329   C     0.79313   0.85992   0.41250   0.00000  Uiso   1.00
C330   C     0.86139   0.82876   0.37863   0.00000  Uiso   1.00
C331   C     0.98489   0.81578   0.32704   0.00000  Uiso   1.00
C332   C     0.64760   0.72612   0.50657   0.00000  Uiso   1.00
C333   C     0.64064   0.74323   0.56906   0.00000  Uiso   1.00
C334   C     0.63916   0.65870   0.60679   0.00000  Uiso   1.00
C335   C     0.63403   0.54730   0.68725   0.00000  Uiso   1.00
C336   C     0.66018   0.62693   0.41299   0.00000  Uiso   1.00
C337   C     0.58518   0.68501   0.38902   0.00000  Uiso   1.00
C338   C     0.52675   0.64834   0.34796   0.00000  Uiso   1.00
C339   C     0.46274   0.71328   0.33170   0.00000  Uiso   1.00
C340   C     0.73576   0.69145   0.39756   0.00000  Uiso   1.00
C341   C     0.80395   0.66018   0.36369   0.00000  Uiso   1.00
C342   C     0.86671   0.73052   0.35462   0.00000  Uiso   1.00
C343   C     0.65291   0.62806   0.48261   0.00000  Uiso   1.00
C344   C     0.65145   0.54349   0.52025   0.00000  Uiso   1.00
C345   C     0.64449   0.56047   0.58279   0.00000  Uiso   1.00
H346   H     0.64627   0.88382   0.47575   0.00000  Uiso   1.00
H347   H     0.51185   0.92397   0.41532   0.00000  Uiso   1.00
H348   H     0.78900   0.93580   0.43105   0.00000  Uiso   1.00
H349   H     0.63653   0.81913   0.58758   0.00000  Uiso   1.00
H350   H     0.36517   0.92525   0.33773   0.00000  Uiso   1.00
H351   H     0.94958   0.95018   0.37093   0.00000  Uiso   1.00
H352   H     0.62807   0.70416   0.70100   0.00000  Uiso   1.00
H353   H     0.66432   0.55059   0.39433   0.00000  Uiso   1.00
H354   H     0.53088   0.57245   0.32943   0.00000  Uiso   1.00
H355   H     0.80804   0.58428   0.34516   0.00000  Uiso   1.00
H356   H     0.65557   0.46761   0.50169   0.00000  Uiso   1.00
H357   H     0.38062   0.63994   0.26802   0.00000  Uiso   1.00
H358   H     0.96504   0.66488   0.30121   0.00000  Uiso   1.00
H359   H     0.64352   0.41886   0.63129   0.00000  Uiso   1.00
O360   O     0.28481   0.80300   0.26163   0.00000  Uiso   1.00
O361   O     0.05154   0.83571   0.30519   0.00000  Uiso   1.00
O362   O     0.62972   0.51294   0.73825   0.00000  Uiso   1.00
N363   N     0.38711   0.85509   0.33024   0.00000  Uiso   1.00
N364   N     0.93349   0.87841   0.36127   0.00000  Uiso   1.00
N365   N     0.63293   0.64840   0.66986   0.00000  Uiso   1.00
N366   N     0.39542   0.70157   0.29273   0.00000  Uiso   1.00
N367   N     0.94181   0.72489   0.32376   0.00000  Uiso   1.00
N368   N     0.64124   0.49488   0.63235   0.00000  Uiso   1.00
