data_job_01838
_audit_creation_date              2018-12-19
_audit_creation_method            'Materials Studio'
_symmetry_space_group_name_H-M    'P1'
_symmetry_Int_Tables_number       1
_symmetry_cell_setting            triclinic
loop_
_symmetry_equiv_pos_as_xyz
  x,y,z
_cell_length_a                    11.2481
_cell_length_b                    11.8746
_cell_length_c                    23.9311
_cell_angle_alpha                 90.0000
_cell_angle_beta                  85.7921
_cell_angle_gamma                 90.0000
loop_
_atom_site_label
_atom_site_type_symbol
_atom_site_fract_x
_atom_site_fract_y
_atom_site_fract_z
_atom_site_U_iso_or_equiv
_atom_site_adp_type
_atom_site_occupancy
C1     C     0.85139   0.47810   0.61064   0.00000  Uiso   1.00
C2     C     0.82214   0.46405   0.67349   0.00000  Uiso   1.00
C3     C     0.89927   0.42359   0.71148   0.00000  Uiso   1.00
C4     C     0.85557   0.41711   0.76717   0.00000  Uiso   1.00
C5     C     0.82788   0.39025   0.86216   0.00000  Uiso   1.00
C6     C     0.75775   0.41031   0.58221   0.00000  Uiso   1.00
C7     C     0.78075   0.32467   0.54345   0.00000  Uiso   1.00
C8     C     0.68284   0.27296   0.52230   0.00000  Uiso   1.00
C9     C     0.55519   0.16272   0.47555   0.00000  Uiso   1.00
C10    C     0.82710   0.60136   0.59770   0.00000  Uiso   1.00
C11    C     0.90839   0.67636   0.57196   0.00000  Uiso   1.00
C12    C     0.86885   0.78550   0.56384   0.00000  Uiso   1.00
C13    C     0.84887   0.97190   0.54114   0.00000  Uiso   1.00
C14    C     0.63663   0.53856   0.64198   0.00000  Uiso   1.00
C15    C     0.70549   0.49689   0.69051   0.00000  Uiso   1.00
C16    C     0.66166   0.49048   0.74616   0.00000  Uiso   1.00
C17    C     0.73871   0.45002   0.78423   0.00000  Uiso   1.00
C18    C     0.64111   0.44314   0.59923   0.00000  Uiso   1.00
C19    C     0.54314   0.39156   0.57813   0.00000  Uiso   1.00
C20    C     0.56598   0.30586   0.53935   0.00000  Uiso   1.00
C21    C     0.71045   0.63420   0.61473   0.00000  Uiso   1.00
C22    C     0.67078   0.74325   0.60664   0.00000  Uiso   1.00
C23    C     0.75199   0.81840   0.58089   0.00000  Uiso   1.00
H24    H     0.94220   0.45253   0.59738   0.00000  Uiso   1.00
H25    H     0.98953   0.39817   0.69829   0.00000  Uiso   1.00
H26    H     0.87103   0.29928   0.53028   0.00000  Uiso   1.00
H27    H     0.99865   0.65092   0.55879   0.00000  Uiso   1.00
H28    H     0.99055   0.35235   0.81766   0.00000  Uiso   1.00
H29    H     0.74068   0.14386   0.46340   0.00000  Uiso   1.00
H30    H     0.00979   0.88535   0.52351   0.00000  Uiso   1.00
H31    H     0.54581   0.56413   0.65524   0.00000  Uiso   1.00
H32    H     0.57139   0.51590   0.75932   0.00000  Uiso   1.00
H33    H     0.45288   0.41700   0.59131   0.00000  Uiso   1.00
H34    H     0.58050   0.76863   0.61982   0.00000  Uiso   1.00
H35    H     0.65117   0.44790   0.86720   0.00000  Uiso   1.00
H36    H     0.40130   0.23940   0.51293   0.00000  Uiso   1.00
H37    H     0.67040   0.98089   0.57305   0.00000  Uiso   1.00
O38    O     0.84482   0.36635   0.90985   0.00000  Uiso   1.00
O39    O     0.51701   0.09283   0.44506   0.00000  Uiso   1.00
O40    O     0.87008   0.06564   0.52393   0.00000  Uiso   1.00
N41    N     0.90717   0.38148   0.81504   0.00000  Uiso   1.00
N42    N     0.67356   0.18654   0.48383   0.00000  Uiso   1.00
N43    N     0.92515   0.87976   0.54001   0.00000  Uiso   1.00
N44    N     0.72455   0.43289   0.84169   0.00000  Uiso   1.00
N45    N     0.49094   0.23795   0.51049   0.00000  Uiso   1.00
N46    N     0.74253   0.93117   0.56667   0.00000  Uiso   1.00
C47    C     0.14861   0.97810   0.88936   0.00000  Uiso   1.00
C48    C     0.17786   0.96405   0.82651   0.00000  Uiso   1.00
C49    C     0.10073   0.92359   0.78852   0.00000  Uiso   1.00
C50    C     0.14443   0.91711   0.73283   0.00000  Uiso   1.00
C51    C     0.17212   0.89025   0.63784   0.00000  Uiso   1.00
C52    C     0.24225   0.91031   0.91779   0.00000  Uiso   1.00
C53    C     0.21925   0.82467   0.95655   0.00000  Uiso   1.00
C54    C     0.31716   0.77296   0.97770   0.00000  Uiso   1.00
C55    C     0.44481   0.66272   0.02445   0.00000  Uiso   1.00
C56    C     0.17290   0.10136   0.90230   0.00000  Uiso   1.00
C57    C     0.09161   0.17636   0.92804   0.00000  Uiso   1.00
C58    C     0.13115   0.28550   0.93616   0.00000  Uiso   1.00
C59    C     0.15113   0.47190   0.95886   0.00000  Uiso   1.00
C60    C     0.36337   0.03856   0.85802   0.00000  Uiso   1.00
C61    C     0.29451   0.99689   0.80949   0.00000  Uiso   1.00
C62    C     0.33834   0.99048   0.75384   0.00000  Uiso   1.00
C63    C     0.26129   0.95002   0.71577   0.00000  Uiso   1.00
C64    C     0.35889   0.94314   0.90077   0.00000  Uiso   1.00
C65    C     0.45686   0.89156   0.92187   0.00000  Uiso   1.00
C66    C     0.43402   0.80586   0.96065   0.00000  Uiso   1.00
C67    C     0.28955   0.13420   0.88527   0.00000  Uiso   1.00
C68    C     0.32922   0.24325   0.89336   0.00000  Uiso   1.00
C69    C     0.24801   0.31840   0.91911   0.00000  Uiso   1.00
H70    H     0.05780   0.95253   0.90262   0.00000  Uiso   1.00
H71    H     0.01047   0.89817   0.80171   0.00000  Uiso   1.00
H72    H     0.12897   0.79928   0.96972   0.00000  Uiso   1.00
H73    H     0.00135   0.15092   0.94121   0.00000  Uiso   1.00
H74    H     0.00945   0.85235   0.68234   0.00000  Uiso   1.00
H75    H     0.25932   0.64386   0.03660   0.00000  Uiso   1.00
H76    H     0.99021   0.38535   0.97649   0.00000  Uiso   1.00
H77    H     0.45419   0.06413   0.84476   0.00000  Uiso   1.00
H78    H     0.42861   0.01590   0.74068   0.00000  Uiso   1.00
H79    H     0.54712   0.91700   0.90869   0.00000  Uiso   1.00
H80    H     0.41950   0.26863   0.88018   0.00000  Uiso   1.00
H81    H     0.34883   0.94790   0.63280   0.00000  Uiso   1.00
H82    H     0.59870   0.73940   0.98707   0.00000  Uiso   1.00
H83    H     0.32960   0.48089   0.92695   0.00000  Uiso   1.00
O84    O     0.15518   0.86635   0.59015   0.00000  Uiso   1.00
O85    O     0.48299   0.59283   0.05494   0.00000  Uiso   1.00
O86    O     0.12992   0.56564   0.97607   0.00000  Uiso   1.00
N87    N     0.09283   0.88148   0.68496   0.00000  Uiso   1.00
N88    N     0.32644   0.68654   0.01617   0.00000  Uiso   1.00
N89    N     0.07485   0.37976   0.95999   0.00000  Uiso   1.00
N90    N     0.27545   0.93289   0.65831   0.00000  Uiso   1.00
N91    N     0.50906   0.73795   0.98951   0.00000  Uiso   1.00
N92    N     0.25747   0.43117   0.93333   0.00000  Uiso   1.00
C93    C     0.14861   0.52190   0.38936   0.00000  Uiso   1.00
C94    C     0.17786   0.53595   0.32651   0.00000  Uiso   1.00
C95    C     0.10073   0.57641   0.28852   0.00000  Uiso   1.00
C96    C     0.14443   0.58289   0.23283   0.00000  Uiso   1.00
C97    C     0.17212   0.60975   0.13784   0.00000  Uiso   1.00
C98    C     0.24225   0.58969   0.41779   0.00000  Uiso   1.00
C99    C     0.21925   0.67533   0.45655   0.00000  Uiso   1.00
C100   C     0.31716   0.72704   0.47770   0.00000  Uiso   1.00
C101   C     0.44481   0.83728   0.52445   0.00000  Uiso   1.00
C102   C     0.17290   0.39864   0.40230   0.00000  Uiso   1.00
C103   C     0.09161   0.32364   0.42804   0.00000  Uiso   1.00
C104   C     0.13115   0.21450   0.43616   0.00000  Uiso   1.00
C105   C     0.15113   0.02810   0.45886   0.00000  Uiso   1.00
C106   C     0.36337   0.46144   0.35802   0.00000  Uiso   1.00
C107   C     0.29451   0.50311   0.30949   0.00000  Uiso   1.00
C108   C     0.33834   0.50952   0.25384   0.00000  Uiso   1.00
C109   C     0.26129   0.54998   0.21577   0.00000  Uiso   1.00
C110   C     0.35889   0.55686   0.40077   0.00000  Uiso   1.00
C111   C     0.45686   0.60844   0.42187   0.00000  Uiso   1.00
C112   C     0.43402   0.69414   0.46065   0.00000  Uiso   1.00
C113   C     0.28955   0.36580   0.38527   0.00000  Uiso   1.00
C114   C     0.32922   0.25675   0.39336   0.00000  Uiso   1.00
C115   C     0.24801   0.18160   0.41911   0.00000  Uiso   1.00
H116   H     0.05780   0.54747   0.40262   0.00000  Uiso   1.00
H117   H     0.01047   0.60183   0.30171   0.00000  Uiso   1.00
H118   H     0.12897   0.70072   0.46972   0.00000  Uiso   1.00
H119   H     0.00135   0.34908   0.44121   0.00000  Uiso   1.00
H120   H     0.00945   0.64765   0.18234   0.00000  Uiso   1.00
H121   H     0.25932   0.85614   0.53660   0.00000  Uiso   1.00
H122   H     0.99021   0.11465   0.47649   0.00000  Uiso   1.00
H123   H     0.45419   0.43587   0.34476   0.00000  Uiso   1.00
H124   H     0.42861   0.48410   0.24068   0.00000  Uiso   1.00
H125   H     0.54712   0.58300   0.40869   0.00000  Uiso   1.00
H126   H     0.41950   0.23137   0.38018   0.00000  Uiso   1.00
H127   H     0.34883   0.55210   0.13280   0.00000  Uiso   1.00
H128   H     0.59870   0.76060   0.48707   0.00000  Uiso   1.00
H129   H     0.32960   0.01911   0.42695   0.00000  Uiso   1.00
O130   O     0.15518   0.63365   0.09015   0.00000  Uiso   1.00
O131   O     0.48299   0.90717   0.55494   0.00000  Uiso   1.00
O132   O     0.12992   0.93436   0.47607   0.00000  Uiso   1.00
N133   N     0.09283   0.61852   0.18496   0.00000  Uiso   1.00
N134   N     0.32644   0.81346   0.51617   0.00000  Uiso   1.00
N135   N     0.07485   0.12024   0.45999   0.00000  Uiso   1.00
N136   N     0.27545   0.56711   0.15831   0.00000  Uiso   1.00
N137   N     0.50906   0.76205   0.48951   0.00000  Uiso   1.00
N138   N     0.25747   0.06883   0.43333   0.00000  Uiso   1.00
C139   C     0.85139   0.02190   0.11064   0.00000  Uiso   1.00
C140   C     0.82214   0.03595   0.17349   0.00000  Uiso   1.00
C141   C     0.89927   0.07641   0.21148   0.00000  Uiso   1.00
C142   C     0.85557   0.08289   0.26717   0.00000  Uiso   1.00
C143   C     0.82788   0.10975   0.36216   0.00000  Uiso   1.00
C144   C     0.75775   0.08969   0.08221   0.00000  Uiso   1.00
C145   C     0.78075   0.17533   0.04345   0.00000  Uiso   1.00
C146   C     0.68284   0.22704   0.02230   0.00000  Uiso   1.00
C147   C     0.55519   0.33728   0.97555   0.00000  Uiso   1.00
C148   C     0.82710   0.89864   0.09770   0.00000  Uiso   1.00
C149   C     0.90839   0.82364   0.07196   0.00000  Uiso   1.00
C150   C     0.86885   0.71450   0.06384   0.00000  Uiso   1.00
C151   C     0.84887   0.52810   0.04114   0.00000  Uiso   1.00
C152   C     0.63663   0.96144   0.14198   0.00000  Uiso   1.00
C153   C     0.70549   0.00311   0.19051   0.00000  Uiso   1.00
C154   C     0.66166   0.00952   0.24616   0.00000  Uiso   1.00
C155   C     0.73871   0.04998   0.28423   0.00000  Uiso   1.00
C156   C     0.64111   0.05686   0.09923   0.00000  Uiso   1.00
C157   C     0.54314   0.10844   0.07813   0.00000  Uiso   1.00
C158   C     0.56598   0.19414   0.03935   0.00000  Uiso   1.00
C159   C     0.71045   0.86580   0.11473   0.00000  Uiso   1.00
C160   C     0.67078   0.75675   0.10664   0.00000  Uiso   1.00
C161   C     0.75199   0.68160   0.08089   0.00000  Uiso   1.00
H162   H     0.94220   0.04747   0.09738   0.00000  Uiso   1.00
H163   H     0.98953   0.10183   0.19829   0.00000  Uiso   1.00
H164   H     0.87103   0.20072   0.03028   0.00000  Uiso   1.00
H165   H     0.99865   0.84908   0.05879   0.00000  Uiso   1.00
H166   H     0.99055   0.14765   0.31766   0.00000  Uiso   1.00
H167   H     0.74068   0.35614   0.96340   0.00000  Uiso   1.00
H168   H     0.00979   0.61465   0.02351   0.00000  Uiso   1.00
H169   H     0.54581   0.93587   0.15524   0.00000  Uiso   1.00
H170   H     0.57139   0.98410   0.25932   0.00000  Uiso   1.00
H171   H     0.45288   0.08300   0.09131   0.00000  Uiso   1.00
H172   H     0.58050   0.73137   0.11982   0.00000  Uiso   1.00
H173   H     0.65117   0.05210   0.36720   0.00000  Uiso   1.00
H174   H     0.40130   0.26060   0.01293   0.00000  Uiso   1.00
H175   H     0.67040   0.51911   0.07305   0.00000  Uiso   1.00
O176   O     0.84482   0.13365   0.40985   0.00000  Uiso   1.00
O177   O     0.51701   0.40717   0.94506   0.00000  Uiso   1.00
O178   O     0.87008   0.43436   0.02393   0.00000  Uiso   1.00
N179   N     0.90717   0.11852   0.31504   0.00000  Uiso   1.00
N180   N     0.67356   0.31346   0.98383   0.00000  Uiso   1.00
N181   N     0.92515   0.62024   0.04001   0.00000  Uiso   1.00
N182   N     0.72455   0.06711   0.34169   0.00000  Uiso   1.00
N183   N     0.49094   0.26205   0.01049   0.00000  Uiso   1.00
N184   N     0.74253   0.56883   0.06667   0.00000  Uiso   1.00
