data_job_02209
_audit_creation_date              2018-12-19
_audit_creation_method            'Materials Studio'
_symmetry_space_group_name_H-M    'P1'
_symmetry_Int_Tables_number       1
_symmetry_cell_setting            triclinic
loop_
_symmetry_equiv_pos_as_xyz
  x,y,z
_cell_length_a                    17.4346
_cell_length_b                    14.5854
_cell_length_c                    9.3836
_cell_angle_alpha                 90.0000
_cell_angle_beta                  81.2801
_cell_angle_gamma                 90.0000
loop_
_atom_site_label
_atom_site_type_symbol
_atom_site_fract_x
_atom_site_fract_y
_atom_site_fract_z
_atom_site_U_iso_or_equiv
_atom_site_adp_type
_atom_site_occupancy
C1     C     0.99050   0.62507   0.42748   0.00000  Uiso   1.00
C2     C     0.98771   0.63472   0.59000   0.00000  Uiso   1.00
C3     C     0.98337   0.71667   0.66595   0.00000  Uiso   1.00
C4     C     0.98141   0.71095   0.81415   0.00000  Uiso   1.00
C5     C     0.97678   0.73882   0.05591   0.00000  Uiso   1.00
C6     C     0.06394   0.57074   0.37379   0.00000  Uiso   1.00
C7     C     0.12367   0.59890   0.26793   0.00000  Uiso   1.00
C8     C     0.18587   0.53931   0.23411   0.00000  Uiso   1.00
C9     C     0.29955   0.46782   0.14012   0.00000  Uiso   1.00
C10    C     0.92278   0.56293   0.40646   0.00000  Uiso   1.00
C11    C     0.86383   0.58450   0.32804   0.00000  Uiso   1.00
C12    C     0.80719   0.51832   0.32170   0.00000  Uiso   1.00
C13    C     0.70169   0.43470   0.27843   0.00000  Uiso   1.00
C14    C     0.99476   0.46919   0.55562   0.00000  Uiso   1.00
C15    C     0.99003   0.55005   0.65960   0.00000  Uiso   1.00
C16    C     0.98808   0.54420   0.80772   0.00000  Uiso   1.00
C17    C     0.98373   0.62613   0.88388   0.00000  Uiso   1.00
C18    C     0.06625   0.48607   0.44339   0.00000  Uiso   1.00
C19    C     0.12838   0.42643   0.40971   0.00000  Uiso   1.00
C20    C     0.18819   0.45449   0.30384   0.00000  Uiso   1.00
C21    C     0.92509   0.47826   0.47606   0.00000  Uiso   1.00
C22    C     0.86854   0.41203   0.46982   0.00000  Uiso   1.00
C23    C     0.80951   0.43350   0.39142   0.00000  Uiso   1.00
H24    H     0.98870   0.69099   0.37329   0.00000  Uiso   1.00
H25    H     0.98159   0.78218   0.61204   0.00000  Uiso   1.00
H26    H     0.12186   0.66442   0.21408   0.00000  Uiso   1.00
H27    H     0.86206   0.65002   0.27419   0.00000  Uiso   1.00
H28    H     0.97474   0.84595   0.90744   0.00000  Uiso   1.00
H29    H     0.27051   0.59763   0.06828   0.00000  Uiso   1.00
H30    H     0.72266   0.56727   0.19502   0.00000  Uiso   1.00
H31    H     0.99656   0.40327   0.60981   0.00000  Uiso   1.00
H32    H     0.98987   0.47867   0.86155   0.00000  Uiso   1.00
H33    H     0.13015   0.36091   0.46359   0.00000  Uiso   1.00
H34    H     0.87034   0.34652   0.52370   0.00000  Uiso   1.00
H35    H     0.98147   0.59961   0.10995   0.00000  Uiso   1.00
H36    H     0.27723   0.35129   0.27078   0.00000  Uiso   1.00
H37    H     0.72939   0.32094   0.39754   0.00000  Uiso   1.00
O38    O     0.97359   0.77758   0.17002   0.00000  Uiso   1.00
O39    O     0.36161   0.45179   0.06906   0.00000  Uiso   1.00
O40    O     0.64285   0.41197   0.23536   0.00000  Uiso   1.00
N41    N     0.97723   0.77762   0.92055   0.00000  Uiso   1.00
N42    N     0.25376   0.54547   0.13601   0.00000  Uiso   1.00
N43    N     0.74158   0.51708   0.25447   0.00000  Uiso   1.00
N44    N     0.98085   0.64507   0.02952   0.00000  Uiso   1.00
N45    N     0.25738   0.41291   0.24498   0.00000  Uiso   1.00
N46    N     0.74520   0.38453   0.36344   0.00000  Uiso   1.00
C47    C     0.45962   0.13473   0.43381   0.00000  Uiso   1.00
C48    C     0.45155   0.14147   0.59758   0.00000  Uiso   1.00
C49    C     0.41072   0.20859   0.68235   0.00000  Uiso   1.00
C50    C     0.41032   0.20276   0.83014   0.00000  Uiso   1.00
C51    C     0.39188   0.22397   0.07519   0.00000  Uiso   1.00
C52    C     0.54654   0.13411   0.37888   0.00000  Uiso   1.00
C53    C     0.58558   0.19503   0.27974   0.00000  Uiso   1.00
C54    C     0.66514   0.18298   0.24342   0.00000  Uiso   1.00
C55    C     0.79417   0.19272   0.14884   0.00000  Uiso   1.00
C56    C     0.43003   0.03973   0.40155   0.00000  Uiso   1.00
C57    C     0.37113   0.02128   0.32145   0.00000  Uiso   1.00
C58    C     0.35261   0.92977   0.30419   0.00000  Uiso   1.00
C59    C     0.30074   0.79296   0.24483   0.00000  Uiso   1.00
C60    C     0.53149   0.00501   0.54555   0.00000  Uiso   1.00
C61    C     0.49059   0.07102   0.65827   0.00000  Uiso   1.00
C62    C     0.49024   0.06508   0.80598   0.00000  Uiso   1.00
C63    C     0.44943   0.13217   0.89095   0.00000  Uiso   1.00
C64    C     0.58558   0.06365   0.43956   0.00000  Uiso   1.00
C65    C     0.66510   0.05151   0.40337   0.00000  Uiso   1.00
C66    C     0.70425   0.11240   0.30422   0.00000  Uiso   1.00
C67    C     0.46907   0.96927   0.46225   0.00000  Uiso   1.00
C68    C     0.45064   0.87777   0.44509   0.00000  Uiso   1.00
C69    C     0.39172   0.85919   0.36499   0.00000  Uiso   1.00
H70    H     0.42923   0.18959   0.38656   0.00000  Uiso   1.00
H71    H     0.38053   0.26311   0.63534   0.00000  Uiso   1.00
H72    H     0.55535   0.24954   0.23278   0.00000  Uiso   1.00
H73    H     0.34093   0.07582   0.27450   0.00000  Uiso   1.00
H74    H     0.34377   0.31358   0.93791   0.00000  Uiso   1.00
H75    H     0.71239   0.28494   0.08908   0.00000  Uiso   1.00
H76    H     0.26024   0.91862   0.17704   0.00000  Uiso   1.00
H77    H     0.56189   0.95016   0.59280   0.00000  Uiso   1.00
H78    H     0.52046   0.01054   0.85291   0.00000  Uiso   1.00
H79    H     0.69529   0.99697   0.45035   0.00000  Uiso   1.00
H80    H     0.48087   0.82326   0.49207   0.00000  Uiso   1.00
H81    H     0.45735   0.10859   0.11451   0.00000  Uiso   1.00
H82    H     0.82597   0.07995   0.26565   0.00000  Uiso   1.00
H83    H     0.37382   0.71363   0.35363   0.00000  Uiso   1.00
O84    O     0.37094   0.25514   0.19359   0.00000  Uiso   1.00
O85    O     0.85455   0.21756   0.07992   0.00000  Uiso   1.00
O86    O     0.26134   0.73697   0.19534   0.00000  Uiso   1.00
N87    N     0.37617   0.25704   0.94378   0.00000  Uiso   1.00
N88    N     0.72082   0.23027   0.15018   0.00000  Uiso   1.00
N89    N     0.29811   0.88779   0.23239   0.00000  Uiso   1.00
N90    N     0.43729   0.14673   0.03880   0.00000  Uiso   1.00
N91    N     0.78193   0.11996   0.24520   0.00000  Uiso   1.00
N92    N     0.35922   0.77749   0.32741   0.00000  Uiso   1.00
C93    C     0.00950   0.12507   0.57252   0.00000  Uiso   1.00
C94    C     0.01229   0.13472   0.41000   0.00000  Uiso   1.00
C95    C     0.01663   0.21667   0.33405   0.00000  Uiso   1.00
C96    C     0.01859   0.21095   0.18585   0.00000  Uiso   1.00
C97    C     0.02322   0.23882   0.94409   0.00000  Uiso   1.00
C98    C     0.93606   0.07074   0.62621   0.00000  Uiso   1.00
C99    C     0.87633   0.09890   0.73207   0.00000  Uiso   1.00
C100   C     0.81413   0.03931   0.76589   0.00000  Uiso   1.00
C101   C     0.70045   0.96782   0.85988   0.00000  Uiso   1.00
C102   C     0.07722   0.06293   0.59354   0.00000  Uiso   1.00
C103   C     0.13617   0.08450   0.67196   0.00000  Uiso   1.00
C104   C     0.19281   0.01832   0.67830   0.00000  Uiso   1.00
C105   C     0.29831   0.93470   0.72157   0.00000  Uiso   1.00
C106   C     0.00524   0.96919   0.44438   0.00000  Uiso   1.00
C107   C     0.00997   0.05005   0.34040   0.00000  Uiso   1.00
C108   C     0.01192   0.04420   0.19228   0.00000  Uiso   1.00
C109   C     0.01627   0.12613   0.11612   0.00000  Uiso   1.00
C110   C     0.93375   0.98607   0.55661   0.00000  Uiso   1.00
C111   C     0.87162   0.92643   0.59029   0.00000  Uiso   1.00
C112   C     0.81181   0.95449   0.69616   0.00000  Uiso   1.00
C113   C     0.07491   0.97826   0.52394   0.00000  Uiso   1.00
C114   C     0.13146   0.91203   0.53018   0.00000  Uiso   1.00
C115   C     0.19049   0.93350   0.60858   0.00000  Uiso   1.00
H116   H     0.01130   0.19099   0.62671   0.00000  Uiso   1.00
H117   H     0.01841   0.28218   0.38796   0.00000  Uiso   1.00
H118   H     0.87814   0.16442   0.78592   0.00000  Uiso   1.00
H119   H     0.13794   0.15002   0.72581   0.00000  Uiso   1.00
H120   H     0.02526   0.34595   0.09256   0.00000  Uiso   1.00
H121   H     0.72949   0.09763   0.93172   0.00000  Uiso   1.00
H122   H     0.27734   0.06727   0.80498   0.00000  Uiso   1.00
H123   H     0.00344   0.90327   0.39019   0.00000  Uiso   1.00
H124   H     0.01013   0.97867   0.13845   0.00000  Uiso   1.00
H125   H     0.86985   0.86091   0.53641   0.00000  Uiso   1.00
H126   H     0.12966   0.84652   0.47630   0.00000  Uiso   1.00
H127   H     0.01853   0.09961   0.89005   0.00000  Uiso   1.00
H128   H     0.72277   0.85129   0.72922   0.00000  Uiso   1.00
H129   H     0.27061   0.82094   0.60246   0.00000  Uiso   1.00
O130   O     0.02641   0.27758   0.82998   0.00000  Uiso   1.00
O131   O     0.63839   0.95179   0.93094   0.00000  Uiso   1.00
O132   O     0.35715   0.91197   0.76464   0.00000  Uiso   1.00
N133   N     0.02277   0.27762   0.07945   0.00000  Uiso   1.00
N134   N     0.74624   0.04547   0.86399   0.00000  Uiso   1.00
N135   N     0.25842   0.01708   0.74553   0.00000  Uiso   1.00
N136   N     0.01915   0.14507   0.97048   0.00000  Uiso   1.00
N137   N     0.74262   0.91291   0.75502   0.00000  Uiso   1.00
N138   N     0.25480   0.88453   0.63656   0.00000  Uiso   1.00
C139   C     0.54038   0.63473   0.56619   0.00000  Uiso   1.00
C140   C     0.54845   0.64147   0.40242   0.00000  Uiso   1.00
C141   C     0.58928   0.70859   0.31765   0.00000  Uiso   1.00
C142   C     0.58968   0.70276   0.16986   0.00000  Uiso   1.00
C143   C     0.60812   0.72397   0.92481   0.00000  Uiso   1.00
C144   C     0.45346   0.63411   0.62112   0.00000  Uiso   1.00
C145   C     0.41442   0.69503   0.72026   0.00000  Uiso   1.00
C146   C     0.33486   0.68298   0.75658   0.00000  Uiso   1.00
C147   C     0.20583   0.69272   0.85116   0.00000  Uiso   1.00
C148   C     0.56997   0.53973   0.59845   0.00000  Uiso   1.00
C149   C     0.62887   0.52128   0.67855   0.00000  Uiso   1.00
C150   C     0.64739   0.42977   0.69581   0.00000  Uiso   1.00
C151   C     0.69926   0.29296   0.75517   0.00000  Uiso   1.00
C152   C     0.46851   0.50501   0.45445   0.00000  Uiso   1.00
C153   C     0.50941   0.57102   0.34173   0.00000  Uiso   1.00
C154   C     0.50976   0.56508   0.19402   0.00000  Uiso   1.00
C155   C     0.55057   0.63217   0.10905   0.00000  Uiso   1.00
C156   C     0.41442   0.56365   0.56044   0.00000  Uiso   1.00
C157   C     0.33490   0.55151   0.59663   0.00000  Uiso   1.00
C158   C     0.29575   0.61240   0.69578   0.00000  Uiso   1.00
C159   C     0.53093   0.46927   0.53775   0.00000  Uiso   1.00
C160   C     0.54936   0.37777   0.55491   0.00000  Uiso   1.00
C161   C     0.60828   0.35919   0.63501   0.00000  Uiso   1.00
H162   H     0.57077   0.68959   0.61344   0.00000  Uiso   1.00
H163   H     0.61947   0.76311   0.36466   0.00000  Uiso   1.00
H164   H     0.44465   0.74954   0.76722   0.00000  Uiso   1.00
H165   H     0.65907   0.57582   0.72550   0.00000  Uiso   1.00
H166   H     0.65623   0.81358   0.06209   0.00000  Uiso   1.00
H167   H     0.28761   0.78494   0.91092   0.00000  Uiso   1.00
H168   H     0.73976   0.41862   0.82296   0.00000  Uiso   1.00
H169   H     0.43811   0.45016   0.40720   0.00000  Uiso   1.00
H170   H     0.47954   0.51054   0.14709   0.00000  Uiso   1.00
H171   H     0.30471   0.49697   0.54965   0.00000  Uiso   1.00
H172   H     0.51913   0.32326   0.50793   0.00000  Uiso   1.00
H173   H     0.54265   0.60859   0.88549   0.00000  Uiso   1.00
H174   H     0.17403   0.57995   0.73435   0.00000  Uiso   1.00
H175   H     0.62618   0.21363   0.64637   0.00000  Uiso   1.00
O176   O     0.62906   0.75514   0.80641   0.00000  Uiso   1.00
O177   O     0.14545   0.71756   0.92008   0.00000  Uiso   1.00
O178   O     0.73866   0.23697   0.80466   0.00000  Uiso   1.00
N179   N     0.62383   0.75704   0.05622   0.00000  Uiso   1.00
N180   N     0.27918   0.73027   0.84982   0.00000  Uiso   1.00
N181   N     0.70189   0.38779   0.76761   0.00000  Uiso   1.00
N182   N     0.56271   0.64673   0.96120   0.00000  Uiso   1.00
N183   N     0.21807   0.61996   0.75480   0.00000  Uiso   1.00
N184   N     0.64078   0.27749   0.67259   0.00000  Uiso   1.00
