data_job_03472
_audit_creation_date              2018-12-19
_audit_creation_method            'Materials Studio'
_symmetry_space_group_name_H-M    'P1'
_symmetry_Int_Tables_number       1
_symmetry_cell_setting            triclinic
loop_
_symmetry_equiv_pos_as_xyz
  x,y,z
_cell_length_a                    14.2285
_cell_length_b                    20.3759
_cell_length_c                    34.1181
_cell_angle_alpha                 90.0000
_cell_angle_beta                  112.4603
_cell_angle_gamma                 90.0000
loop_
_atom_site_label
_atom_site_type_symbol
_atom_site_fract_x
_atom_site_fract_y
_atom_site_fract_z
_atom_site_U_iso_or_equiv
_atom_site_adp_type
_atom_site_occupancy
C1     C     0.56624   0.14314   0.82230   0.00000  Uiso   1.00
C2     C     0.65668   0.11306   0.85815   0.00000  Uiso   1.00
C3     C     0.74372   0.08808   0.85451   0.00000  Uiso   1.00
C4     C     0.81779   0.06269   0.89103   0.00000  Uiso   1.00
C5     C     0.96012   0.01601   0.94081   0.00000  Uiso   1.00
C6     C     0.47324   0.10408   0.82046   0.00000  Uiso   1.00
C7     C     0.40604   0.07155   0.78513   0.00000  Uiso   1.00
C8     C     0.32568   0.03860   0.78992   0.00000  Uiso   1.00
C9     C     0.18316   0.97801   0.78117   0.00000  Uiso   1.00
C10    C     0.55287   0.21182   0.83716   0.00000  Uiso   1.00
C11    C     0.55260   0.26989   0.81585   0.00000  Uiso   1.00
C12    C     0.53926   0.32766   0.83470   0.00000  Uiso   1.00
C13    C     0.52039   0.43436   0.85187   0.00000  Uiso   1.00
C14    C     0.54300   0.14247   0.89363   0.00000  Uiso   1.00
C15    C     0.64406   0.11270   0.89690   0.00000  Uiso   1.00
C16    C     0.71802   0.08734   0.93344   0.00000  Uiso   1.00
C17    C     0.80515   0.06233   0.92985   0.00000  Uiso   1.00
C18    C     0.46061   0.10371   0.85921   0.00000  Uiso   1.00
C19    C     0.38033   0.07080   0.86405   0.00000  Uiso   1.00
C20    C     0.31303   0.03823   0.82873   0.00000  Uiso   1.00
C21    C     0.54025   0.21146   0.87590   0.00000  Uiso   1.00
C22    C     0.52690   0.26914   0.89478   0.00000  Uiso   1.00
C23    C     0.52661   0.32729   0.87351   0.00000  Uiso   1.00
H24    H     0.57606   0.14343   0.79213   0.00000  Uiso   1.00
H25    H     0.75346   0.08837   0.82452   0.00000  Uiso   1.00
H26    H     0.41582   0.07185   0.75515   0.00000  Uiso   1.00
H27    H     0.56237   0.27015   0.78587   0.00000  Uiso   1.00
H28    H     0.94455   0.02715   0.87752   0.00000  Uiso   1.00
H29    H     0.23261   0.99232   0.73123   0.00000  Uiso   1.00
H30    H     0.54163   0.41050   0.79602   0.00000  Uiso   1.00
H31    H     0.53317   0.14219   0.92380   0.00000  Uiso   1.00
H32    H     0.70823   0.08706   0.96342   0.00000  Uiso   1.00
H33    H     0.37058   0.07054   0.89404   0.00000  Uiso   1.00
H34    H     0.51713   0.26884   0.92476   0.00000  Uiso   1.00
H35    H     0.90784   0.02608   0.99025   0.00000  Uiso   1.00
H36    H     0.19588   0.99126   0.84396   0.00000  Uiso   1.00
H37    H     0.50491   0.40943   0.90875   0.00000  Uiso   1.00
O38    O     0.04211   0.99035   0.95757   0.00000  Uiso   1.00
O39    O     0.10805   0.94468   0.76564   0.00000  Uiso   1.00
O40    O     0.51349   0.49331   0.85064   0.00000  Uiso   1.00
N41    N     0.91190   0.03447   0.89861   0.00000  Uiso   1.00
N42    N     0.24628   0.00190   0.76185   0.00000  Uiso   1.00
N43    N     0.53516   0.39286   0.82241   0.00000  Uiso   1.00
N44    N     0.89215   0.03390   0.95927   0.00000  Uiso   1.00
N45    N     0.22652   0.00133   0.82251   0.00000  Uiso   1.00
N46    N     0.51541   0.39229   0.88307   0.00000  Uiso   1.00
C47    C     0.06624   0.64314   0.82230   0.00000  Uiso   1.00
C48    C     0.15668   0.61306   0.85815   0.00000  Uiso   1.00
C49    C     0.24372   0.58808   0.85451   0.00000  Uiso   1.00
C50    C     0.31779   0.56269   0.89103   0.00000  Uiso   1.00
C51    C     0.46012   0.51601   0.94081   0.00000  Uiso   1.00
C52    C     0.97324   0.60408   0.82046   0.00000  Uiso   1.00
C53    C     0.90604   0.57155   0.78513   0.00000  Uiso   1.00
C54    C     0.82568   0.53860   0.78992   0.00000  Uiso   1.00
C55    C     0.68316   0.47801   0.78117   0.00000  Uiso   1.00
C56    C     0.05287   0.71182   0.83716   0.00000  Uiso   1.00
C57    C     0.05260   0.76989   0.81585   0.00000  Uiso   1.00
C58    C     0.03926   0.82766   0.83470   0.00000  Uiso   1.00
C59    C     0.02039   0.93436   0.85187   0.00000  Uiso   1.00
C60    C     0.04300   0.64247   0.89363   0.00000  Uiso   1.00
C61    C     0.14406   0.61270   0.89690   0.00000  Uiso   1.00
C62    C     0.21802   0.58734   0.93344   0.00000  Uiso   1.00
C63    C     0.30515   0.56233   0.92985   0.00000  Uiso   1.00
C64    C     0.96061   0.60371   0.85921   0.00000  Uiso   1.00
C65    C     0.88033   0.57080   0.86405   0.00000  Uiso   1.00
C66    C     0.81303   0.53823   0.82873   0.00000  Uiso   1.00
C67    C     0.04025   0.71146   0.87590   0.00000  Uiso   1.00
C68    C     0.02690   0.76914   0.89478   0.00000  Uiso   1.00
C69    C     0.02661   0.82729   0.87351   0.00000  Uiso   1.00
H70    H     0.07606   0.64343   0.79213   0.00000  Uiso   1.00
H71    H     0.25346   0.58837   0.82452   0.00000  Uiso   1.00
H72    H     0.91582   0.57185   0.75515   0.00000  Uiso   1.00
H73    H     0.06237   0.77015   0.78587   0.00000  Uiso   1.00
H74    H     0.44455   0.52715   0.87752   0.00000  Uiso   1.00
H75    H     0.73261   0.49232   0.73123   0.00000  Uiso   1.00
H76    H     0.04163   0.91050   0.79602   0.00000  Uiso   1.00
H77    H     0.03317   0.64219   0.92380   0.00000  Uiso   1.00
H78    H     0.20823   0.58706   0.96342   0.00000  Uiso   1.00
H79    H     0.87058   0.57054   0.89404   0.00000  Uiso   1.00
H80    H     0.01713   0.76884   0.92476   0.00000  Uiso   1.00
H81    H     0.40784   0.52608   0.99025   0.00000  Uiso   1.00
H82    H     0.69588   0.49126   0.84396   0.00000  Uiso   1.00
H83    H     0.00491   0.90943   0.90875   0.00000  Uiso   1.00
O84    O     0.54211   0.49035   0.95757   0.00000  Uiso   1.00
O85    O     0.60805   0.44468   0.76564   0.00000  Uiso   1.00
O86    O     0.01349   0.99331   0.85064   0.00000  Uiso   1.00
N87    N     0.41190   0.53447   0.89861   0.00000  Uiso   1.00
N88    N     0.74628   0.50190   0.76185   0.00000  Uiso   1.00
N89    N     0.03516   0.89286   0.82241   0.00000  Uiso   1.00
N90    N     0.39215   0.53390   0.95927   0.00000  Uiso   1.00
N91    N     0.72652   0.50133   0.82251   0.00000  Uiso   1.00
N92    N     0.01541   0.89229   0.88307   0.00000  Uiso   1.00
C93    C     0.43376   0.14314   0.67770   0.00000  Uiso   1.00
C94    C     0.34332   0.11306   0.64185   0.00000  Uiso   1.00
C95    C     0.25628   0.08808   0.64549   0.00000  Uiso   1.00
C96    C     0.18221   0.06269   0.60897   0.00000  Uiso   1.00
C97    C     0.03988   0.01601   0.55919   0.00000  Uiso   1.00
C98    C     0.52676   0.10408   0.67954   0.00000  Uiso   1.00
C99    C     0.59396   0.07155   0.71487   0.00000  Uiso   1.00
C100   C     0.67432   0.03860   0.71008   0.00000  Uiso   1.00
C101   C     0.81684   0.97801   0.71883   0.00000  Uiso   1.00
C102   C     0.44713   0.21182   0.66284   0.00000  Uiso   1.00
C103   C     0.44740   0.26989   0.68415   0.00000  Uiso   1.00
C104   C     0.46074   0.32766   0.66530   0.00000  Uiso   1.00
C105   C     0.47961   0.43436   0.64813   0.00000  Uiso   1.00
C106   C     0.45700   0.14247   0.60637   0.00000  Uiso   1.00
C107   C     0.35594   0.11270   0.60310   0.00000  Uiso   1.00
C108   C     0.28198   0.08734   0.56656   0.00000  Uiso   1.00
C109   C     0.19485   0.06233   0.57015   0.00000  Uiso   1.00
C110   C     0.53939   0.10371   0.64079   0.00000  Uiso   1.00
C111   C     0.61967   0.07080   0.63595   0.00000  Uiso   1.00
C112   C     0.68697   0.03823   0.67127   0.00000  Uiso   1.00
C113   C     0.45975   0.21146   0.62410   0.00000  Uiso   1.00
C114   C     0.47310   0.26914   0.60522   0.00000  Uiso   1.00
C115   C     0.47339   0.32729   0.62649   0.00000  Uiso   1.00
H116   H     0.42394   0.14343   0.70787   0.00000  Uiso   1.00
H117   H     0.24654   0.08837   0.67548   0.00000  Uiso   1.00
H118   H     0.58418   0.07185   0.74485   0.00000  Uiso   1.00
H119   H     0.43763   0.27015   0.71413   0.00000  Uiso   1.00
H120   H     0.05545   0.02715   0.62248   0.00000  Uiso   1.00
H121   H     0.76739   0.99232   0.76877   0.00000  Uiso   1.00
H122   H     0.45837   0.41050   0.70398   0.00000  Uiso   1.00
H123   H     0.46683   0.14219   0.57620   0.00000  Uiso   1.00
H124   H     0.29177   0.08706   0.53658   0.00000  Uiso   1.00
H125   H     0.62942   0.07054   0.60596   0.00000  Uiso   1.00
H126   H     0.48287   0.26884   0.57524   0.00000  Uiso   1.00
H127   H     0.09216   0.02608   0.50975   0.00000  Uiso   1.00
H128   H     0.80412   0.99126   0.65604   0.00000  Uiso   1.00
H129   H     0.49509   0.40943   0.59125   0.00000  Uiso   1.00
O130   O     0.95789   0.99035   0.54243   0.00000  Uiso   1.00
O131   O     0.89195   0.94468   0.73436   0.00000  Uiso   1.00
O132   O     0.48651   0.49331   0.64936   0.00000  Uiso   1.00
N133   N     0.08810   0.03447   0.60139   0.00000  Uiso   1.00
N134   N     0.75372   0.00190   0.73815   0.00000  Uiso   1.00
N135   N     0.46484   0.39286   0.67759   0.00000  Uiso   1.00
N136   N     0.10785   0.03390   0.54073   0.00000  Uiso   1.00
N137   N     0.77348   0.00133   0.67749   0.00000  Uiso   1.00
N138   N     0.48459   0.39229   0.61693   0.00000  Uiso   1.00
C139   C     0.93376   0.64314   0.67770   0.00000  Uiso   1.00
C140   C     0.84332   0.61306   0.64185   0.00000  Uiso   1.00
C141   C     0.75628   0.58808   0.64549   0.00000  Uiso   1.00
C142   C     0.68221   0.56269   0.60897   0.00000  Uiso   1.00
C143   C     0.53988   0.51601   0.55919   0.00000  Uiso   1.00
C144   C     0.02676   0.60408   0.67954   0.00000  Uiso   1.00
C145   C     0.09396   0.57155   0.71487   0.00000  Uiso   1.00
C146   C     0.17432   0.53860   0.71008   0.00000  Uiso   1.00
C147   C     0.31684   0.47801   0.71883   0.00000  Uiso   1.00
C148   C     0.94713   0.71182   0.66284   0.00000  Uiso   1.00
C149   C     0.94740   0.76989   0.68415   0.00000  Uiso   1.00
C150   C     0.96074   0.82766   0.66530   0.00000  Uiso   1.00
C151   C     0.97961   0.93436   0.64813   0.00000  Uiso   1.00
C152   C     0.95700   0.64247   0.60637   0.00000  Uiso   1.00
C153   C     0.85594   0.61270   0.60310   0.00000  Uiso   1.00
C154   C     0.78198   0.58734   0.56656   0.00000  Uiso   1.00
C155   C     0.69485   0.56233   0.57015   0.00000  Uiso   1.00
C156   C     0.03939   0.60371   0.64079   0.00000  Uiso   1.00
C157   C     0.11967   0.57080   0.63595   0.00000  Uiso   1.00
C158   C     0.18697   0.53823   0.67127   0.00000  Uiso   1.00
C159   C     0.95975   0.71146   0.62410   0.00000  Uiso   1.00
C160   C     0.97310   0.76914   0.60522   0.00000  Uiso   1.00
C161   C     0.97339   0.82729   0.62649   0.00000  Uiso   1.00
H162   H     0.92394   0.64343   0.70787   0.00000  Uiso   1.00
H163   H     0.74654   0.58837   0.67548   0.00000  Uiso   1.00
H164   H     0.08418   0.57185   0.74485   0.00000  Uiso   1.00
H165   H     0.93763   0.77015   0.71413   0.00000  Uiso   1.00
H166   H     0.55545   0.52715   0.62248   0.00000  Uiso   1.00
H167   H     0.26739   0.49232   0.76877   0.00000  Uiso   1.00
H168   H     0.95837   0.91050   0.70398   0.00000  Uiso   1.00
H169   H     0.96683   0.64219   0.57620   0.00000  Uiso   1.00
H170   H     0.79177   0.58706   0.53658   0.00000  Uiso   1.00
H171   H     0.12942   0.57054   0.60596   0.00000  Uiso   1.00
H172   H     0.98287   0.76884   0.57524   0.00000  Uiso   1.00
H173   H     0.59216   0.52608   0.50975   0.00000  Uiso   1.00
H174   H     0.30412   0.49126   0.65604   0.00000  Uiso   1.00
H175   H     0.99509   0.90943   0.59125   0.00000  Uiso   1.00
O176   O     0.45789   0.49035   0.54243   0.00000  Uiso   1.00
O177   O     0.39195   0.44468   0.73436   0.00000  Uiso   1.00
O178   O     0.98651   0.99331   0.64936   0.00000  Uiso   1.00
N179   N     0.58810   0.53447   0.60139   0.00000  Uiso   1.00
N180   N     0.25372   0.50190   0.73815   0.00000  Uiso   1.00
N181   N     0.96484   0.89286   0.67759   0.00000  Uiso   1.00
N182   N     0.60785   0.53390   0.54073   0.00000  Uiso   1.00
N183   N     0.27348   0.50133   0.67749   0.00000  Uiso   1.00
N184   N     0.98459   0.89229   0.61693   0.00000  Uiso   1.00
C185   C     0.43376   0.85686   0.17770   0.00000  Uiso   1.00
C186   C     0.34332   0.88694   0.14185   0.00000  Uiso   1.00
C187   C     0.25628   0.91192   0.14549   0.00000  Uiso   1.00
C188   C     0.18221   0.93731   0.10897   0.00000  Uiso   1.00
C189   C     0.03988   0.98399   0.05919   0.00000  Uiso   1.00
C190   C     0.52676   0.89592   0.17954   0.00000  Uiso   1.00
C191   C     0.59396   0.92845   0.21487   0.00000  Uiso   1.00
C192   C     0.67432   0.96140   0.21008   0.00000  Uiso   1.00
C193   C     0.81684   0.02199   0.21883   0.00000  Uiso   1.00
C194   C     0.44713   0.78818   0.16284   0.00000  Uiso   1.00
C195   C     0.44740   0.73011   0.18415   0.00000  Uiso   1.00
C196   C     0.46074   0.67234   0.16530   0.00000  Uiso   1.00
C197   C     0.47961   0.56564   0.14813   0.00000  Uiso   1.00
C198   C     0.45700   0.85753   0.10637   0.00000  Uiso   1.00
C199   C     0.35594   0.88730   0.10310   0.00000  Uiso   1.00
C200   C     0.28198   0.91266   0.06656   0.00000  Uiso   1.00
C201   C     0.19485   0.93767   0.07015   0.00000  Uiso   1.00
C202   C     0.53939   0.89629   0.14079   0.00000  Uiso   1.00
C203   C     0.61967   0.92920   0.13595   0.00000  Uiso   1.00
C204   C     0.68697   0.96177   0.17127   0.00000  Uiso   1.00
C205   C     0.45975   0.78854   0.12410   0.00000  Uiso   1.00
C206   C     0.47310   0.73086   0.10522   0.00000  Uiso   1.00
C207   C     0.47339   0.67271   0.12649   0.00000  Uiso   1.00
H208   H     0.42394   0.85657   0.20787   0.00000  Uiso   1.00
H209   H     0.24654   0.91163   0.17548   0.00000  Uiso   1.00
H210   H     0.58418   0.92815   0.24485   0.00000  Uiso   1.00
H211   H     0.43763   0.72985   0.21413   0.00000  Uiso   1.00
H212   H     0.05545   0.97285   0.12248   0.00000  Uiso   1.00
H213   H     0.76739   0.00768   0.26877   0.00000  Uiso   1.00
H214   H     0.45837   0.58950   0.20398   0.00000  Uiso   1.00
H215   H     0.46683   0.85781   0.07620   0.00000  Uiso   1.00
H216   H     0.29177   0.91294   0.03658   0.00000  Uiso   1.00
H217   H     0.62942   0.92946   0.10596   0.00000  Uiso   1.00
H218   H     0.48287   0.73116   0.07524   0.00000  Uiso   1.00
H219   H     0.09216   0.97392   0.00975   0.00000  Uiso   1.00
H220   H     0.80412   0.00874   0.15604   0.00000  Uiso   1.00
H221   H     0.49509   0.59057   0.09125   0.00000  Uiso   1.00
O222   O     0.95789   0.00965   0.04243   0.00000  Uiso   1.00
O223   O     0.89195   0.05532   0.23436   0.00000  Uiso   1.00
O224   O     0.48651   0.50669   0.14936   0.00000  Uiso   1.00
N225   N     0.08810   0.96553   0.10139   0.00000  Uiso   1.00
N226   N     0.75372   0.99810   0.23815   0.00000  Uiso   1.00
N227   N     0.46484   0.60714   0.17759   0.00000  Uiso   1.00
N228   N     0.10785   0.96610   0.04073   0.00000  Uiso   1.00
N229   N     0.77348   0.99867   0.17749   0.00000  Uiso   1.00
N230   N     0.48459   0.60771   0.11693   0.00000  Uiso   1.00
C231   C     0.93376   0.35686   0.17770   0.00000  Uiso   1.00
C232   C     0.84332   0.38694   0.14185   0.00000  Uiso   1.00
C233   C     0.75628   0.41192   0.14549   0.00000  Uiso   1.00
C234   C     0.68221   0.43731   0.10897   0.00000  Uiso   1.00
C235   C     0.53988   0.48399   0.05919   0.00000  Uiso   1.00
C236   C     0.02676   0.39592   0.17954   0.00000  Uiso   1.00
C237   C     0.09396   0.42845   0.21487   0.00000  Uiso   1.00
C238   C     0.17432   0.46140   0.21008   0.00000  Uiso   1.00
C239   C     0.31684   0.52199   0.21883   0.00000  Uiso   1.00
C240   C     0.94713   0.28818   0.16284   0.00000  Uiso   1.00
C241   C     0.94740   0.23011   0.18415   0.00000  Uiso   1.00
C242   C     0.96074   0.17234   0.16530   0.00000  Uiso   1.00
C243   C     0.97961   0.06564   0.14813   0.00000  Uiso   1.00
C244   C     0.95700   0.35753   0.10637   0.00000  Uiso   1.00
C245   C     0.85594   0.38730   0.10310   0.00000  Uiso   1.00
C246   C     0.78198   0.41266   0.06656   0.00000  Uiso   1.00
C247   C     0.69485   0.43767   0.07015   0.00000  Uiso   1.00
C248   C     0.03939   0.39629   0.14079   0.00000  Uiso   1.00
C249   C     0.11967   0.42920   0.13595   0.00000  Uiso   1.00
C250   C     0.18697   0.46177   0.17127   0.00000  Uiso   1.00
C251   C     0.95975   0.28854   0.12410   0.00000  Uiso   1.00
C252   C     0.97310   0.23086   0.10522   0.00000  Uiso   1.00
C253   C     0.97339   0.17271   0.12649   0.00000  Uiso   1.00
H254   H     0.92394   0.35657   0.20787   0.00000  Uiso   1.00
H255   H     0.74654   0.41163   0.17548   0.00000  Uiso   1.00
H256   H     0.08418   0.42815   0.24485   0.00000  Uiso   1.00
H257   H     0.93763   0.22985   0.21413   0.00000  Uiso   1.00
H258   H     0.55545   0.47285   0.12248   0.00000  Uiso   1.00
H259   H     0.26739   0.50768   0.26877   0.00000  Uiso   1.00
H260   H     0.95837   0.08950   0.20398   0.00000  Uiso   1.00
H261   H     0.96683   0.35781   0.07620   0.00000  Uiso   1.00
H262   H     0.79177   0.41294   0.03658   0.00000  Uiso   1.00
H263   H     0.12942   0.42946   0.10596   0.00000  Uiso   1.00
H264   H     0.98287   0.23116   0.07524   0.00000  Uiso   1.00
H265   H     0.59216   0.47392   0.00975   0.00000  Uiso   1.00
H266   H     0.30412   0.50874   0.15604   0.00000  Uiso   1.00
H267   H     0.99509   0.09057   0.09125   0.00000  Uiso   1.00
O268   O     0.45789   0.50965   0.04243   0.00000  Uiso   1.00
O269   O     0.39195   0.55532   0.23436   0.00000  Uiso   1.00
O270   O     0.98651   0.00669   0.14936   0.00000  Uiso   1.00
N271   N     0.58810   0.46553   0.10139   0.00000  Uiso   1.00
N272   N     0.25372   0.49810   0.23815   0.00000  Uiso   1.00
N273   N     0.96484   0.10714   0.17759   0.00000  Uiso   1.00
N274   N     0.60785   0.46610   0.04073   0.00000  Uiso   1.00
N275   N     0.27348   0.49867   0.17749   0.00000  Uiso   1.00
N276   N     0.98459   0.10771   0.11693   0.00000  Uiso   1.00
C277   C     0.56624   0.85686   0.32230   0.00000  Uiso   1.00
C278   C     0.65668   0.88694   0.35815   0.00000  Uiso   1.00
C279   C     0.74372   0.91192   0.35451   0.00000  Uiso   1.00
C280   C     0.81779   0.93731   0.39103   0.00000  Uiso   1.00
C281   C     0.96012   0.98399   0.44081   0.00000  Uiso   1.00
C282   C     0.47324   0.89592   0.32046   0.00000  Uiso   1.00
C283   C     0.40604   0.92845   0.28513   0.00000  Uiso   1.00
C284   C     0.32568   0.96140   0.28992   0.00000  Uiso   1.00
C285   C     0.18316   0.02199   0.28117   0.00000  Uiso   1.00
C286   C     0.55287   0.78818   0.33716   0.00000  Uiso   1.00
C287   C     0.55260   0.73011   0.31585   0.00000  Uiso   1.00
C288   C     0.53926   0.67234   0.33470   0.00000  Uiso   1.00
C289   C     0.52039   0.56564   0.35187   0.00000  Uiso   1.00
C290   C     0.54300   0.85753   0.39363   0.00000  Uiso   1.00
C291   C     0.64406   0.88730   0.39690   0.00000  Uiso   1.00
C292   C     0.71802   0.91266   0.43344   0.00000  Uiso   1.00
C293   C     0.80515   0.93767   0.42985   0.00000  Uiso   1.00
C294   C     0.46061   0.89629   0.35921   0.00000  Uiso   1.00
C295   C     0.38033   0.92920   0.36405   0.00000  Uiso   1.00
C296   C     0.31303   0.96177   0.32873   0.00000  Uiso   1.00
C297   C     0.54025   0.78854   0.37590   0.00000  Uiso   1.00
C298   C     0.52690   0.73086   0.39478   0.00000  Uiso   1.00
C299   C     0.52661   0.67271   0.37351   0.00000  Uiso   1.00
H300   H     0.57606   0.85657   0.29213   0.00000  Uiso   1.00
H301   H     0.75346   0.91163   0.32452   0.00000  Uiso   1.00
H302   H     0.41582   0.92815   0.25515   0.00000  Uiso   1.00
H303   H     0.56237   0.72985   0.28587   0.00000  Uiso   1.00
H304   H     0.94455   0.97285   0.37752   0.00000  Uiso   1.00
H305   H     0.23261   0.00768   0.23123   0.00000  Uiso   1.00
H306   H     0.54163   0.58950   0.29602   0.00000  Uiso   1.00
H307   H     0.53317   0.85781   0.42380   0.00000  Uiso   1.00
H308   H     0.70823   0.91294   0.46342   0.00000  Uiso   1.00
H309   H     0.37058   0.92946   0.39404   0.00000  Uiso   1.00
H310   H     0.51713   0.73116   0.42476   0.00000  Uiso   1.00
H311   H     0.90784   0.97392   0.49025   0.00000  Uiso   1.00
H312   H     0.19588   0.00874   0.34396   0.00000  Uiso   1.00
H313   H     0.50491   0.59057   0.40875   0.00000  Uiso   1.00
O314   O     0.04211   0.00965   0.45757   0.00000  Uiso   1.00
O315   O     0.10805   0.05532   0.26564   0.00000  Uiso   1.00
O316   O     0.51349   0.50669   0.35064   0.00000  Uiso   1.00
N317   N     0.91190   0.96553   0.39861   0.00000  Uiso   1.00
N318   N     0.24628   0.99810   0.26185   0.00000  Uiso   1.00
N319   N     0.53516   0.60714   0.32241   0.00000  Uiso   1.00
N320   N     0.89215   0.96610   0.45927   0.00000  Uiso   1.00
N321   N     0.22652   0.99867   0.32251   0.00000  Uiso   1.00
N322   N     0.51541   0.60771   0.38307   0.00000  Uiso   1.00
C323   C     0.06624   0.35686   0.32230   0.00000  Uiso   1.00
C324   C     0.15668   0.38694   0.35815   0.00000  Uiso   1.00
C325   C     0.24372   0.41192   0.35451   0.00000  Uiso   1.00
C326   C     0.31779   0.43731   0.39103   0.00000  Uiso   1.00
C327   C     0.46012   0.48399   0.44081   0.00000  Uiso   1.00
C328   C     0.97324   0.39592   0.32046   0.00000  Uiso   1.00
C329   C     0.90604   0.42845   0.28513   0.00000  Uiso   1.00
C330   C     0.82568   0.46140   0.28992   0.00000  Uiso   1.00
C331   C     0.68316   0.52199   0.28117   0.00000  Uiso   1.00
C332   C     0.05287   0.28818   0.33716   0.00000  Uiso   1.00
C333   C     0.05260   0.23011   0.31585   0.00000  Uiso   1.00
C334   C     0.03926   0.17234   0.33470   0.00000  Uiso   1.00
C335   C     0.02039   0.06564   0.35187   0.00000  Uiso   1.00
C336   C     0.04300   0.35753   0.39363   0.00000  Uiso   1.00
C337   C     0.14406   0.38730   0.39690   0.00000  Uiso   1.00
C338   C     0.21802   0.41266   0.43344   0.00000  Uiso   1.00
C339   C     0.30515   0.43767   0.42985   0.00000  Uiso   1.00
C340   C     0.96061   0.39629   0.35921   0.00000  Uiso   1.00
C341   C     0.88033   0.42920   0.36405   0.00000  Uiso   1.00
C342   C     0.81303   0.46177   0.32873   0.00000  Uiso   1.00
C343   C     0.04025   0.28854   0.37590   0.00000  Uiso   1.00
C344   C     0.02690   0.23086   0.39478   0.00000  Uiso   1.00
C345   C     0.02661   0.17271   0.37351   0.00000  Uiso   1.00
H346   H     0.07606   0.35657   0.29213   0.00000  Uiso   1.00
H347   H     0.25346   0.41163   0.32452   0.00000  Uiso   1.00
H348   H     0.91582   0.42815   0.25515   0.00000  Uiso   1.00
H349   H     0.06237   0.22985   0.28587   0.00000  Uiso   1.00
H350   H     0.44455   0.47285   0.37752   0.00000  Uiso   1.00
H351   H     0.73261   0.50768   0.23123   0.00000  Uiso   1.00
H352   H     0.04163   0.08950   0.29602   0.00000  Uiso   1.00
H353   H     0.03317   0.35781   0.42380   0.00000  Uiso   1.00
H354   H     0.20823   0.41294   0.46342   0.00000  Uiso   1.00
H355   H     0.87058   0.42946   0.39404   0.00000  Uiso   1.00
H356   H     0.01713   0.23116   0.42476   0.00000  Uiso   1.00
H357   H     0.40784   0.47392   0.49025   0.00000  Uiso   1.00
H358   H     0.69588   0.50874   0.34396   0.00000  Uiso   1.00
H359   H     0.00491   0.09057   0.40875   0.00000  Uiso   1.00
O360   O     0.54211   0.50965   0.45757   0.00000  Uiso   1.00
O361   O     0.60805   0.55532   0.26564   0.00000  Uiso   1.00
O362   O     0.01349   0.00669   0.35064   0.00000  Uiso   1.00
N363   N     0.41190   0.46553   0.39861   0.00000  Uiso   1.00
N364   N     0.74628   0.49810   0.26185   0.00000  Uiso   1.00
N365   N     0.03516   0.10714   0.32241   0.00000  Uiso   1.00
N366   N     0.39215   0.46610   0.45927   0.00000  Uiso   1.00
N367   N     0.72652   0.49867   0.32251   0.00000  Uiso   1.00
N368   N     0.01541   0.10771   0.38307   0.00000  Uiso   1.00
