data_job_05351
_audit_creation_date              2018-12-19
_audit_creation_method            'Materials Studio'
_symmetry_space_group_name_H-M    'P1'
_symmetry_Int_Tables_number       1
_symmetry_cell_setting            triclinic
loop_
_symmetry_equiv_pos_as_xyz
  x,y,z
_cell_length_a                    16.1891
_cell_length_b                    16.6968
_cell_length_c                    22.8113
_cell_angle_alpha                 90.0000
_cell_angle_beta                  90.0000
_cell_angle_gamma                 90.0000
loop_
_atom_site_label
_atom_site_type_symbol
_atom_site_fract_x
_atom_site_fract_y
_atom_site_fract_z
_atom_site_U_iso_or_equiv
_atom_site_adp_type
_atom_site_occupancy
C1     C     0.34777   0.55543   0.58593   0.00000  Uiso   1.00
C2     C     0.30475   0.63190   0.60604   0.00000  Uiso   1.00
C3     C     0.23128   0.66196   0.58373   0.00000  Uiso   1.00
C4     C     0.20206   0.73276   0.60800   0.00000  Uiso   1.00
C5     C     0.12878   0.84555   0.63236   0.00000  Uiso   1.00
C6     C     0.43480   0.58018   0.56789   0.00000  Uiso   1.00
C7     C     0.47067   0.56676   0.51351   0.00000  Uiso   1.00
C8     C     0.55094   0.59402   0.50567   0.00000  Uiso   1.00
C9     C     0.67958   0.62646   0.47081   0.00000  Uiso   1.00
C10    C     0.35775   0.50374   0.64058   0.00000  Uiso   1.00
C11    C     0.32885   0.42603   0.64733   0.00000  Uiso   1.00
C12    C     0.34426   0.38893   0.70069   0.00000  Uiso   1.00
C13    C     0.35327   0.30268   0.77871   0.00000  Uiso   1.00
C14    C     0.42655   0.62770   0.66870   0.00000  Uiso   1.00
C15    C     0.34755   0.67115   0.65099   0.00000  Uiso   1.00
C16    C     0.31844   0.74192   0.67530   0.00000  Uiso   1.00
C17    C     0.24493   0.77209   0.65304   0.00000  Uiso   1.00
C18    C     0.47759   0.61944   0.61284   0.00000  Uiso   1.00
C19    C     0.55783   0.64672   0.60508   0.00000  Uiso   1.00
C20    C     0.59381   0.63334   0.55070   0.00000  Uiso   1.00
C21    C     0.40054   0.54300   0.68554   0.00000  Uiso   1.00
C22    C     0.41601   0.50600   0.73890   0.00000  Uiso   1.00
C23    C     0.38713   0.42825   0.74573   0.00000  Uiso   1.00
H24    H     0.31446   0.52487   0.55093   0.00000  Uiso   1.00
H25    H     0.19818   0.63157   0.54893   0.00000  Uiso   1.00
H26    H     0.43754   0.53637   0.47873   0.00000  Uiso   1.00
H27    H     0.29574   0.39567   0.61253   0.00000  Uiso   1.00
H28    H     0.08815   0.76719   0.56654   0.00000  Uiso   1.00
H29    H     0.59286   0.56644   0.41850   0.00000  Uiso   1.00
H30    H     0.29385   0.26975   0.70065   0.00000  Uiso   1.00
H31    H     0.45987   0.65827   0.70370   0.00000  Uiso   1.00
H32    H     0.35157   0.77229   0.71009   0.00000  Uiso   1.00
H33    H     0.59093   0.67709   0.63988   0.00000  Uiso   1.00
H34    H     0.44913   0.53640   0.77368   0.00000  Uiso   1.00
H35    H     0.21265   0.88141   0.69734   0.00000  Uiso   1.00
H36    H     0.71736   0.68065   0.54930   0.00000  Uiso   1.00
H37    H     0.41834   0.38397   0.83145   0.00000  Uiso   1.00
O38    O     0.07655   0.89692   0.63337   0.00000  Uiso   1.00
O39    O     0.73871   0.63352   0.43916   0.00000  Uiso   1.00
O40    O     0.34641   0.24427   0.80933   0.00000  Uiso   1.00
N41    N     0.13231   0.77842   0.59645   0.00000  Uiso   1.00
N42    N     0.60417   0.59074   0.45805   0.00000  Uiso   1.00
N43    N     0.32464   0.31335   0.72182   0.00000  Uiso   1.00
N44    N     0.19930   0.83988   0.66683   0.00000  Uiso   1.00
N45    N     0.67116   0.65219   0.52843   0.00000  Uiso   1.00
N46    N     0.39163   0.37481   0.79220   0.00000  Uiso   1.00
C47    C     0.65289   0.12625   0.40828   0.00000  Uiso   1.00
C48    C     0.70804   0.19592   0.38994   0.00000  Uiso   1.00
C49    C     0.78709   0.21094   0.41074   0.00000  Uiso   1.00
C50    C     0.82739   0.27777   0.38852   0.00000  Uiso   1.00
C51    C     0.91872   0.37837   0.36638   0.00000  Uiso   1.00
C52    C     0.57291   0.16366   0.43058   0.00000  Uiso   1.00
C53    C     0.53834   0.15155   0.48554   0.00000  Uiso   1.00
C54    C     0.46487   0.19122   0.49752   0.00000  Uiso   1.00
C55    C     0.34637   0.24169   0.53846   0.00000  Uiso   1.00
C56    C     0.63042   0.08220   0.35194   0.00000  Uiso   1.00
C57    C     0.64419   0.00159   0.34078   0.00000  Uiso   1.00
C58    C     0.61913   0.97267   0.28655   0.00000  Uiso   1.00
C59    C     0.58993   0.89666   0.20538   0.00000  Uiso   1.00
C60    C     0.58388   0.21822   0.33183   0.00000  Uiso   1.00
C61    C     0.67056   0.24588   0.34842   0.00000  Uiso   1.00
C62    C     0.71075   0.31270   0.32615   0.00000  Uiso   1.00
C63    C     0.78985   0.32781   0.34692   0.00000  Uiso   1.00
C64    C     0.53542   0.21362   0.38905   0.00000  Uiso   1.00
C65    C     0.46199   0.25331   0.40096   0.00000  Uiso   1.00
C66    C     0.42732   0.24126   0.45592   0.00000  Uiso   1.00
C67    C     0.59294   0.13216   0.31041   0.00000  Uiso   1.00
C68    C     0.56785   0.10335   0.25619   0.00000  Uiso   1.00
C69    C     0.58158   0.02271   0.24495   0.00000  Uiso   1.00
H70    H     0.68206   0.08736   0.44061   0.00000  Uiso   1.00
H71    H     0.81607   0.17227   0.44288   0.00000  Uiso   1.00
H72    H     0.56735   0.11288   0.51767   0.00000  Uiso   1.00
H73    H     0.67319   0.96295   0.37292   0.00000  Uiso   1.00
H74    H     0.94811   0.28846   0.42710   0.00000  Uiso   1.00
H75    H     0.42365   0.16321   0.58478   0.00000  Uiso   1.00
H76    H     0.64684   0.84705   0.27957   0.00000  Uiso   1.00
H77    H     0.55470   0.25712   0.29950   0.00000  Uiso   1.00
H78    H     0.68173   0.35134   0.29402   0.00000  Uiso   1.00
H79    H     0.43300   0.29196   0.36881   0.00000  Uiso   1.00
H80    H     0.53885   0.14203   0.22407   0.00000  Uiso   1.00
H81    H     0.83907   0.43380   0.30628   0.00000  Uiso   1.00
H82    H     0.31461   0.30855   0.46396   0.00000  Uiso   1.00
H83    H     0.53779   0.99240   0.15875   0.00000  Uiso   1.00
O84    O     0.97944   0.42007   0.36565   0.00000  Uiso   1.00
O85    O     0.29137   0.25573   0.57252   0.00000  Uiso   1.00
O86    O     0.58418   0.84094   0.17208   0.00000  Uiso   1.00
N87    N     0.90502   0.30972   0.39941   0.00000  Uiso   1.00
N88    N     0.41469   0.19264   0.54684   0.00000  Uiso   1.00
N89    N     0.62333   0.89705   0.26149   0.00000  Uiso   1.00
N90    N     0.84635   0.38793   0.33440   0.00000  Uiso   1.00
N91    N     0.35602   0.27084   0.48182   0.00000  Uiso   1.00
N92    N     0.56466   0.97526   0.19648   0.00000  Uiso   1.00
C93    C     0.65223   0.44457   0.08593   0.00000  Uiso   1.00
C94    C     0.69525   0.36810   0.10604   0.00000  Uiso   1.00
C95    C     0.76872   0.33804   0.08373   0.00000  Uiso   1.00
C96    C     0.79794   0.26724   0.10800   0.00000  Uiso   1.00
C97    C     0.87122   0.15445   0.13236   0.00000  Uiso   1.00
C98    C     0.56520   0.41982   0.06789   0.00000  Uiso   1.00
C99    C     0.52933   0.43324   0.01351   0.00000  Uiso   1.00
C100   C     0.44906   0.40598   0.00567   0.00000  Uiso   1.00
C101   C     0.32042   0.37354   0.97081   0.00000  Uiso   1.00
C102   C     0.64225   0.49626   0.14058   0.00000  Uiso   1.00
C103   C     0.67115   0.57397   0.14733   0.00000  Uiso   1.00
C104   C     0.65574   0.61107   0.20069   0.00000  Uiso   1.00
C105   C     0.64673   0.69732   0.27871   0.00000  Uiso   1.00
C106   C     0.57345   0.37230   0.16870   0.00000  Uiso   1.00
C107   C     0.65245   0.32885   0.15099   0.00000  Uiso   1.00
C108   C     0.68156   0.25808   0.17530   0.00000  Uiso   1.00
C109   C     0.75507   0.22791   0.15304   0.00000  Uiso   1.00
C110   C     0.52241   0.38056   0.11284   0.00000  Uiso   1.00
C111   C     0.44217   0.35328   0.10508   0.00000  Uiso   1.00
C112   C     0.40619   0.36666   0.05070   0.00000  Uiso   1.00
C113   C     0.59946   0.45700   0.18554   0.00000  Uiso   1.00
C114   C     0.58399   0.49400   0.23890   0.00000  Uiso   1.00
C115   C     0.61287   0.57175   0.24573   0.00000  Uiso   1.00
H116   H     0.68554   0.47513   0.05093   0.00000  Uiso   1.00
H117   H     0.80182   0.36843   0.04893   0.00000  Uiso   1.00
H118   H     0.56246   0.46363   0.97873   0.00000  Uiso   1.00
H119   H     0.70426   0.60433   0.11253   0.00000  Uiso   1.00
H120   H     0.91185   0.23281   0.06654   0.00000  Uiso   1.00
H121   H     0.40714   0.43356   0.91850   0.00000  Uiso   1.00
H122   H     0.70615   0.73025   0.20065   0.00000  Uiso   1.00
H123   H     0.54013   0.34173   0.20370   0.00000  Uiso   1.00
H124   H     0.64843   0.22771   0.21009   0.00000  Uiso   1.00
H125   H     0.40907   0.32291   0.13988   0.00000  Uiso   1.00
H126   H     0.55087   0.46360   0.27368   0.00000  Uiso   1.00
H127   H     0.78735   0.11859   0.19734   0.00000  Uiso   1.00
H128   H     0.28264   0.31935   0.04930   0.00000  Uiso   1.00
H129   H     0.58166   0.61603   0.33145   0.00000  Uiso   1.00
O130   O     0.92345   0.10308   0.13337   0.00000  Uiso   1.00
O131   O     0.26129   0.36648   0.93916   0.00000  Uiso   1.00
O132   O     0.65359   0.75573   0.30933   0.00000  Uiso   1.00
N133   N     0.86769   0.22158   0.09645   0.00000  Uiso   1.00
N134   N     0.39583   0.40926   0.95805   0.00000  Uiso   1.00
N135   N     0.67536   0.68665   0.22182   0.00000  Uiso   1.00
N136   N     0.80070   0.16012   0.16683   0.00000  Uiso   1.00
N137   N     0.32884   0.34781   0.02843   0.00000  Uiso   1.00
N138   N     0.60837   0.62519   0.29220   0.00000  Uiso   1.00
C139   C     0.34711   0.87375   0.90828   0.00000  Uiso   1.00
C140   C     0.29196   0.80408   0.88994   0.00000  Uiso   1.00
C141   C     0.21291   0.78906   0.91074   0.00000  Uiso   1.00
C142   C     0.17261   0.72223   0.88852   0.00000  Uiso   1.00
C143   C     0.08128   0.62163   0.86638   0.00000  Uiso   1.00
C144   C     0.42709   0.83634   0.93058   0.00000  Uiso   1.00
C145   C     0.46166   0.84845   0.98554   0.00000  Uiso   1.00
C146   C     0.53513   0.80878   0.99752   0.00000  Uiso   1.00
C147   C     0.65363   0.75831   0.03846   0.00000  Uiso   1.00
C148   C     0.36958   0.91780   0.85194   0.00000  Uiso   1.00
C149   C     0.35581   0.99841   0.84078   0.00000  Uiso   1.00
C150   C     0.38087   0.02733   0.78655   0.00000  Uiso   1.00
C151   C     0.41007   0.10334   0.70538   0.00000  Uiso   1.00
C152   C     0.41612   0.78178   0.83183   0.00000  Uiso   1.00
C153   C     0.32944   0.75412   0.84842   0.00000  Uiso   1.00
C154   C     0.28925   0.68730   0.82615   0.00000  Uiso   1.00
C155   C     0.21015   0.67219   0.84692   0.00000  Uiso   1.00
C156   C     0.46458   0.78638   0.88905   0.00000  Uiso   1.00
C157   C     0.53801   0.74669   0.90096   0.00000  Uiso   1.00
C158   C     0.57268   0.75874   0.95592   0.00000  Uiso   1.00
C159   C     0.40706   0.86784   0.81041   0.00000  Uiso   1.00
C160   C     0.43215   0.89665   0.75619   0.00000  Uiso   1.00
C161   C     0.41842   0.97729   0.74495   0.00000  Uiso   1.00
H162   H     0.31794   0.91264   0.94061   0.00000  Uiso   1.00
H163   H     0.18393   0.82773   0.94288   0.00000  Uiso   1.00
H164   H     0.43265   0.88712   0.01767   0.00000  Uiso   1.00
H165   H     0.32681   0.03705   0.87292   0.00000  Uiso   1.00
H166   H     0.05189   0.71154   0.92710   0.00000  Uiso   1.00
H167   H     0.57635   0.83679   0.08478   0.00000  Uiso   1.00
H168   H     0.35316   0.15295   0.77957   0.00000  Uiso   1.00
H169   H     0.44530   0.74288   0.79950   0.00000  Uiso   1.00
H170   H     0.31827   0.64866   0.79402   0.00000  Uiso   1.00
H171   H     0.56700   0.70804   0.86881   0.00000  Uiso   1.00
H172   H     0.46115   0.85797   0.72407   0.00000  Uiso   1.00
H173   H     0.16093   0.56620   0.80628   0.00000  Uiso   1.00
H174   H     0.68539   0.69145   0.96396   0.00000  Uiso   1.00
H175   H     0.46221   0.00760   0.65875   0.00000  Uiso   1.00
O176   O     0.02056   0.57993   0.86565   0.00000  Uiso   1.00
O177   O     0.70863   0.74427   0.07252   0.00000  Uiso   1.00
O178   O     0.41582   0.15906   0.67208   0.00000  Uiso   1.00
N179   N     0.09498   0.69028   0.89941   0.00000  Uiso   1.00
N180   N     0.58531   0.80736   0.04684   0.00000  Uiso   1.00
N181   N     0.37667   0.10295   0.76149   0.00000  Uiso   1.00
N182   N     0.15365   0.61207   0.83440   0.00000  Uiso   1.00
N183   N     0.64398   0.72916   0.98182   0.00000  Uiso   1.00
N184   N     0.43534   0.02474   0.69648   0.00000  Uiso   1.00
C185   C     0.84777   0.44457   0.58593   0.00000  Uiso   1.00
C186   C     0.80475   0.36810   0.60604   0.00000  Uiso   1.00
C187   C     0.73128   0.33804   0.58373   0.00000  Uiso   1.00
C188   C     0.70206   0.26724   0.60800   0.00000  Uiso   1.00
C189   C     0.62878   0.15445   0.63236   0.00000  Uiso   1.00
C190   C     0.93480   0.41982   0.56789   0.00000  Uiso   1.00
C191   C     0.97067   0.43324   0.51351   0.00000  Uiso   1.00
C192   C     0.05094   0.40598   0.50567   0.00000  Uiso   1.00
C193   C     0.17958   0.37354   0.47081   0.00000  Uiso   1.00
C194   C     0.85775   0.49626   0.64058   0.00000  Uiso   1.00
C195   C     0.82885   0.57397   0.64733   0.00000  Uiso   1.00
C196   C     0.84426   0.61107   0.70069   0.00000  Uiso   1.00
C197   C     0.85327   0.69732   0.77871   0.00000  Uiso   1.00
C198   C     0.92655   0.37230   0.66870   0.00000  Uiso   1.00
C199   C     0.84755   0.32885   0.65099   0.00000  Uiso   1.00
C200   C     0.81844   0.25808   0.67530   0.00000  Uiso   1.00
C201   C     0.74493   0.22791   0.65304   0.00000  Uiso   1.00
C202   C     0.97759   0.38056   0.61284   0.00000  Uiso   1.00
C203   C     0.05783   0.35328   0.60508   0.00000  Uiso   1.00
C204   C     0.09381   0.36666   0.55070   0.00000  Uiso   1.00
C205   C     0.90054   0.45700   0.68554   0.00000  Uiso   1.00
C206   C     0.91601   0.49400   0.73890   0.00000  Uiso   1.00
C207   C     0.88713   0.57175   0.74573   0.00000  Uiso   1.00
H208   H     0.81446   0.47513   0.55093   0.00000  Uiso   1.00
H209   H     0.69818   0.36843   0.54893   0.00000  Uiso   1.00
H210   H     0.93754   0.46363   0.47873   0.00000  Uiso   1.00
H211   H     0.79574   0.60433   0.61253   0.00000  Uiso   1.00
H212   H     0.58815   0.23281   0.56654   0.00000  Uiso   1.00
H213   H     0.09286   0.43356   0.41850   0.00000  Uiso   1.00
H214   H     0.79385   0.73025   0.70065   0.00000  Uiso   1.00
H215   H     0.95987   0.34173   0.70370   0.00000  Uiso   1.00
H216   H     0.85157   0.22771   0.71009   0.00000  Uiso   1.00
H217   H     0.09093   0.32291   0.63988   0.00000  Uiso   1.00
H218   H     0.94913   0.46360   0.77368   0.00000  Uiso   1.00
H219   H     0.71265   0.11859   0.69734   0.00000  Uiso   1.00
H220   H     0.21736   0.31935   0.54930   0.00000  Uiso   1.00
H221   H     0.91834   0.61603   0.83145   0.00000  Uiso   1.00
O222   O     0.57655   0.10308   0.63337   0.00000  Uiso   1.00
O223   O     0.23871   0.36648   0.43916   0.00000  Uiso   1.00
O224   O     0.84641   0.75573   0.80933   0.00000  Uiso   1.00
N225   N     0.63231   0.22158   0.59645   0.00000  Uiso   1.00
N226   N     0.10417   0.40926   0.45805   0.00000  Uiso   1.00
N227   N     0.82464   0.68665   0.72182   0.00000  Uiso   1.00
N228   N     0.69930   0.16012   0.66683   0.00000  Uiso   1.00
N229   N     0.17116   0.34781   0.52843   0.00000  Uiso   1.00
N230   N     0.89163   0.62519   0.79220   0.00000  Uiso   1.00
C231   C     0.15289   0.87375   0.40828   0.00000  Uiso   1.00
C232   C     0.20804   0.80408   0.38994   0.00000  Uiso   1.00
C233   C     0.28709   0.78906   0.41074   0.00000  Uiso   1.00
C234   C     0.32739   0.72223   0.38852   0.00000  Uiso   1.00
C235   C     0.41872   0.62163   0.36638   0.00000  Uiso   1.00
C236   C     0.07291   0.83634   0.43058   0.00000  Uiso   1.00
C237   C     0.03834   0.84845   0.48554   0.00000  Uiso   1.00
C238   C     0.96487   0.80878   0.49752   0.00000  Uiso   1.00
C239   C     0.84637   0.75831   0.53846   0.00000  Uiso   1.00
C240   C     0.13042   0.91780   0.35194   0.00000  Uiso   1.00
C241   C     0.14419   0.99841   0.34078   0.00000  Uiso   1.00
C242   C     0.11913   0.02733   0.28655   0.00000  Uiso   1.00
C243   C     0.08993   0.10334   0.20538   0.00000  Uiso   1.00
C244   C     0.08388   0.78178   0.33183   0.00000  Uiso   1.00
C245   C     0.17056   0.75412   0.34842   0.00000  Uiso   1.00
C246   C     0.21075   0.68730   0.32615   0.00000  Uiso   1.00
C247   C     0.28985   0.67219   0.34692   0.00000  Uiso   1.00
C248   C     0.03542   0.78638   0.38905   0.00000  Uiso   1.00
C249   C     0.96199   0.74669   0.40096   0.00000  Uiso   1.00
C250   C     0.92732   0.75874   0.45592   0.00000  Uiso   1.00
C251   C     0.09294   0.86784   0.31041   0.00000  Uiso   1.00
C252   C     0.06785   0.89665   0.25619   0.00000  Uiso   1.00
C253   C     0.08158   0.97729   0.24495   0.00000  Uiso   1.00
H254   H     0.18206   0.91264   0.44061   0.00000  Uiso   1.00
H255   H     0.31607   0.82773   0.44288   0.00000  Uiso   1.00
H256   H     0.06735   0.88712   0.51767   0.00000  Uiso   1.00
H257   H     0.17319   0.03705   0.37292   0.00000  Uiso   1.00
H258   H     0.44811   0.71154   0.42710   0.00000  Uiso   1.00
H259   H     0.92365   0.83679   0.58478   0.00000  Uiso   1.00
H260   H     0.14684   0.15295   0.27957   0.00000  Uiso   1.00
H261   H     0.05470   0.74288   0.29950   0.00000  Uiso   1.00
H262   H     0.18173   0.64866   0.29402   0.00000  Uiso   1.00
H263   H     0.93300   0.70804   0.36881   0.00000  Uiso   1.00
H264   H     0.03885   0.85797   0.22407   0.00000  Uiso   1.00
H265   H     0.33907   0.56620   0.30628   0.00000  Uiso   1.00
H266   H     0.81461   0.69145   0.46396   0.00000  Uiso   1.00
H267   H     0.03779   0.00760   0.15875   0.00000  Uiso   1.00
O268   O     0.47944   0.57993   0.36565   0.00000  Uiso   1.00
O269   O     0.79137   0.74427   0.57252   0.00000  Uiso   1.00
O270   O     0.08418   0.15906   0.17208   0.00000  Uiso   1.00
N271   N     0.40502   0.69028   0.39941   0.00000  Uiso   1.00
N272   N     0.91469   0.80736   0.54684   0.00000  Uiso   1.00
N273   N     0.12333   0.10295   0.26149   0.00000  Uiso   1.00
N274   N     0.34635   0.61207   0.33440   0.00000  Uiso   1.00
N275   N     0.85602   0.72916   0.48182   0.00000  Uiso   1.00
N276   N     0.06466   0.02474   0.19648   0.00000  Uiso   1.00
C277   C     0.15223   0.55543   0.08593   0.00000  Uiso   1.00
C278   C     0.19525   0.63190   0.10604   0.00000  Uiso   1.00
C279   C     0.26872   0.66196   0.08373   0.00000  Uiso   1.00
C280   C     0.29794   0.73276   0.10800   0.00000  Uiso   1.00
C281   C     0.37122   0.84555   0.13236   0.00000  Uiso   1.00
C282   C     0.06520   0.58018   0.06789   0.00000  Uiso   1.00
C283   C     0.02933   0.56676   0.01351   0.00000  Uiso   1.00
C284   C     0.94906   0.59402   0.00567   0.00000  Uiso   1.00
C285   C     0.82042   0.62646   0.97081   0.00000  Uiso   1.00
C286   C     0.14225   0.50374   0.14058   0.00000  Uiso   1.00
C287   C     0.17115   0.42603   0.14733   0.00000  Uiso   1.00
C288   C     0.15574   0.38893   0.20069   0.00000  Uiso   1.00
C289   C     0.14673   0.30268   0.27871   0.00000  Uiso   1.00
C290   C     0.07345   0.62770   0.16870   0.00000  Uiso   1.00
C291   C     0.15245   0.67115   0.15099   0.00000  Uiso   1.00
C292   C     0.18156   0.74192   0.17530   0.00000  Uiso   1.00
C293   C     0.25507   0.77209   0.15304   0.00000  Uiso   1.00
C294   C     0.02241   0.61944   0.11284   0.00000  Uiso   1.00
C295   C     0.94217   0.64672   0.10508   0.00000  Uiso   1.00
C296   C     0.90619   0.63334   0.05070   0.00000  Uiso   1.00
C297   C     0.09946   0.54300   0.18554   0.00000  Uiso   1.00
C298   C     0.08399   0.50600   0.23890   0.00000  Uiso   1.00
C299   C     0.11287   0.42825   0.24573   0.00000  Uiso   1.00
H300   H     0.18554   0.52487   0.05093   0.00000  Uiso   1.00
H301   H     0.30182   0.63157   0.04893   0.00000  Uiso   1.00
H302   H     0.06246   0.53637   0.97873   0.00000  Uiso   1.00
H303   H     0.20426   0.39567   0.11253   0.00000  Uiso   1.00
H304   H     0.41185   0.76719   0.06654   0.00000  Uiso   1.00
H305   H     0.90714   0.56644   0.91850   0.00000  Uiso   1.00
H306   H     0.20615   0.26975   0.20065   0.00000  Uiso   1.00
H307   H     0.04013   0.65827   0.20370   0.00000  Uiso   1.00
H308   H     0.14843   0.77229   0.21009   0.00000  Uiso   1.00
H309   H     0.90907   0.67709   0.13988   0.00000  Uiso   1.00
H310   H     0.05087   0.53640   0.27368   0.00000  Uiso   1.00
H311   H     0.28735   0.88141   0.19734   0.00000  Uiso   1.00
H312   H     0.78264   0.68065   0.04930   0.00000  Uiso   1.00
H313   H     0.08166   0.38397   0.33145   0.00000  Uiso   1.00
O314   O     0.42345   0.89692   0.13337   0.00000  Uiso   1.00
O315   O     0.76129   0.63352   0.93916   0.00000  Uiso   1.00
O316   O     0.15359   0.24427   0.30933   0.00000  Uiso   1.00
N317   N     0.36769   0.77842   0.09645   0.00000  Uiso   1.00
N318   N     0.89583   0.59074   0.95805   0.00000  Uiso   1.00
N319   N     0.17536   0.31335   0.22182   0.00000  Uiso   1.00
N320   N     0.30070   0.83988   0.16683   0.00000  Uiso   1.00
N321   N     0.82884   0.65219   0.02843   0.00000  Uiso   1.00
N322   N     0.10837   0.37481   0.29220   0.00000  Uiso   1.00
C323   C     0.84711   0.12625   0.90828   0.00000  Uiso   1.00
C324   C     0.79196   0.19592   0.88994   0.00000  Uiso   1.00
C325   C     0.71291   0.21094   0.91074   0.00000  Uiso   1.00
C326   C     0.67261   0.27777   0.88852   0.00000  Uiso   1.00
C327   C     0.58128   0.37837   0.86638   0.00000  Uiso   1.00
C328   C     0.92709   0.16366   0.93058   0.00000  Uiso   1.00
C329   C     0.96166   0.15155   0.98554   0.00000  Uiso   1.00
C330   C     0.03513   0.19122   0.99752   0.00000  Uiso   1.00
C331   C     0.15363   0.24169   0.03846   0.00000  Uiso   1.00
C332   C     0.86958   0.08220   0.85194   0.00000  Uiso   1.00
C333   C     0.85581   0.00159   0.84078   0.00000  Uiso   1.00
C334   C     0.88087   0.97267   0.78655   0.00000  Uiso   1.00
C335   C     0.91007   0.89666   0.70538   0.00000  Uiso   1.00
C336   C     0.91612   0.21822   0.83183   0.00000  Uiso   1.00
C337   C     0.82944   0.24588   0.84842   0.00000  Uiso   1.00
C338   C     0.78925   0.31270   0.82615   0.00000  Uiso   1.00
C339   C     0.71015   0.32781   0.84692   0.00000  Uiso   1.00
C340   C     0.96458   0.21362   0.88905   0.00000  Uiso   1.00
C341   C     0.03801   0.25331   0.90096   0.00000  Uiso   1.00
C342   C     0.07268   0.24126   0.95592   0.00000  Uiso   1.00
C343   C     0.90706   0.13216   0.81041   0.00000  Uiso   1.00
C344   C     0.93215   0.10335   0.75619   0.00000  Uiso   1.00
C345   C     0.91842   0.02271   0.74495   0.00000  Uiso   1.00
H346   H     0.81794   0.08736   0.94061   0.00000  Uiso   1.00
H347   H     0.68393   0.17227   0.94288   0.00000  Uiso   1.00
H348   H     0.93265   0.11288   0.01767   0.00000  Uiso   1.00
H349   H     0.82681   0.96295   0.87292   0.00000  Uiso   1.00
H350   H     0.55189   0.28846   0.92710   0.00000  Uiso   1.00
H351   H     0.07635   0.16321   0.08478   0.00000  Uiso   1.00
H352   H     0.85316   0.84705   0.77957   0.00000  Uiso   1.00
H353   H     0.94530   0.25712   0.79950   0.00000  Uiso   1.00
H354   H     0.81827   0.35134   0.79402   0.00000  Uiso   1.00
H355   H     0.06700   0.29196   0.86881   0.00000  Uiso   1.00
H356   H     0.96115   0.14203   0.72407   0.00000  Uiso   1.00
H357   H     0.66093   0.43380   0.80628   0.00000  Uiso   1.00
H358   H     0.18539   0.30855   0.96396   0.00000  Uiso   1.00
H359   H     0.96221   0.99240   0.65875   0.00000  Uiso   1.00
O360   O     0.52056   0.42007   0.86565   0.00000  Uiso   1.00
O361   O     0.20863   0.25573   0.07252   0.00000  Uiso   1.00
O362   O     0.91582   0.84094   0.67208   0.00000  Uiso   1.00
N363   N     0.59498   0.30972   0.89941   0.00000  Uiso   1.00
N364   N     0.08531   0.19264   0.04684   0.00000  Uiso   1.00
N365   N     0.87667   0.89705   0.76149   0.00000  Uiso   1.00
N366   N     0.65365   0.38793   0.83440   0.00000  Uiso   1.00
N367   N     0.14398   0.27084   0.98182   0.00000  Uiso   1.00
N368   N     0.93534   0.97526   0.69648   0.00000  Uiso   1.00
