data_job_00485
_audit_creation_date              2018-12-19
_audit_creation_method            'Materials Studio'
_symmetry_space_group_name_H-M    'P1'
_symmetry_Int_Tables_number       1
_symmetry_cell_setting            triclinic
loop_
_symmetry_equiv_pos_as_xyz
  x,y,z
_cell_length_a                    9.8843
_cell_length_b                    20.8605
_cell_length_c                    17.2053
_cell_angle_alpha                 90.0000
_cell_angle_beta                  140.8924
_cell_angle_gamma                 90.0000
loop_
_atom_site_label
_atom_site_type_symbol
_atom_site_fract_x
_atom_site_fract_y
_atom_site_fract_z
_atom_site_U_iso_or_equiv
_atom_site_adp_type
_atom_site_occupancy
C1     C     0.87818   0.72225   0.68257   0.00000  Uiso   1.00
C2     C     0.09089   0.68650   0.77147   0.00000  Uiso   1.00
C3     C     0.23904   0.69254   0.77775   0.00000  Uiso   1.00
C4     C     0.42385   0.65566   0.86541   0.00000  Uiso   1.00
C5     C     0.74873   0.60642   0.99146   0.00000  Uiso   1.00
C6     C     0.70538   0.67087   0.61284   0.00000  Uiso   1.00
C7     C     0.52937   0.66377   0.48575   0.00000  Uiso   1.00
C8     C     0.38965   0.61374   0.43987   0.00000  Uiso   1.00
C9     C     0.11593   0.54027   0.31964   0.00000  Uiso   1.00
C10    C     0.88266   0.75715   0.76243   0.00000  Uiso   1.00
C11    C     0.85566   0.82260   0.76110   0.00000  Uiso   1.00
C12    C     0.86514   0.84521   0.84115   0.00000  Uiso   1.00
C13    C     0.86667   0.90570   0.95318   0.00000  Uiso   1.00
C14    C     0.94297   0.64604   0.82707   0.00000  Uiso   1.00
C15    C     0.12607   0.64510   0.84995   0.00000  Uiso   1.00
C16    C     0.31072   0.60821   0.93762   0.00000  Uiso   1.00
C17    C     0.45911   0.61419   0.94404   0.00000  Uiso   1.00
C18    C     0.74056   0.62947   0.69132   0.00000  Uiso   1.00
C19    C     0.60106   0.57945   0.64562   0.00000  Uiso   1.00
C20    C     0.42490   0.57227   0.51850   0.00000  Uiso   1.00
C21    C     0.91785   0.71576   0.84092   0.00000  Uiso   1.00
C22    C     0.92735   0.73827   0.92097   0.00000  Uiso   1.00
C23    C     0.90038   0.80374   0.91977   0.00000  Uiso   1.00
H24    H     0.85077   0.75448   0.62147   0.00000  Uiso   1.00
H25    H     0.21174   0.72457   0.71699   0.00000  Uiso   1.00
H26    H     0.50218   0.69582   0.42504   0.00000  Uiso   1.00
H27    H     0.82843   0.85462   0.70035   0.00000  Uiso   1.00
H28    H     0.62741   0.67314   0.85748   0.00000  Uiso   1.00
H29    H     0.13123   0.61252   0.24188   0.00000  Uiso   1.00
H30    H     0.81918   0.94738   0.82242   0.00000  Uiso   1.00
H31    H     0.97036   0.61381   0.88817   0.00000  Uiso   1.00
H32    H     0.33790   0.57618   0.99835   0.00000  Uiso   1.00
H33    H     0.62833   0.54743   0.70638   0.00000  Uiso   1.00
H34    H     0.95459   0.70623   0.98169   0.00000  Uiso   1.00
H35    H     0.72981   0.55270   0.08583   0.00000  Uiso   1.00
H36    H     0.23361   0.49208   0.47022   0.00000  Uiso   1.00
H37    H     0.92158   0.82694   0.05077   0.00000  Uiso   1.00
O38    O     0.91820   0.59069   0.03929   0.00000  Uiso   1.00
O39    O     0.95524   0.51117   0.23164   0.00000  Uiso   1.00
O40    O     0.85783   0.95050   0.99330   0.00000  Uiso   1.00
N41    N     0.60109   0.64997   0.89612   0.00000  Uiso   1.00
N42    N     0.20226   0.59329   0.32057   0.00000  Uiso   1.00
N43    N     0.84539   0.90635   0.86330   0.00000  Uiso   1.00
N44    N     0.65619   0.58516   0.01900   0.00000  Uiso   1.00
N45    N     0.25736   0.52848   0.44344   0.00000  Uiso   1.00
N46    N     0.90049   0.84154   0.98618   0.00000  Uiso   1.00
C47    C     0.12182   0.22225   0.81743   0.00000  Uiso   1.00
C48    C     0.90911   0.18650   0.72853   0.00000  Uiso   1.00
C49    C     0.76096   0.19254   0.72225   0.00000  Uiso   1.00
C50    C     0.57615   0.15566   0.63459   0.00000  Uiso   1.00
C51    C     0.25127   0.10642   0.50854   0.00000  Uiso   1.00
C52    C     0.29462   0.17087   0.88716   0.00000  Uiso   1.00
C53    C     0.47063   0.16377   0.01425   0.00000  Uiso   1.00
C54    C     0.61035   0.11374   0.06013   0.00000  Uiso   1.00
C55    C     0.88407   0.04027   0.18036   0.00000  Uiso   1.00
C56    C     0.11734   0.25715   0.73757   0.00000  Uiso   1.00
C57    C     0.14434   0.32260   0.73890   0.00000  Uiso   1.00
C58    C     0.13486   0.34521   0.65885   0.00000  Uiso   1.00
C59    C     0.13333   0.40570   0.54682   0.00000  Uiso   1.00
C60    C     0.05703   0.14604   0.67293   0.00000  Uiso   1.00
C61    C     0.87393   0.14510   0.65005   0.00000  Uiso   1.00
C62    C     0.68928   0.10821   0.56238   0.00000  Uiso   1.00
C63    C     0.54089   0.11419   0.55596   0.00000  Uiso   1.00
C64    C     0.25944   0.12947   0.80868   0.00000  Uiso   1.00
C65    C     0.39894   0.07945   0.85438   0.00000  Uiso   1.00
C66    C     0.57510   0.07227   0.98150   0.00000  Uiso   1.00
C67    C     0.08215   0.21576   0.65908   0.00000  Uiso   1.00
C68    C     0.07265   0.23827   0.57903   0.00000  Uiso   1.00
C69    C     0.09962   0.30374   0.58023   0.00000  Uiso   1.00
H70    H     0.14923   0.25448   0.87853   0.00000  Uiso   1.00
H71    H     0.78826   0.22457   0.78301   0.00000  Uiso   1.00
H72    H     0.49782   0.19582   0.07496   0.00000  Uiso   1.00
H73    H     0.17157   0.35462   0.79965   0.00000  Uiso   1.00
H74    H     0.37259   0.17314   0.64252   0.00000  Uiso   1.00
H75    H     0.86877   0.11252   0.25812   0.00000  Uiso   1.00
H76    H     0.18082   0.44738   0.67758   0.00000  Uiso   1.00
H77    H     0.02964   0.11381   0.61183   0.00000  Uiso   1.00
H78    H     0.66210   0.07618   0.50165   0.00000  Uiso   1.00
H79    H     0.37167   0.04743   0.79362   0.00000  Uiso   1.00
H80    H     0.04541   0.20623   0.51831   0.00000  Uiso   1.00
H81    H     0.27019   0.05270   0.41417   0.00000  Uiso   1.00
H82    H     0.76639   0.99208   0.02978   0.00000  Uiso   1.00
H83    H     0.07842   0.32694   0.44923   0.00000  Uiso   1.00
O84    O     0.08180   0.09069   0.46071   0.00000  Uiso   1.00
O85    O     0.04476   0.01117   0.26836   0.00000  Uiso   1.00
O86    O     0.14217   0.45050   0.50670   0.00000  Uiso   1.00
N87    N     0.39891   0.14997   0.60388   0.00000  Uiso   1.00
N88    N     0.79774   0.09329   0.17943   0.00000  Uiso   1.00
N89    N     0.15461   0.40635   0.63670   0.00000  Uiso   1.00
N90    N     0.34381   0.08516   0.48100   0.00000  Uiso   1.00
N91    N     0.74264   0.02848   0.05656   0.00000  Uiso   1.00
N92    N     0.09951   0.34154   0.51382   0.00000  Uiso   1.00
C93    C     0.12182   0.27775   0.31743   0.00000  Uiso   1.00
C94    C     0.90911   0.31350   0.22853   0.00000  Uiso   1.00
C95    C     0.76096   0.30746   0.22225   0.00000  Uiso   1.00
C96    C     0.57615   0.34434   0.13459   0.00000  Uiso   1.00
C97    C     0.25127   0.39358   0.00854   0.00000  Uiso   1.00
C98    C     0.29462   0.32913   0.38716   0.00000  Uiso   1.00
C99    C     0.47063   0.33623   0.51425   0.00000  Uiso   1.00
C100   C     0.61035   0.38626   0.56013   0.00000  Uiso   1.00
C101   C     0.88407   0.45973   0.68036   0.00000  Uiso   1.00
C102   C     0.11734   0.24285   0.23757   0.00000  Uiso   1.00
C103   C     0.14434   0.17740   0.23890   0.00000  Uiso   1.00
C104   C     0.13486   0.15479   0.15885   0.00000  Uiso   1.00
C105   C     0.13333   0.09430   0.04682   0.00000  Uiso   1.00
C106   C     0.05703   0.35396   0.17293   0.00000  Uiso   1.00
C107   C     0.87393   0.35490   0.15005   0.00000  Uiso   1.00
C108   C     0.68928   0.39179   0.06238   0.00000  Uiso   1.00
C109   C     0.54089   0.38581   0.05596   0.00000  Uiso   1.00
C110   C     0.25944   0.37053   0.30868   0.00000  Uiso   1.00
C111   C     0.39894   0.42055   0.35438   0.00000  Uiso   1.00
C112   C     0.57510   0.42773   0.48150   0.00000  Uiso   1.00
C113   C     0.08215   0.28424   0.15908   0.00000  Uiso   1.00
C114   C     0.07265   0.26173   0.07903   0.00000  Uiso   1.00
C115   C     0.09962   0.19626   0.08023   0.00000  Uiso   1.00
H116   H     0.14923   0.24552   0.37853   0.00000  Uiso   1.00
H117   H     0.78826   0.27543   0.28301   0.00000  Uiso   1.00
H118   H     0.49782   0.30418   0.57496   0.00000  Uiso   1.00
H119   H     0.17157   0.14538   0.29965   0.00000  Uiso   1.00
H120   H     0.37259   0.32686   0.14252   0.00000  Uiso   1.00
H121   H     0.86877   0.38748   0.75812   0.00000  Uiso   1.00
H122   H     0.18082   0.05262   0.17758   0.00000  Uiso   1.00
H123   H     0.02964   0.38619   0.11183   0.00000  Uiso   1.00
H124   H     0.66210   0.42382   0.00165   0.00000  Uiso   1.00
H125   H     0.37167   0.45257   0.29362   0.00000  Uiso   1.00
H126   H     0.04541   0.29377   0.01831   0.00000  Uiso   1.00
H127   H     0.27019   0.44730   0.91417   0.00000  Uiso   1.00
H128   H     0.76639   0.50792   0.52978   0.00000  Uiso   1.00
H129   H     0.07842   0.17306   0.94923   0.00000  Uiso   1.00
O130   O     0.08180   0.40931   0.96071   0.00000  Uiso   1.00
O131   O     0.04476   0.48883   0.76836   0.00000  Uiso   1.00
O132   O     0.14217   0.04950   0.00670   0.00000  Uiso   1.00
N133   N     0.39891   0.35003   0.10388   0.00000  Uiso   1.00
N134   N     0.79774   0.40671   0.67943   0.00000  Uiso   1.00
N135   N     0.15461   0.09365   0.13670   0.00000  Uiso   1.00
N136   N     0.34381   0.41484   0.98100   0.00000  Uiso   1.00
N137   N     0.74264   0.47152   0.55656   0.00000  Uiso   1.00
N138   N     0.09951   0.15846   0.01382   0.00000  Uiso   1.00
C139   C     0.87818   0.77775   0.18257   0.00000  Uiso   1.00
C140   C     0.09089   0.81350   0.27147   0.00000  Uiso   1.00
C141   C     0.23904   0.80746   0.27775   0.00000  Uiso   1.00
C142   C     0.42385   0.84434   0.36541   0.00000  Uiso   1.00
C143   C     0.74873   0.89358   0.49146   0.00000  Uiso   1.00
C144   C     0.70538   0.82913   0.11284   0.00000  Uiso   1.00
C145   C     0.52937   0.83623   0.98575   0.00000  Uiso   1.00
C146   C     0.38965   0.88626   0.93987   0.00000  Uiso   1.00
C147   C     0.11593   0.95973   0.81964   0.00000  Uiso   1.00
C148   C     0.88266   0.74285   0.26243   0.00000  Uiso   1.00
C149   C     0.85566   0.67740   0.26110   0.00000  Uiso   1.00
C150   C     0.86514   0.65479   0.34115   0.00000  Uiso   1.00
C151   C     0.86667   0.59430   0.45318   0.00000  Uiso   1.00
C152   C     0.94297   0.85396   0.32707   0.00000  Uiso   1.00
C153   C     0.12607   0.85490   0.34995   0.00000  Uiso   1.00
C154   C     0.31072   0.89179   0.43762   0.00000  Uiso   1.00
C155   C     0.45911   0.88581   0.44404   0.00000  Uiso   1.00
C156   C     0.74056   0.87053   0.19132   0.00000  Uiso   1.00
C157   C     0.60106   0.92055   0.14562   0.00000  Uiso   1.00
C158   C     0.42490   0.92773   0.01850   0.00000  Uiso   1.00
C159   C     0.91785   0.78424   0.34092   0.00000  Uiso   1.00
C160   C     0.92735   0.76173   0.42097   0.00000  Uiso   1.00
C161   C     0.90038   0.69626   0.41977   0.00000  Uiso   1.00
H162   H     0.85077   0.74552   0.12147   0.00000  Uiso   1.00
H163   H     0.21174   0.77543   0.21699   0.00000  Uiso   1.00
H164   H     0.50218   0.80418   0.92504   0.00000  Uiso   1.00
H165   H     0.82843   0.64538   0.20035   0.00000  Uiso   1.00
H166   H     0.62741   0.82686   0.35748   0.00000  Uiso   1.00
H167   H     0.13123   0.88748   0.74188   0.00000  Uiso   1.00
H168   H     0.81918   0.55262   0.32242   0.00000  Uiso   1.00
H169   H     0.97036   0.88619   0.38817   0.00000  Uiso   1.00
H170   H     0.33790   0.92382   0.49835   0.00000  Uiso   1.00
H171   H     0.62833   0.95257   0.20638   0.00000  Uiso   1.00
H172   H     0.95459   0.79377   0.48169   0.00000  Uiso   1.00
H173   H     0.72981   0.94730   0.58583   0.00000  Uiso   1.00
H174   H     0.23361   0.00792   0.97022   0.00000  Uiso   1.00
H175   H     0.92158   0.67306   0.55077   0.00000  Uiso   1.00
O176   O     0.91820   0.90931   0.53929   0.00000  Uiso   1.00
O177   O     0.95524   0.98883   0.73164   0.00000  Uiso   1.00
O178   O     0.85783   0.54950   0.49330   0.00000  Uiso   1.00
N179   N     0.60109   0.85003   0.39612   0.00000  Uiso   1.00
N180   N     0.20226   0.90671   0.82057   0.00000  Uiso   1.00
N181   N     0.84539   0.59365   0.36330   0.00000  Uiso   1.00
N182   N     0.65619   0.91484   0.51900   0.00000  Uiso   1.00
N183   N     0.25736   0.97152   0.94344   0.00000  Uiso   1.00
N184   N     0.90049   0.65846   0.48618   0.00000  Uiso   1.00
