data_job_01523
_audit_creation_date              2018-12-19
_audit_creation_method            'Materials Studio'
_symmetry_space_group_name_H-M    'P1'
_symmetry_Int_Tables_number       1
_symmetry_cell_setting            triclinic
loop_
_symmetry_equiv_pos_as_xyz
  x,y,z
_cell_length_a                    16.1069
_cell_length_b                    18.0463
_cell_length_c                    22.5973
_cell_angle_alpha                 90.0000
_cell_angle_beta                  90.0000
_cell_angle_gamma                 90.0000
loop_
_atom_site_label
_atom_site_type_symbol
_atom_site_fract_x
_atom_site_fract_y
_atom_site_fract_z
_atom_site_U_iso_or_equiv
_atom_site_adp_type
_atom_site_occupancy
C1     C     0.19428   0.82174   0.49952   0.00000  Uiso   1.00
C2     C     0.19385   0.73963   0.48360   0.00000  Uiso   1.00
C3     C     0.12377   0.69701   0.47273   0.00000  Uiso   1.00
C4     C     0.13646   0.62293   0.45886   0.00000  Uiso   1.00
C5     C     0.12362   0.50003   0.43460   0.00000  Uiso   1.00
C6     C     0.24107   0.82778   0.55799   0.00000  Uiso   1.00
C7     C     0.21070   0.85930   0.60966   0.00000  Uiso   1.00
C8     C     0.26316   0.85943   0.65842   0.00000  Uiso   1.00
C9     C     0.32365   0.87344   0.74964   0.00000  Uiso   1.00
C10    C     0.24879   0.85958   0.45336   0.00000  Uiso   1.00
C11    C     0.22492   0.91784   0.41706   0.00000  Uiso   1.00
C12    C     0.28389   0.94475   0.37773   0.00000  Uiso   1.00
C13    C     0.35637   0.00812   0.30650   0.00000  Uiso   1.00
C14    C     0.34146   0.76595   0.49423   0.00000  Uiso   1.00
C15    C     0.27379   0.70932   0.48073   0.00000  Uiso   1.00
C16    C     0.28660   0.63528   0.46687   0.00000  Uiso   1.00
C17    C     0.21655   0.59257   0.45598   0.00000  Uiso   1.00
C18    C     0.32101   0.79748   0.55512   0.00000  Uiso   1.00
C19    C     0.37353   0.79757   0.60381   0.00000  Uiso   1.00
C20    C     0.34324   0.82907   0.65554   0.00000  Uiso   1.00
C21    C     0.32873   0.82927   0.45048   0.00000  Uiso   1.00
C22    C     0.38775   0.85610   0.41121   0.00000  Uiso   1.00
C23    C     0.36397   0.91439   0.37485   0.00000  Uiso   1.00
H24    H     0.13205   0.84534   0.50177   0.00000  Uiso   1.00
H25    H     0.06191   0.72049   0.47496   0.00000  Uiso   1.00
H26    H     0.14883   0.88275   0.61187   0.00000  Uiso   1.00
H27    H     0.16305   0.94128   0.41930   0.00000  Uiso   1.00
H28    H     0.01940   0.56869   0.44400   0.00000  Uiso   1.00
H29    H     0.20269   0.91086   0.73268   0.00000  Uiso   1.00
H30    H     0.23268   0.03428   0.32660   0.00000  Uiso   1.00
H31    H     0.40370   0.74235   0.49200   0.00000  Uiso   1.00
H32    H     0.34847   0.61184   0.46465   0.00000  Uiso   1.00
H33    H     0.43539   0.77411   0.60157   0.00000  Uiso   1.00
H34    H     0.44961   0.83263   0.40899   0.00000  Uiso   1.00
H35    H     0.25198   0.48051   0.43563   0.00000  Uiso   1.00
H36    H     0.43527   0.82269   0.72431   0.00000  Uiso   1.00
H37    H     0.46526   0.94610   0.31824   0.00000  Uiso   1.00
O38    O     0.09446   0.44061   0.42202   0.00000  Uiso   1.00
O39    O     0.33493   0.88953   0.80075   0.00000  Uiso   1.00
O40    O     0.37427   0.05144   0.26799   0.00000  Uiso   1.00
N41    N     0.08172   0.56586   0.44577   0.00000  Uiso   1.00
N42    N     0.25308   0.88575   0.71567   0.00000  Uiso   1.00
N43    N     0.28112   0.00115   0.33604   0.00000  Uiso   1.00
N44    N     0.20687   0.51841   0.44127   0.00000  Uiso   1.00
N45    N     0.37823   0.83831   0.71117   0.00000  Uiso   1.00
N46    N     0.40627   0.95370   0.33153   0.00000  Uiso   1.00
C47    C     0.81296   0.17488   0.51960   0.00000  Uiso   1.00
C48    C     0.81610   0.25694   0.50365   0.00000  Uiso   1.00
C49    C     0.88632   0.29569   0.48606   0.00000  Uiso   1.00
C50    C     0.87629   0.37044   0.47341   0.00000  Uiso   1.00
C51    C     0.89295   0.49257   0.44789   0.00000  Uiso   1.00
C52    C     0.74771   0.14051   0.47914   0.00000  Uiso   1.00
C53    C     0.76041   0.08135   0.44096   0.00000  Uiso   1.00
C54    C     0.69280   0.05808   0.40768   0.00000  Uiso   1.00
C55    C     0.60326   0.99942   0.34414   0.00000  Uiso   1.00
C56    C     0.77731   0.17095   0.58204   0.00000  Uiso   1.00
C57    C     0.81490   0.13738   0.63036   0.00000  Uiso   1.00
C58    C     0.77220   0.13973   0.68371   0.00000  Uiso   1.00
C59    C     0.72862   0.12833   0.77992   0.00000  Uiso   1.00
C60    C     0.67030   0.23873   0.52840   0.00000  Uiso   1.00
C61    C     0.73861   0.29162   0.50843   0.00000  Uiso   1.00
C62    C     0.72848   0.36633   0.49580   0.00000  Uiso   1.00
C63    C     0.79866   0.40519   0.47820   0.00000  Uiso   1.00
C64    C     0.67022   0.17519   0.48392   0.00000  Uiso   1.00
C65    C     0.60257   0.15200   0.45070   0.00000  Uiso   1.00
C66    C     0.61517   0.09283   0.41247   0.00000  Uiso   1.00
C67    C     0.69982   0.20564   0.58682   0.00000  Uiso   1.00
C68    C     0.65705   0.20803   0.64010   0.00000  Uiso   1.00
C69    C     0.69457   0.17447   0.68849   0.00000  Uiso   1.00
H70    H     0.87329   0.14788   0.51588   0.00000  Uiso   1.00
H71    H     0.94627   0.26883   0.48236   0.00000  Uiso   1.00
H72    H     0.82039   0.05452   0.43727   0.00000  Uiso   1.00
H73    H     0.87486   0.11055   0.62664   0.00000  Uiso   1.00
H74    H     0.99301   0.41821   0.44730   0.00000  Uiso   1.00
H75    H     0.72756   0.96632   0.35223   0.00000  Uiso   1.00
H76    H     0.84243   0.08445   0.75156   0.00000  Uiso   1.00
H77    H     0.60997   0.26573   0.53213   0.00000  Uiso   1.00
H78    H     0.66850   0.39316   0.49951   0.00000  Uiso   1.00
H79    H     0.54262   0.17885   0.45441   0.00000  Uiso   1.00
H80    H     0.59709   0.23487   0.64378   0.00000  Uiso   1.00
H81    H     0.76756   0.51912   0.46120   0.00000  Uiso   1.00
H82    H     0.50211   0.06722   0.36614   0.00000  Uiso   1.00
H83    H     0.61698   0.18536   0.76547   0.00000  Uiso   1.00
O84    O     0.92354   0.55036   0.43248   0.00000  Uiso   1.00
O85    O     0.57528   0.95748   0.30777   0.00000  Uiso   1.00
O86    O     0.72599   0.11247   0.83167   0.00000  Uiso   1.00
N87    N     0.93192   0.42448   0.45506   0.00000  Uiso   1.00
N88    N     0.68375   0.00199   0.36617   0.00000  Uiso   1.00
N89    N     0.79113   0.11242   0.73950   0.00000  Uiso   1.00
N90    N     0.81061   0.47878   0.46254   0.00000  Uiso   1.00
N91    N     0.56243   0.05629   0.37365   0.00000  Uiso   1.00
N92    N     0.66982   0.16672   0.74699   0.00000  Uiso   1.00
C93    C     0.30572   0.17826   0.99952   0.00000  Uiso   1.00
C94    C     0.30615   0.26037   0.98360   0.00000  Uiso   1.00
C95    C     0.37623   0.30299   0.97273   0.00000  Uiso   1.00
C96    C     0.36354   0.37707   0.95886   0.00000  Uiso   1.00
C97    C     0.37638   0.49997   0.93460   0.00000  Uiso   1.00
C98    C     0.25893   0.17222   0.05799   0.00000  Uiso   1.00
C99    C     0.28930   0.14070   0.10966   0.00000  Uiso   1.00
C100   C     0.23684   0.14057   0.15842   0.00000  Uiso   1.00
C101   C     0.17635   0.12656   0.24964   0.00000  Uiso   1.00
C102   C     0.25121   0.14042   0.95336   0.00000  Uiso   1.00
C103   C     0.27508   0.08216   0.91706   0.00000  Uiso   1.00
C104   C     0.21611   0.05525   0.87773   0.00000  Uiso   1.00
C105   C     0.14363   0.99188   0.80650   0.00000  Uiso   1.00
C106   C     0.15854   0.23405   0.99423   0.00000  Uiso   1.00
C107   C     0.22621   0.29068   0.98073   0.00000  Uiso   1.00
C108   C     0.21340   0.36472   0.96687   0.00000  Uiso   1.00
C109   C     0.28345   0.40743   0.95598   0.00000  Uiso   1.00
C110   C     0.17899   0.20252   0.05512   0.00000  Uiso   1.00
C111   C     0.12647   0.20243   0.10381   0.00000  Uiso   1.00
C112   C     0.15676   0.17093   0.15554   0.00000  Uiso   1.00
C113   C     0.17127   0.17073   0.95048   0.00000  Uiso   1.00
C114   C     0.11225   0.14390   0.91121   0.00000  Uiso   1.00
C115   C     0.13603   0.08561   0.87485   0.00000  Uiso   1.00
H116   H     0.36795   0.15466   0.00177   0.00000  Uiso   1.00
H117   H     0.43809   0.27951   0.97496   0.00000  Uiso   1.00
H118   H     0.35117   0.11725   0.11187   0.00000  Uiso   1.00
H119   H     0.33695   0.05872   0.91930   0.00000  Uiso   1.00
H120   H     0.48060   0.43131   0.94400   0.00000  Uiso   1.00
H121   H     0.29731   0.08914   0.23268   0.00000  Uiso   1.00
H122   H     0.26732   0.96572   0.82660   0.00000  Uiso   1.00
H123   H     0.09630   0.25765   0.99200   0.00000  Uiso   1.00
H124   H     0.15153   0.38816   0.96465   0.00000  Uiso   1.00
H125   H     0.06461   0.22589   0.10157   0.00000  Uiso   1.00
H126   H     0.05039   0.16737   0.90899   0.00000  Uiso   1.00
H127   H     0.24802   0.51949   0.93563   0.00000  Uiso   1.00
H128   H     0.06473   0.17731   0.22431   0.00000  Uiso   1.00
H129   H     0.03474   0.05390   0.81824   0.00000  Uiso   1.00
O130   O     0.40554   0.55939   0.92202   0.00000  Uiso   1.00
O131   O     0.16507   0.11047   0.30075   0.00000  Uiso   1.00
O132   O     0.12573   0.94856   0.76799   0.00000  Uiso   1.00
N133   N     0.41828   0.43414   0.94577   0.00000  Uiso   1.00
N134   N     0.24692   0.11425   0.21567   0.00000  Uiso   1.00
N135   N     0.21888   0.99885   0.83604   0.00000  Uiso   1.00
N136   N     0.29313   0.48159   0.94127   0.00000  Uiso   1.00
N137   N     0.12177   0.16169   0.21117   0.00000  Uiso   1.00
N138   N     0.09373   0.04630   0.83153   0.00000  Uiso   1.00
C139   C     0.68704   0.82512   0.01960   0.00000  Uiso   1.00
C140   C     0.68390   0.74306   0.00365   0.00000  Uiso   1.00
C141   C     0.61368   0.70431   0.98606   0.00000  Uiso   1.00
C142   C     0.62371   0.62956   0.97341   0.00000  Uiso   1.00
C143   C     0.60705   0.50743   0.94789   0.00000  Uiso   1.00
C144   C     0.75229   0.85949   0.97914   0.00000  Uiso   1.00
C145   C     0.73959   0.91865   0.94096   0.00000  Uiso   1.00
C146   C     0.80720   0.94192   0.90768   0.00000  Uiso   1.00
C147   C     0.89674   0.00058   0.84414   0.00000  Uiso   1.00
C148   C     0.72269   0.82905   0.08204   0.00000  Uiso   1.00
C149   C     0.68510   0.86262   0.13036   0.00000  Uiso   1.00
C150   C     0.72780   0.86027   0.18371   0.00000  Uiso   1.00
C151   C     0.77138   0.87167   0.27992   0.00000  Uiso   1.00
C152   C     0.82970   0.76127   0.02840   0.00000  Uiso   1.00
C153   C     0.76139   0.70838   0.00843   0.00000  Uiso   1.00
C154   C     0.77152   0.63367   0.99580   0.00000  Uiso   1.00
C155   C     0.70134   0.59481   0.97820   0.00000  Uiso   1.00
C156   C     0.82978   0.82481   0.98392   0.00000  Uiso   1.00
C157   C     0.89743   0.84800   0.95070   0.00000  Uiso   1.00
C158   C     0.88483   0.90717   0.91247   0.00000  Uiso   1.00
C159   C     0.80018   0.79436   0.08682   0.00000  Uiso   1.00
C160   C     0.84295   0.79197   0.14010   0.00000  Uiso   1.00
C161   C     0.80543   0.82553   0.18849   0.00000  Uiso   1.00
H162   H     0.62671   0.85212   0.01588   0.00000  Uiso   1.00
H163   H     0.55373   0.73117   0.98236   0.00000  Uiso   1.00
H164   H     0.67961   0.94548   0.93727   0.00000  Uiso   1.00
H165   H     0.62514   0.88945   0.12664   0.00000  Uiso   1.00
H166   H     0.50699   0.58179   0.94730   0.00000  Uiso   1.00
H167   H     0.77244   0.03368   0.85223   0.00000  Uiso   1.00
H168   H     0.65757   0.91555   0.25156   0.00000  Uiso   1.00
H169   H     0.89003   0.73427   0.03213   0.00000  Uiso   1.00
H170   H     0.83150   0.60684   0.99951   0.00000  Uiso   1.00
H171   H     0.95738   0.82115   0.95441   0.00000  Uiso   1.00
H172   H     0.90291   0.76513   0.14378   0.00000  Uiso   1.00
H173   H     0.73244   0.48088   0.96120   0.00000  Uiso   1.00
H174   H     0.99789   0.93278   0.86614   0.00000  Uiso   1.00
H175   H     0.88302   0.81464   0.26547   0.00000  Uiso   1.00
O176   O     0.57646   0.44964   0.93248   0.00000  Uiso   1.00
O177   O     0.92472   0.04252   0.80777   0.00000  Uiso   1.00
O178   O     0.77401   0.88753   0.33167   0.00000  Uiso   1.00
N179   N     0.56808   0.57552   0.95506   0.00000  Uiso   1.00
N180   N     0.81625   0.99801   0.86617   0.00000  Uiso   1.00
N181   N     0.70887   0.88758   0.23950   0.00000  Uiso   1.00
N182   N     0.68939   0.52122   0.96254   0.00000  Uiso   1.00
N183   N     0.93757   0.94371   0.87365   0.00000  Uiso   1.00
N184   N     0.83018   0.83328   0.24699   0.00000  Uiso   1.00
C185   C     0.80572   0.32174   0.00048   0.00000  Uiso   1.00
C186   C     0.80615   0.23963   0.01640   0.00000  Uiso   1.00
C187   C     0.87623   0.19701   0.02727   0.00000  Uiso   1.00
C188   C     0.86354   0.12293   0.04114   0.00000  Uiso   1.00
C189   C     0.87638   0.00003   0.06540   0.00000  Uiso   1.00
C190   C     0.75893   0.32778   0.94201   0.00000  Uiso   1.00
C191   C     0.78930   0.35930   0.89034   0.00000  Uiso   1.00
C192   C     0.73684   0.35943   0.84158   0.00000  Uiso   1.00
C193   C     0.67635   0.37344   0.75036   0.00000  Uiso   1.00
C194   C     0.75121   0.35958   0.04664   0.00000  Uiso   1.00
C195   C     0.77508   0.41784   0.08294   0.00000  Uiso   1.00
C196   C     0.71611   0.44475   0.12227   0.00000  Uiso   1.00
C197   C     0.64363   0.50812   0.19350   0.00000  Uiso   1.00
C198   C     0.65854   0.26595   0.00577   0.00000  Uiso   1.00
C199   C     0.72621   0.20932   0.01927   0.00000  Uiso   1.00
C200   C     0.71340   0.13528   0.03313   0.00000  Uiso   1.00
C201   C     0.78345   0.09257   0.04402   0.00000  Uiso   1.00
C202   C     0.67899   0.29748   0.94488   0.00000  Uiso   1.00
C203   C     0.62647   0.29757   0.89619   0.00000  Uiso   1.00
C204   C     0.65676   0.32907   0.84446   0.00000  Uiso   1.00
C205   C     0.67127   0.32927   0.04952   0.00000  Uiso   1.00
C206   C     0.61225   0.35610   0.08879   0.00000  Uiso   1.00
C207   C     0.63603   0.41439   0.12515   0.00000  Uiso   1.00
H208   H     0.86795   0.34534   0.99823   0.00000  Uiso   1.00
H209   H     0.93809   0.22049   0.02504   0.00000  Uiso   1.00
H210   H     0.85117   0.38275   0.88813   0.00000  Uiso   1.00
H211   H     0.83695   0.44128   0.08070   0.00000  Uiso   1.00
H212   H     0.98060   0.06869   0.05600   0.00000  Uiso   1.00
H213   H     0.79731   0.41086   0.76732   0.00000  Uiso   1.00
H214   H     0.76732   0.53428   0.17340   0.00000  Uiso   1.00
H215   H     0.59630   0.24235   0.00800   0.00000  Uiso   1.00
H216   H     0.65153   0.11184   0.03535   0.00000  Uiso   1.00
H217   H     0.56461   0.27411   0.89843   0.00000  Uiso   1.00
H218   H     0.55039   0.33263   0.09101   0.00000  Uiso   1.00
H219   H     0.74802   0.98051   0.06437   0.00000  Uiso   1.00
H220   H     0.56473   0.32269   0.77569   0.00000  Uiso   1.00
H221   H     0.53474   0.44610   0.18176   0.00000  Uiso   1.00
O222   O     0.90554   0.94061   0.07798   0.00000  Uiso   1.00
O223   O     0.66507   0.38953   0.69925   0.00000  Uiso   1.00
O224   O     0.62573   0.55144   0.23201   0.00000  Uiso   1.00
N225   N     0.91828   0.06586   0.05423   0.00000  Uiso   1.00
N226   N     0.74692   0.38575   0.78433   0.00000  Uiso   1.00
N227   N     0.71888   0.50115   0.16396   0.00000  Uiso   1.00
N228   N     0.79313   0.01841   0.05873   0.00000  Uiso   1.00
N229   N     0.62177   0.33831   0.78883   0.00000  Uiso   1.00
N230   N     0.59373   0.45370   0.16847   0.00000  Uiso   1.00
C231   C     0.18704   0.67488   0.98040   0.00000  Uiso   1.00
C232   C     0.18390   0.75694   0.99635   0.00000  Uiso   1.00
C233   C     0.11368   0.79569   0.01394   0.00000  Uiso   1.00
C234   C     0.12371   0.87044   0.02659   0.00000  Uiso   1.00
C235   C     0.10705   0.99257   0.05211   0.00000  Uiso   1.00
C236   C     0.25229   0.64051   0.02086   0.00000  Uiso   1.00
C237   C     0.23959   0.58135   0.05904   0.00000  Uiso   1.00
C238   C     0.30720   0.55808   0.09232   0.00000  Uiso   1.00
C239   C     0.39674   0.49942   0.15586   0.00000  Uiso   1.00
C240   C     0.22269   0.67095   0.91796   0.00000  Uiso   1.00
C241   C     0.18510   0.63738   0.86964   0.00000  Uiso   1.00
C242   C     0.22780   0.63973   0.81629   0.00000  Uiso   1.00
C243   C     0.27138   0.62833   0.72008   0.00000  Uiso   1.00
C244   C     0.32970   0.73873   0.97160   0.00000  Uiso   1.00
C245   C     0.26139   0.79162   0.99157   0.00000  Uiso   1.00
C246   C     0.27152   0.86633   0.00420   0.00000  Uiso   1.00
C247   C     0.20134   0.90519   0.02180   0.00000  Uiso   1.00
C248   C     0.32978   0.67519   0.01608   0.00000  Uiso   1.00
C249   C     0.39743   0.65200   0.04930   0.00000  Uiso   1.00
C250   C     0.38483   0.59283   0.08753   0.00000  Uiso   1.00
C251   C     0.30018   0.70564   0.91318   0.00000  Uiso   1.00
C252   C     0.34295   0.70803   0.85990   0.00000  Uiso   1.00
C253   C     0.30543   0.67447   0.81151   0.00000  Uiso   1.00
H254   H     0.12671   0.64788   0.98412   0.00000  Uiso   1.00
H255   H     0.05373   0.76883   0.01764   0.00000  Uiso   1.00
H256   H     0.17961   0.55452   0.06273   0.00000  Uiso   1.00
H257   H     0.12514   0.61055   0.87336   0.00000  Uiso   1.00
H258   H     0.00699   0.91821   0.05270   0.00000  Uiso   1.00
H259   H     0.27244   0.46632   0.14777   0.00000  Uiso   1.00
H260   H     0.15757   0.58445   0.74844   0.00000  Uiso   1.00
H261   H     0.39003   0.76573   0.96787   0.00000  Uiso   1.00
H262   H     0.33150   0.89316   0.00049   0.00000  Uiso   1.00
H263   H     0.45738   0.67885   0.04559   0.00000  Uiso   1.00
H264   H     0.40291   0.73487   0.85622   0.00000  Uiso   1.00
H265   H     0.23244   0.01912   0.03880   0.00000  Uiso   1.00
H266   H     0.49789   0.56722   0.13386   0.00000  Uiso   1.00
H267   H     0.38302   0.68536   0.73453   0.00000  Uiso   1.00
O268   O     0.07646   0.05036   0.06752   0.00000  Uiso   1.00
O269   O     0.42472   0.45748   0.19223   0.00000  Uiso   1.00
O270   O     0.27401   0.61247   0.66833   0.00000  Uiso   1.00
N271   N     0.06808   0.92448   0.04494   0.00000  Uiso   1.00
N272   N     0.31625   0.50199   0.13383   0.00000  Uiso   1.00
N273   N     0.20887   0.61242   0.76050   0.00000  Uiso   1.00
N274   N     0.18939   0.97878   0.03746   0.00000  Uiso   1.00
N275   N     0.43757   0.55629   0.12635   0.00000  Uiso   1.00
N276   N     0.33018   0.66672   0.75301   0.00000  Uiso   1.00
C277   C     0.69428   0.67826   0.50048   0.00000  Uiso   1.00
C278   C     0.69385   0.76037   0.51640   0.00000  Uiso   1.00
C279   C     0.62377   0.80299   0.52727   0.00000  Uiso   1.00
C280   C     0.63646   0.87707   0.54114   0.00000  Uiso   1.00
C281   C     0.62362   0.99997   0.56540   0.00000  Uiso   1.00
C282   C     0.74107   0.67222   0.44201   0.00000  Uiso   1.00
C283   C     0.71070   0.64070   0.39034   0.00000  Uiso   1.00
C284   C     0.76316   0.64057   0.34158   0.00000  Uiso   1.00
C285   C     0.82365   0.62656   0.25036   0.00000  Uiso   1.00
C286   C     0.74879   0.64042   0.54664   0.00000  Uiso   1.00
C287   C     0.72492   0.58216   0.58294   0.00000  Uiso   1.00
C288   C     0.78389   0.55525   0.62227   0.00000  Uiso   1.00
C289   C     0.85637   0.49188   0.69350   0.00000  Uiso   1.00
C290   C     0.84146   0.73405   0.50577   0.00000  Uiso   1.00
C291   C     0.77379   0.79068   0.51927   0.00000  Uiso   1.00
C292   C     0.78660   0.86472   0.53313   0.00000  Uiso   1.00
C293   C     0.71655   0.90743   0.54402   0.00000  Uiso   1.00
C294   C     0.82101   0.70252   0.44488   0.00000  Uiso   1.00
C295   C     0.87353   0.70243   0.39619   0.00000  Uiso   1.00
C296   C     0.84324   0.67093   0.34446   0.00000  Uiso   1.00
C297   C     0.82873   0.67073   0.54952   0.00000  Uiso   1.00
C298   C     0.88775   0.64390   0.58879   0.00000  Uiso   1.00
C299   C     0.86397   0.58561   0.62515   0.00000  Uiso   1.00
H300   H     0.63205   0.65466   0.49823   0.00000  Uiso   1.00
H301   H     0.56191   0.77951   0.52504   0.00000  Uiso   1.00
H302   H     0.64883   0.61725   0.38813   0.00000  Uiso   1.00
H303   H     0.66305   0.55872   0.58070   0.00000  Uiso   1.00
H304   H     0.51940   0.93131   0.55600   0.00000  Uiso   1.00
H305   H     0.70269   0.58914   0.26732   0.00000  Uiso   1.00
H306   H     0.73268   0.46572   0.67340   0.00000  Uiso   1.00
H307   H     0.90370   0.75765   0.50800   0.00000  Uiso   1.00
H308   H     0.84847   0.88816   0.53535   0.00000  Uiso   1.00
H309   H     0.93539   0.72589   0.39843   0.00000  Uiso   1.00
H310   H     0.94961   0.66737   0.59101   0.00000  Uiso   1.00
H311   H     0.75198   0.01949   0.56437   0.00000  Uiso   1.00
H312   H     0.93527   0.67731   0.27569   0.00000  Uiso   1.00
H313   H     0.96526   0.55390   0.68176   0.00000  Uiso   1.00
O314   O     0.59446   0.05939   0.57798   0.00000  Uiso   1.00
O315   O     0.83493   0.61047   0.19925   0.00000  Uiso   1.00
O316   O     0.87427   0.44856   0.73201   0.00000  Uiso   1.00
N317   N     0.58172   0.93414   0.55423   0.00000  Uiso   1.00
N318   N     0.75308   0.61425   0.28433   0.00000  Uiso   1.00
N319   N     0.78112   0.49885   0.66396   0.00000  Uiso   1.00
N320   N     0.70687   0.98159   0.55873   0.00000  Uiso   1.00
N321   N     0.87823   0.66169   0.28883   0.00000  Uiso   1.00
N322   N     0.90627   0.54630   0.66847   0.00000  Uiso   1.00
C323   C     0.31296   0.32512   0.48040   0.00000  Uiso   1.00
C324   C     0.31610   0.24306   0.49635   0.00000  Uiso   1.00
C325   C     0.38632   0.20431   0.51394   0.00000  Uiso   1.00
C326   C     0.37629   0.12956   0.52659   0.00000  Uiso   1.00
C327   C     0.39295   0.00743   0.55211   0.00000  Uiso   1.00
C328   C     0.24771   0.35949   0.52086   0.00000  Uiso   1.00
C329   C     0.26041   0.41865   0.55904   0.00000  Uiso   1.00
C330   C     0.19280   0.44192   0.59232   0.00000  Uiso   1.00
C331   C     0.10326   0.50058   0.65586   0.00000  Uiso   1.00
C332   C     0.27731   0.32905   0.41796   0.00000  Uiso   1.00
C333   C     0.31490   0.36262   0.36964   0.00000  Uiso   1.00
C334   C     0.27220   0.36027   0.31629   0.00000  Uiso   1.00
C335   C     0.22862   0.37167   0.22008   0.00000  Uiso   1.00
C336   C     0.17030   0.26127   0.47160   0.00000  Uiso   1.00
C337   C     0.23861   0.20838   0.49157   0.00000  Uiso   1.00
C338   C     0.22848   0.13367   0.50420   0.00000  Uiso   1.00
C339   C     0.29866   0.09481   0.52180   0.00000  Uiso   1.00
C340   C     0.17022   0.32481   0.51608   0.00000  Uiso   1.00
C341   C     0.10257   0.34800   0.54930   0.00000  Uiso   1.00
C342   C     0.11517   0.40717   0.58753   0.00000  Uiso   1.00
C343   C     0.19982   0.29436   0.41318   0.00000  Uiso   1.00
C344   C     0.15705   0.29197   0.35990   0.00000  Uiso   1.00
C345   C     0.19457   0.32553   0.31151   0.00000  Uiso   1.00
H346   H     0.37329   0.35212   0.48412   0.00000  Uiso   1.00
H347   H     0.44627   0.23117   0.51764   0.00000  Uiso   1.00
H348   H     0.32039   0.44548   0.56273   0.00000  Uiso   1.00
H349   H     0.37486   0.38945   0.37336   0.00000  Uiso   1.00
H350   H     0.49301   0.08179   0.55270   0.00000  Uiso   1.00
H351   H     0.22756   0.53368   0.64777   0.00000  Uiso   1.00
H352   H     0.34243   0.41555   0.24844   0.00000  Uiso   1.00
H353   H     0.10997   0.23427   0.46787   0.00000  Uiso   1.00
H354   H     0.16850   0.10684   0.50049   0.00000  Uiso   1.00
H355   H     0.04262   0.32115   0.54559   0.00000  Uiso   1.00
H356   H     0.09709   0.26513   0.35622   0.00000  Uiso   1.00
H357   H     0.26756   0.98088   0.53880   0.00000  Uiso   1.00
H358   H     0.00211   0.43278   0.63386   0.00000  Uiso   1.00
H359   H     0.11698   0.31464   0.23453   0.00000  Uiso   1.00
O360   O     0.42354   0.94964   0.56752   0.00000  Uiso   1.00
O361   O     0.07528   0.54252   0.69223   0.00000  Uiso   1.00
O362   O     0.22599   0.38753   0.16833   0.00000  Uiso   1.00
N363   N     0.43192   0.07552   0.54494   0.00000  Uiso   1.00
N364   N     0.18375   0.49801   0.63383   0.00000  Uiso   1.00
N365   N     0.29113   0.38758   0.26050   0.00000  Uiso   1.00
N366   N     0.31061   0.02122   0.53746   0.00000  Uiso   1.00
N367   N     0.06243   0.44371   0.62635   0.00000  Uiso   1.00
N368   N     0.16982   0.33328   0.25301   0.00000  Uiso   1.00
