data_job_05468
_audit_creation_date              2018-12-19
_audit_creation_method            'Materials Studio'
_symmetry_space_group_name_H-M    'P1'
_symmetry_Int_Tables_number       1
_symmetry_cell_setting            triclinic
loop_
_symmetry_equiv_pos_as_xyz
  x,y,z
_cell_length_a                    10.8811
_cell_length_b                    20.6918
_cell_length_c                    10.6240
_cell_angle_alpha                 90.0000
_cell_angle_beta                  90.0000
_cell_angle_gamma                 90.0000
loop_
_atom_site_label
_atom_site_type_symbol
_atom_site_fract_x
_atom_site_fract_y
_atom_site_fract_z
_atom_site_U_iso_or_equiv
_atom_site_adp_type
_atom_site_occupancy
C1     C     0.94403   0.02593   0.40903   0.00000  Uiso   1.00
C2     C     0.01140   0.07090   0.31864   0.00000  Uiso   1.00
C3     C     0.13766   0.07335   0.30082   0.00000  Uiso   1.00
C4     C     0.18132   0.11785   0.21384   0.00000  Uiso   1.00
C5     C     0.29807   0.18153   0.08367   0.00000  Uiso   1.00
C6     C     0.86831   0.06949   0.49499   0.00000  Uiso   1.00
C7     C     0.87426   0.07074   0.62546   0.00000  Uiso   1.00
C8     C     0.79746   0.11405   0.68693   0.00000  Uiso   1.00
C9     C     0.69200   0.17550   0.83057   0.00000  Uiso   1.00
C10    C     0.85166   0.98857   0.32930   0.00000  Uiso   1.00
C11    C     0.84359   0.92179   0.32047   0.00000  Uiso   1.00
C12    C     0.75275   0.89696   0.24245   0.00000  Uiso   1.00
C13    C     0.62144   0.83278   0.12882   0.00000  Uiso   1.00
C14    C     0.79705   0.10059   0.28621   0.00000  Uiso   1.00
C15    C     0.93155   0.11146   0.25193   0.00000  Uiso   1.00
C16    C     0.97504   0.15596   0.16494   0.00000  Uiso   1.00
C17    C     0.10134   0.15848   0.14700   0.00000  Uiso   1.00
C18    C     0.78848   0.11004   0.42829   0.00000  Uiso   1.00
C19    C     0.71164   0.15335   0.48958   0.00000  Uiso   1.00
C20    C     0.71747   0.15468   0.62010   0.00000  Uiso   1.00
C21    C     0.77183   0.02912   0.26258   0.00000  Uiso   1.00
C22    C     0.68097   0.00440   0.18458   0.00000  Uiso   1.00
C23    C     0.67277   0.93759   0.17562   0.00000  Uiso   1.00
H24    H     0.00619   0.99435   0.46097   0.00000  Uiso   1.00
H25    H     0.19941   0.04196   0.35248   0.00000  Uiso   1.00
H26    H     0.93604   0.03935   0.67706   0.00000  Uiso   1.00
H27    H     0.90539   0.89042   0.37210   0.00000  Uiso   1.00
H28    H     0.37844   0.11264   0.20281   0.00000  Uiso   1.00
H29    H     0.82308   0.10712   0.88721   0.00000  Uiso   1.00
H30    H     0.75843   0.79307   0.24416   0.00000  Uiso   1.00
H31    H     0.73488   0.13217   0.23427   0.00000  Uiso   1.00
H32    H     0.91323   0.18734   0.11333   0.00000  Uiso   1.00
H33    H     0.64986   0.18473   0.43792   0.00000  Uiso   1.00
H34    H     0.61921   0.03580   0.13297   0.00000  Uiso   1.00
H35    H     0.14616   0.23064   0.00871   0.00000  Uiso   1.00
H36    H     0.59080   0.22511   0.69312   0.00000  Uiso   1.00
H37    H     0.52615   0.91107   0.05006   0.00000  Uiso   1.00
O38    O     0.38452   0.20546   0.03032   0.00000  Uiso   1.00
O39    O     0.65590   0.19820   0.92824   0.00000  Uiso   1.00
O40    O     0.57108   0.78618   0.08456   0.00000  Uiso   1.00
N41    N     0.29929   0.13283   0.17370   0.00000  Uiso   1.00
N42    N     0.78008   0.12767   0.81358   0.00000  Uiso   1.00
N43    N     0.71962   0.83406   0.21241   0.00000  Uiso   1.00
N44    N     0.17431   0.19633   0.06926   0.00000  Uiso   1.00
N45    N     0.65510   0.19117   0.70914   0.00000  Uiso   1.00
N46    N     0.59463   0.89756   0.10797   0.00000  Uiso   1.00
C47    C     0.05597   0.97407   0.90903   0.00000  Uiso   1.00
C48    C     0.98860   0.92910   0.81864   0.00000  Uiso   1.00
C49    C     0.86234   0.92665   0.80082   0.00000  Uiso   1.00
C50    C     0.81868   0.88215   0.71384   0.00000  Uiso   1.00
C51    C     0.70193   0.81847   0.58367   0.00000  Uiso   1.00
C52    C     0.13169   0.93051   0.99499   0.00000  Uiso   1.00
C53    C     0.12574   0.92926   0.12546   0.00000  Uiso   1.00
C54    C     0.20254   0.88595   0.18693   0.00000  Uiso   1.00
C55    C     0.30800   0.82450   0.33057   0.00000  Uiso   1.00
C56    C     0.14834   0.01143   0.82930   0.00000  Uiso   1.00
C57    C     0.15641   0.07821   0.82047   0.00000  Uiso   1.00
C58    C     0.24725   0.10304   0.74245   0.00000  Uiso   1.00
C59    C     0.37856   0.16722   0.62882   0.00000  Uiso   1.00
C60    C     0.20295   0.89941   0.78621   0.00000  Uiso   1.00
C61    C     0.06845   0.88854   0.75193   0.00000  Uiso   1.00
C62    C     0.02496   0.84404   0.66494   0.00000  Uiso   1.00
C63    C     0.89866   0.84152   0.64700   0.00000  Uiso   1.00
C64    C     0.21152   0.88996   0.92829   0.00000  Uiso   1.00
C65    C     0.28836   0.84665   0.98958   0.00000  Uiso   1.00
C66    C     0.28253   0.84532   0.12010   0.00000  Uiso   1.00
C67    C     0.22817   0.97088   0.76258   0.00000  Uiso   1.00
C68    C     0.31903   0.99560   0.68458   0.00000  Uiso   1.00
C69    C     0.32723   0.06241   0.67562   0.00000  Uiso   1.00
H70    H     0.99381   0.00565   0.96097   0.00000  Uiso   1.00
H71    H     0.80059   0.95804   0.85248   0.00000  Uiso   1.00
H72    H     0.06396   0.96065   0.17706   0.00000  Uiso   1.00
H73    H     0.09461   0.10958   0.87210   0.00000  Uiso   1.00
H74    H     0.62156   0.88736   0.70281   0.00000  Uiso   1.00
H75    H     0.17692   0.89288   0.38721   0.00000  Uiso   1.00
H76    H     0.24157   0.20693   0.74416   0.00000  Uiso   1.00
H77    H     0.26512   0.86783   0.73427   0.00000  Uiso   1.00
H78    H     0.08677   0.81266   0.61333   0.00000  Uiso   1.00
H79    H     0.35014   0.81527   0.93792   0.00000  Uiso   1.00
H80    H     0.38079   0.96420   0.63297   0.00000  Uiso   1.00
H81    H     0.85384   0.76936   0.50871   0.00000  Uiso   1.00
H82    H     0.40920   0.77489   0.19312   0.00000  Uiso   1.00
H83    H     0.47385   0.08893   0.55006   0.00000  Uiso   1.00
O84    O     0.61548   0.79454   0.53032   0.00000  Uiso   1.00
O85    O     0.34410   0.80180   0.42824   0.00000  Uiso   1.00
O86    O     0.42892   0.21382   0.58456   0.00000  Uiso   1.00
N87    N     0.70071   0.86717   0.67370   0.00000  Uiso   1.00
N88    N     0.21992   0.87233   0.31358   0.00000  Uiso   1.00
N89    N     0.28038   0.16594   0.71241   0.00000  Uiso   1.00
N90    N     0.82569   0.80367   0.56926   0.00000  Uiso   1.00
N91    N     0.34490   0.80883   0.20914   0.00000  Uiso   1.00
N92    N     0.40537   0.10244   0.60797   0.00000  Uiso   1.00
C93    C     0.44403   0.47407   0.40903   0.00000  Uiso   1.00
C94    C     0.51140   0.42910   0.31864   0.00000  Uiso   1.00
C95    C     0.63766   0.42665   0.30082   0.00000  Uiso   1.00
C96    C     0.68132   0.38215   0.21384   0.00000  Uiso   1.00
C97    C     0.79807   0.31847   0.08367   0.00000  Uiso   1.00
C98    C     0.36831   0.43051   0.49499   0.00000  Uiso   1.00
C99    C     0.37426   0.42926   0.62546   0.00000  Uiso   1.00
C100   C     0.29746   0.38595   0.68693   0.00000  Uiso   1.00
C101   C     0.19200   0.32450   0.83057   0.00000  Uiso   1.00
C102   C     0.35166   0.51143   0.32930   0.00000  Uiso   1.00
C103   C     0.34359   0.57821   0.32047   0.00000  Uiso   1.00
C104   C     0.25275   0.60304   0.24245   0.00000  Uiso   1.00
C105   C     0.12144   0.66722   0.12882   0.00000  Uiso   1.00
C106   C     0.29705   0.39941   0.28621   0.00000  Uiso   1.00
C107   C     0.43155   0.38854   0.25193   0.00000  Uiso   1.00
C108   C     0.47504   0.34404   0.16494   0.00000  Uiso   1.00
C109   C     0.60134   0.34152   0.14700   0.00000  Uiso   1.00
C110   C     0.28848   0.38996   0.42829   0.00000  Uiso   1.00
C111   C     0.21164   0.34665   0.48958   0.00000  Uiso   1.00
C112   C     0.21747   0.34532   0.62010   0.00000  Uiso   1.00
C113   C     0.27183   0.47088   0.26258   0.00000  Uiso   1.00
C114   C     0.18097   0.49560   0.18458   0.00000  Uiso   1.00
C115   C     0.17277   0.56241   0.17562   0.00000  Uiso   1.00
H116   H     0.50619   0.50565   0.46097   0.00000  Uiso   1.00
H117   H     0.69941   0.45804   0.35248   0.00000  Uiso   1.00
H118   H     0.43604   0.46065   0.67706   0.00000  Uiso   1.00
H119   H     0.40539   0.60958   0.37210   0.00000  Uiso   1.00
H120   H     0.87844   0.38736   0.20281   0.00000  Uiso   1.00
H121   H     0.32308   0.39288   0.88721   0.00000  Uiso   1.00
H122   H     0.25843   0.70693   0.24416   0.00000  Uiso   1.00
H123   H     0.23488   0.36783   0.23427   0.00000  Uiso   1.00
H124   H     0.41323   0.31266   0.11333   0.00000  Uiso   1.00
H125   H     0.14986   0.31527   0.43792   0.00000  Uiso   1.00
H126   H     0.11921   0.46420   0.13297   0.00000  Uiso   1.00
H127   H     0.64616   0.26936   0.00871   0.00000  Uiso   1.00
H128   H     0.09080   0.27489   0.69312   0.00000  Uiso   1.00
H129   H     0.02615   0.58893   0.05006   0.00000  Uiso   1.00
O130   O     0.88452   0.29454   0.03032   0.00000  Uiso   1.00
O131   O     0.15590   0.30180   0.92824   0.00000  Uiso   1.00
O132   O     0.07108   0.71382   0.08456   0.00000  Uiso   1.00
N133   N     0.79929   0.36717   0.17370   0.00000  Uiso   1.00
N134   N     0.28008   0.37233   0.81358   0.00000  Uiso   1.00
N135   N     0.21962   0.66594   0.21241   0.00000  Uiso   1.00
N136   N     0.67431   0.30367   0.06926   0.00000  Uiso   1.00
N137   N     0.15510   0.30883   0.70914   0.00000  Uiso   1.00
N138   N     0.09463   0.60244   0.10797   0.00000  Uiso   1.00
C139   C     0.55597   0.52593   0.90903   0.00000  Uiso   1.00
C140   C     0.48860   0.57090   0.81864   0.00000  Uiso   1.00
C141   C     0.36234   0.57335   0.80082   0.00000  Uiso   1.00
C142   C     0.31868   0.61785   0.71384   0.00000  Uiso   1.00
C143   C     0.20193   0.68153   0.58367   0.00000  Uiso   1.00
C144   C     0.63169   0.56949   0.99499   0.00000  Uiso   1.00
C145   C     0.62574   0.57074   0.12546   0.00000  Uiso   1.00
C146   C     0.70254   0.61405   0.18693   0.00000  Uiso   1.00
C147   C     0.80800   0.67550   0.33057   0.00000  Uiso   1.00
C148   C     0.64834   0.48857   0.82930   0.00000  Uiso   1.00
C149   C     0.65641   0.42179   0.82047   0.00000  Uiso   1.00
C150   C     0.74725   0.39696   0.74245   0.00000  Uiso   1.00
C151   C     0.87856   0.33278   0.62882   0.00000  Uiso   1.00
C152   C     0.70295   0.60059   0.78621   0.00000  Uiso   1.00
C153   C     0.56845   0.61146   0.75193   0.00000  Uiso   1.00
C154   C     0.52496   0.65596   0.66494   0.00000  Uiso   1.00
C155   C     0.39866   0.65848   0.64700   0.00000  Uiso   1.00
C156   C     0.71152   0.61004   0.92829   0.00000  Uiso   1.00
C157   C     0.78836   0.65335   0.98958   0.00000  Uiso   1.00
C158   C     0.78253   0.65468   0.12010   0.00000  Uiso   1.00
C159   C     0.72817   0.52912   0.76258   0.00000  Uiso   1.00
C160   C     0.81903   0.50440   0.68458   0.00000  Uiso   1.00
C161   C     0.82723   0.43759   0.67562   0.00000  Uiso   1.00
H162   H     0.49381   0.49435   0.96097   0.00000  Uiso   1.00
H163   H     0.30059   0.54196   0.85248   0.00000  Uiso   1.00
H164   H     0.56396   0.53935   0.17706   0.00000  Uiso   1.00
H165   H     0.59461   0.39042   0.87210   0.00000  Uiso   1.00
H166   H     0.12156   0.61264   0.70281   0.00000  Uiso   1.00
H167   H     0.67692   0.60712   0.38721   0.00000  Uiso   1.00
H168   H     0.74157   0.29307   0.74416   0.00000  Uiso   1.00
H169   H     0.76512   0.63217   0.73427   0.00000  Uiso   1.00
H170   H     0.58677   0.68734   0.61333   0.00000  Uiso   1.00
H171   H     0.85014   0.68473   0.93792   0.00000  Uiso   1.00
H172   H     0.88079   0.53580   0.63297   0.00000  Uiso   1.00
H173   H     0.35384   0.73064   0.50871   0.00000  Uiso   1.00
H174   H     0.90920   0.72511   0.19312   0.00000  Uiso   1.00
H175   H     0.97385   0.41107   0.55006   0.00000  Uiso   1.00
O176   O     0.11548   0.70546   0.53032   0.00000  Uiso   1.00
O177   O     0.84410   0.69820   0.42824   0.00000  Uiso   1.00
O178   O     0.92892   0.28618   0.58456   0.00000  Uiso   1.00
N179   N     0.20071   0.63283   0.67370   0.00000  Uiso   1.00
N180   N     0.71992   0.62767   0.31358   0.00000  Uiso   1.00
N181   N     0.78038   0.33406   0.71241   0.00000  Uiso   1.00
N182   N     0.32569   0.69633   0.56926   0.00000  Uiso   1.00
N183   N     0.84490   0.69117   0.20914   0.00000  Uiso   1.00
N184   N     0.90537   0.39756   0.60797   0.00000  Uiso   1.00
