data_job_05997
_audit_creation_date              2018-12-19
_audit_creation_method            'Materials Studio'
_symmetry_space_group_name_H-M    'P1'
_symmetry_Int_Tables_number       1
_symmetry_cell_setting            triclinic
loop_
_symmetry_equiv_pos_as_xyz
  x,y,z
_cell_length_a                    15.7066
_cell_length_b                    15.7186
_cell_length_c                    16.7166
_cell_angle_alpha                 109.4654
_cell_angle_beta                  110.6580
_cell_angle_gamma                 103.1842
loop_
_atom_site_label
_atom_site_type_symbol
_atom_site_fract_x
_atom_site_fract_y
_atom_site_fract_z
_atom_site_U_iso_or_equiv
_atom_site_adp_type
_atom_site_occupancy
C1     C     0.47350   0.85073   0.35354   0.00000  Uiso   1.00
C2     C     0.57011   0.86689   0.43370   0.00000  Uiso   1.00
C3     C     0.61981   0.94336   0.52617   0.00000  Uiso   1.00
C4     C     0.70706   0.94519   0.58896   0.00000  Uiso   1.00
C5     C     0.85160   0.98128   0.71779   0.00000  Uiso   1.00
C6     C     0.49445   0.84645   0.27019   0.00000  Uiso   1.00
C7     C     0.48052   0.90573   0.22518   0.00000  Uiso   1.00
C8     C     0.50407   0.89034   0.15030   0.00000  Uiso   1.00
C9     C     0.53108   0.89465   0.02523   0.00000  Uiso   1.00
C10    C     0.40157   0.74789   0.32044   0.00000  Uiso   1.00
C11    C     0.30952   0.72428   0.31765   0.00000  Uiso   1.00
C12    C     0.25487   0.62591   0.28506   0.00000  Uiso   1.00
C13    C     0.13767   0.47719   0.23802   0.00000  Uiso   1.00
C14    C     0.54008   0.71800   0.30059   0.00000  Uiso   1.00
C15    C     0.60628   0.79480   0.40494   0.00000  Uiso   1.00
C16    C     0.69348   0.79651   0.46760   0.00000  Uiso   1.00
C17    C     0.74330   0.87297   0.56015   0.00000  Uiso   1.00
C18    C     0.53062   0.77436   0.24143   0.00000  Uiso   1.00
C19    C     0.55419   0.75888   0.16660   0.00000  Uiso   1.00
C20    C     0.54031   0.81812   0.12149   0.00000  Uiso   1.00
C21    C     0.43773   0.67580   0.29168   0.00000  Uiso   1.00
C22    C     0.38321   0.57744   0.25908   0.00000  Uiso   1.00
C23    C     0.29110   0.55369   0.25625   0.00000  Uiso   1.00
H24    H     0.44534   0.90685   0.37592   0.00000  Uiso   1.00
H25    H     0.59179   0.99914   0.54840   0.00000  Uiso   1.00
H26    H     0.45252   0.96150   0.24744   0.00000  Uiso   1.00
H27    H     0.28156   0.78009   0.33991   0.00000  Uiso   1.00
H28    H     0.77014   0.06968   0.72693   0.00000  Uiso   1.00
H29    H     0.47644   0.99030   0.09232   0.00000  Uiso   1.00
H30    H     0.11593   0.60776   0.28731   0.00000  Uiso   1.00
H31    H     0.56824   0.66187   0.27820   0.00000  Uiso   1.00
H32    H     0.72145   0.74071   0.44532   0.00000  Uiso   1.00
H33    H     0.58217   0.70308   0.14436   0.00000  Uiso   1.00
H34    H     0.41122   0.52167   0.23684   0.00000  Uiso   1.00
H35    H     0.87538   0.85994   0.64327   0.00000  Uiso   1.00
H36    H     0.58167   0.78056   0.00866   0.00000  Uiso   1.00
H37    H     0.22117   0.39801   0.20365   0.00000  Uiso   1.00
O38    O     0.92135   0.02111   0.79679   0.00000  Uiso   1.00
O39    O     0.53599   0.91696   0.96420   0.00000  Uiso   1.00
O40    O     0.06303   0.41507   0.22003   0.00000  Uiso   1.00
N41    N     0.77388   0.00949   0.68431   0.00000  Uiso   1.00
N42    N     0.49929   0.93528   0.09100   0.00000  Uiso   1.00
N43    N     0.16224   0.57763   0.27327   0.00000  Uiso   1.00
N44    N     0.83050   0.89662   0.63929   0.00000  Uiso   1.00
N45    N     0.55592   0.82242   0.04598   0.00000  Uiso   1.00
N46    N     0.21887   0.46477   0.22826   0.00000  Uiso   1.00
C47    C     0.87509   0.36524   0.51413   0.00000  Uiso   1.00
C48    C     0.86968   0.29226   0.42349   0.00000  Uiso   1.00
C49    C     0.91044   0.31597   0.36856   0.00000  Uiso   1.00
C50    C     0.89738   0.23859   0.28825   0.00000  Uiso   1.00
C51    C     0.89684   0.14011   0.15119   0.00000  Uiso   1.00
C52    C     0.76840   0.34395   0.49563   0.00000  Uiso   1.00
C53    C     0.72401   0.41114   0.50137   0.00000  Uiso   1.00
C54    C     0.62568   0.37726   0.48179   0.00000  Uiso   1.00
C55    C     0.46792   0.35906   0.45680   0.00000  Uiso   1.00
C56    C     0.92161   0.33642   0.59247   0.00000  Uiso   1.00
C57    C     0.00604   0.39728   0.67966   0.00000  Uiso   1.00
C58    C     0.03670   0.35707   0.74163   0.00000  Uiso   1.00
C59    C     0.11684   0.32717   0.86700   0.00000  Uiso   1.00
C60    C     0.77941   0.18563   0.46918   0.00000  Uiso   1.00
C61    C     0.81771   0.19470   0.39907   0.00000  Uiso   1.00
C62    C     0.80458   0.11725   0.31882   0.00000  Uiso   1.00
C63    C     0.84532   0.14085   0.26379   0.00000  Uiso   1.00
C64    C     0.71642   0.24640   0.47121   0.00000  Uiso   1.00
C65    C     0.61815   0.21242   0.45163   0.00000  Uiso   1.00
C66    C     0.57362   0.27953   0.45733   0.00000  Uiso   1.00
C67    C     0.86965   0.23886   0.56805   0.00000  Uiso   1.00
C68    C     0.90018   0.19855   0.62991   0.00000  Uiso   1.00
C69    C     0.98464   0.25933   0.71716   0.00000  Uiso   1.00
H70    H     0.91555   0.44119   0.53315   0.00000  Uiso   1.00
H71    H     0.95065   0.39148   0.38748   0.00000  Uiso   1.00
H72    H     0.76424   0.48663   0.52028   0.00000  Uiso   1.00
H73    H     0.04624   0.47277   0.69853   0.00000  Uiso   1.00
H74    H     0.96662   0.29335   0.21520   0.00000  Uiso   1.00
H75    H     0.57358   0.49398   0.49523   0.00000  Uiso   1.00
H76    H     0.16822   0.46475   0.87111   0.00000  Uiso   1.00
H77    H     0.73894   0.10967   0.45017   0.00000  Uiso   1.00
H78    H     0.76436   0.04177   0.29994   0.00000  Uiso   1.00
H79    H     0.57795   0.13692   0.43274   0.00000  Uiso   1.00
H80    H     0.85994   0.12305   0.61099   0.00000  Uiso   1.00
H81    H     0.81541   0.00951   0.14414   0.00000  Uiso   1.00
H82    H     0.42238   0.21014   0.42419   0.00000  Uiso   1.00
H83    H     0.01701   0.18091   0.80006   0.00000  Uiso   1.00
O84    O     0.91089   0.11275   0.08233   0.00000  Uiso   1.00
O85    O     0.39526   0.37597   0.44975   0.00000  Uiso   1.00
O86    O     0.17540   0.33762   0.94289   0.00000  Uiso   1.00
N87    N     0.92756   0.23587   0.21910   0.00000  Uiso   1.00
N88    N     0.56009   0.42344   0.48090   0.00000  Uiso   1.00
N89    N     0.11601   0.39612   0.83233   0.00000  Uiso   1.00
N90    N     0.84620   0.08313   0.18087   0.00000  Uiso   1.00
N91    N     0.47873   0.27071   0.44267   0.00000  Uiso   1.00
N92    N     0.03465   0.24339   0.79410   0.00000  Uiso   1.00
C93    C     0.64140   0.50140   0.12935   0.00000  Uiso   1.00
C94    C     0.56177   0.44122   0.14327   0.00000  Uiso   1.00
C95    C     0.46278   0.42726   0.10319   0.00000  Uiso   1.00
C96    C     0.40176   0.36974   0.12463   0.00000  Uiso   1.00
C97    C     0.27254   0.28273   0.13725   0.00000  Uiso   1.00
C98    C     0.72211   0.57773   0.22972   0.00000  Uiso   1.00
C99    C     0.75794   0.67855   0.26231   0.00000  Uiso   1.00
C100   C     0.83190   0.73594   0.35652   0.00000  Uiso   1.00
C101   C     0.95167   0.86086   0.50332   0.00000  Uiso   1.00
C102   C     0.68667   0.43227   0.09001   0.00000  Uiso   1.00
C103   C     0.69273   0.41080   0.00515   0.00000  Uiso   1.00
C104   C     0.73688   0.34574   0.98175   0.00000  Uiso   1.00
C105   C     0.80162   0.24480   0.91165   0.00000  Uiso   1.00
C106   C     0.70906   0.42408   0.23870   0.00000  Uiso   1.00
C107   C     0.59853   0.39922   0.20267   0.00000  Uiso   1.00
C108   C     0.53764   0.34171   0.22418   0.00000  Uiso   1.00
C109   C     0.43857   0.32766   0.18413   0.00000  Uiso   1.00
C110   C     0.75886   0.53574   0.28911   0.00000  Uiso   1.00
C111   C     0.83279   0.59299   0.38329   0.00000  Uiso   1.00
C112   C     0.86872   0.69387   0.41602   0.00000  Uiso   1.00
C113   C     0.72342   0.39027   0.14941   0.00000  Uiso   1.00
C114   C     0.76758   0.32524   0.12614   0.00000  Uiso   1.00
C115   C     0.77370   0.30367   0.04126   0.00000  Uiso   1.00
H116   H     0.61279   0.53411   0.08311   0.00000  Uiso   1.00
H117   H     0.43437   0.45978   0.05723   0.00000  Uiso   1.00
H118   H     0.72949   0.71103   0.21632   0.00000  Uiso   1.00
H119   H     0.66428   0.44331   0.95921   0.00000  Uiso   1.00
H120   H     0.25277   0.35889   0.05476   0.00000  Uiso   1.00
H121   H     0.87507   0.88865   0.39020   0.00000  Uiso   1.00
H122   H     0.73758   0.32413   0.84803   0.00000  Uiso   1.00
H123   H     0.73767   0.39138   0.28495   0.00000  Uiso   1.00
H124   H     0.56610   0.30922   0.27014   0.00000  Uiso   1.00
H125   H     0.86122   0.56047   0.42923   0.00000  Uiso   1.00
H126   H     0.79601   0.29275   0.17212   0.00000  Uiso   1.00
H127   H     0.35969   0.23669   0.22757   0.00000  Uiso   1.00
H128   H     0.98199   0.76645   0.56301   0.00000  Uiso   1.00
H129   H     0.84449   0.20193   0.02083   0.00000  Uiso   1.00
O130   O     0.19112   0.24634   0.12781   0.00000  Uiso   1.00
O131   O     0.00756   0.94137   0.56788   0.00000  Uiso   1.00
O132   O     0.82717   0.20072   0.85656   0.00000  Uiso   1.00
N133   N     0.30148   0.34139   0.09745   0.00000  Uiso   1.00
N134   N     0.88328   0.83668   0.41107   0.00000  Uiso   1.00
N135   N     0.75476   0.30892   0.90419   0.00000  Uiso   1.00
N136   N     0.35901   0.27563   0.19044   0.00000  Uiso   1.00
N137   N     0.94081   0.77093   0.50406   0.00000  Uiso   1.00
N138   N     0.81229   0.24317   0.99718   0.00000  Uiso   1.00
C139   C     0.52650   0.14927   0.64646   0.00000  Uiso   1.00
C140   C     0.42989   0.13311   0.56630   0.00000  Uiso   1.00
C141   C     0.38019   0.05664   0.47382   0.00000  Uiso   1.00
C142   C     0.29293   0.05481   0.41104   0.00000  Uiso   1.00
C143   C     0.14840   0.01872   0.28221   0.00000  Uiso   1.00
C144   C     0.50555   0.15355   0.72981   0.00000  Uiso   1.00
C145   C     0.51948   0.09427   0.77482   0.00000  Uiso   1.00
C146   C     0.49593   0.10966   0.84970   0.00000  Uiso   1.00
C147   C     0.46892   0.10535   0.97477   0.00000  Uiso   1.00
C148   C     0.59843   0.25211   0.67956   0.00000  Uiso   1.00
C149   C     0.69047   0.27572   0.68235   0.00000  Uiso   1.00
C150   C     0.74513   0.37409   0.71493   0.00000  Uiso   1.00
C151   C     0.86233   0.52281   0.76198   0.00000  Uiso   1.00
C152   C     0.45992   0.28200   0.69941   0.00000  Uiso   1.00
C153   C     0.39372   0.20520   0.59506   0.00000  Uiso   1.00
C154   C     0.30652   0.20349   0.53240   0.00000  Uiso   1.00
C155   C     0.25670   0.12703   0.43985   0.00000  Uiso   1.00
C156   C     0.46938   0.22564   0.75857   0.00000  Uiso   1.00
C157   C     0.44581   0.24112   0.83340   0.00000  Uiso   1.00
C158   C     0.45969   0.18188   0.87851   0.00000  Uiso   1.00
C159   C     0.56226   0.32420   0.70832   0.00000  Uiso   1.00
C160   C     0.61679   0.42256   0.74092   0.00000  Uiso   1.00
C161   C     0.70890   0.44631   0.74375   0.00000  Uiso   1.00
H162   H     0.55466   0.09315   0.62408   0.00000  Uiso   1.00
H163   H     0.40820   0.00086   0.45160   0.00000  Uiso   1.00
H164   H     0.54748   0.03850   0.75256   0.00000  Uiso   1.00
H165   H     0.71844   0.21991   0.66009   0.00000  Uiso   1.00
H166   H     0.22986   0.93032   0.27307   0.00000  Uiso   1.00
H167   H     0.52356   0.00970   0.90767   0.00000  Uiso   1.00
H168   H     0.88407   0.39224   0.71269   0.00000  Uiso   1.00
H169   H     0.43176   0.33813   0.72180   0.00000  Uiso   1.00
H170   H     0.27855   0.25929   0.55468   0.00000  Uiso   1.00
H171   H     0.41782   0.29692   0.85564   0.00000  Uiso   1.00
H172   H     0.58878   0.47833   0.76316   0.00000  Uiso   1.00
H173   H     0.12462   0.14006   0.35673   0.00000  Uiso   1.00
H174   H     0.41833   0.21944   0.99134   0.00000  Uiso   1.00
H175   H     0.77883   0.60198   0.79635   0.00000  Uiso   1.00
O176   O     0.07865   0.97889   0.20321   0.00000  Uiso   1.00
O177   O     0.46401   0.08304   0.03580   0.00000  Uiso   1.00
O178   O     0.93697   0.58493   0.77997   0.00000  Uiso   1.00
N179   N     0.22612   0.99051   0.31569   0.00000  Uiso   1.00
N180   N     0.50071   0.06472   0.90900   0.00000  Uiso   1.00
N181   N     0.83776   0.42237   0.72672   0.00000  Uiso   1.00
N182   N     0.16950   0.10338   0.36071   0.00000  Uiso   1.00
N183   N     0.44408   0.17758   0.95401   0.00000  Uiso   1.00
N184   N     0.78113   0.53523   0.77174   0.00000  Uiso   1.00
C185   C     0.12491   0.63476   0.48587   0.00000  Uiso   1.00
C186   C     0.13032   0.70774   0.57651   0.00000  Uiso   1.00
C187   C     0.08956   0.68402   0.63144   0.00000  Uiso   1.00
C188   C     0.10262   0.76141   0.71175   0.00000  Uiso   1.00
C189   C     0.10316   0.85989   0.84881   0.00000  Uiso   1.00
C190   C     0.23160   0.65605   0.50437   0.00000  Uiso   1.00
C191   C     0.27599   0.58886   0.49863   0.00000  Uiso   1.00
C192   C     0.37432   0.62274   0.51821   0.00000  Uiso   1.00
C193   C     0.53208   0.64094   0.54320   0.00000  Uiso   1.00
C194   C     0.07838   0.66358   0.40753   0.00000  Uiso   1.00
C195   C     0.99396   0.60272   0.32034   0.00000  Uiso   1.00
C196   C     0.96330   0.64293   0.25837   0.00000  Uiso   1.00
C197   C     0.88316   0.67283   0.13300   0.00000  Uiso   1.00
C198   C     0.22059   0.81437   0.53082   0.00000  Uiso   1.00
C199   C     0.18229   0.80530   0.60093   0.00000  Uiso   1.00
C200   C     0.19542   0.88274   0.68118   0.00000  Uiso   1.00
C201   C     0.15468   0.85915   0.73621   0.00000  Uiso   1.00
C202   C     0.28357   0.75360   0.52879   0.00000  Uiso   1.00
C203   C     0.38185   0.78758   0.54837   0.00000  Uiso   1.00
C204   C     0.42638   0.72047   0.54267   0.00000  Uiso   1.00
C205   C     0.13035   0.76114   0.43195   0.00000  Uiso   1.00
C206   C     0.09982   0.80145   0.37009   0.00000  Uiso   1.00
C207   C     0.01536   0.74067   0.28284   0.00000  Uiso   1.00
H208   H     0.08445   0.55881   0.46685   0.00000  Uiso   1.00
H209   H     0.04935   0.60851   0.61252   0.00000  Uiso   1.00
H210   H     0.23575   0.51337   0.47972   0.00000  Uiso   1.00
H211   H     0.95376   0.52723   0.30147   0.00000  Uiso   1.00
H212   H     0.03338   0.70665   0.78480   0.00000  Uiso   1.00
H213   H     0.42641   0.50602   0.50477   0.00000  Uiso   1.00
H214   H     0.83178   0.53525   0.12889   0.00000  Uiso   1.00
H215   H     0.26106   0.89033   0.54983   0.00000  Uiso   1.00
H216   H     0.23564   0.95823   0.70006   0.00000  Uiso   1.00
H217   H     0.42205   0.86308   0.56726   0.00000  Uiso   1.00
H218   H     0.14006   0.87695   0.38901   0.00000  Uiso   1.00
H219   H     0.18459   0.99049   0.85586   0.00000  Uiso   1.00
H220   H     0.57762   0.78986   0.57581   0.00000  Uiso   1.00
H221   H     0.98299   0.81909   0.19994   0.00000  Uiso   1.00
O222   O     0.08911   0.88725   0.91767   0.00000  Uiso   1.00
O223   O     0.60474   0.62403   0.55025   0.00000  Uiso   1.00
O224   O     0.82460   0.66238   0.05711   0.00000  Uiso   1.00
N225   N     0.07244   0.76413   0.78090   0.00000  Uiso   1.00
N226   N     0.43991   0.57656   0.51910   0.00000  Uiso   1.00
N227   N     0.88399   0.60388   0.16767   0.00000  Uiso   1.00
N228   N     0.15380   0.91687   0.81913   0.00000  Uiso   1.00
N229   N     0.52127   0.72929   0.55733   0.00000  Uiso   1.00
N230   N     0.96535   0.75661   0.20590   0.00000  Uiso   1.00
C231   C     0.35860   0.49860   0.87065   0.00000  Uiso   1.00
C232   C     0.43823   0.55878   0.85673   0.00000  Uiso   1.00
C233   C     0.53722   0.57274   0.89681   0.00000  Uiso   1.00
C234   C     0.59824   0.63026   0.87537   0.00000  Uiso   1.00
C235   C     0.72746   0.71727   0.86275   0.00000  Uiso   1.00
C236   C     0.27789   0.42227   0.77028   0.00000  Uiso   1.00
C237   C     0.24206   0.32145   0.73769   0.00000  Uiso   1.00
C238   C     0.16810   0.26406   0.64348   0.00000  Uiso   1.00
C239   C     0.04833   0.13914   0.49668   0.00000  Uiso   1.00
C240   C     0.31333   0.56773   0.90999   0.00000  Uiso   1.00
C241   C     0.30727   0.58920   0.99485   0.00000  Uiso   1.00
C242   C     0.26312   0.65426   0.01825   0.00000  Uiso   1.00
C243   C     0.19838   0.75519   0.08835   0.00000  Uiso   1.00
C244   C     0.29094   0.57592   0.76129   0.00000  Uiso   1.00
C245   C     0.40147   0.60078   0.79733   0.00000  Uiso   1.00
C246   C     0.46236   0.65829   0.77582   0.00000  Uiso   1.00
C247   C     0.56143   0.67234   0.81587   0.00000  Uiso   1.00
C248   C     0.24114   0.46426   0.71089   0.00000  Uiso   1.00
C249   C     0.16720   0.40700   0.61671   0.00000  Uiso   1.00
C250   C     0.13128   0.30613   0.58398   0.00000  Uiso   1.00
C251   C     0.27658   0.60973   0.85059   0.00000  Uiso   1.00
C252   C     0.23242   0.67476   0.87386   0.00000  Uiso   1.00
C253   C     0.22630   0.69633   0.95874   0.00000  Uiso   1.00
H254   H     0.38721   0.46589   0.91689   0.00000  Uiso   1.00
H255   H     0.56563   0.54022   0.94277   0.00000  Uiso   1.00
H256   H     0.27051   0.28897   0.78368   0.00000  Uiso   1.00
H257   H     0.33572   0.55669   0.04079   0.00000  Uiso   1.00
H258   H     0.74723   0.64111   0.94523   0.00000  Uiso   1.00
H259   H     0.12493   0.11135   0.60980   0.00000  Uiso   1.00
H260   H     0.26242   0.67587   0.15197   0.00000  Uiso   1.00
H261   H     0.26233   0.60862   0.71505   0.00000  Uiso   1.00
H262   H     0.43390   0.69078   0.72986   0.00000  Uiso   1.00
H263   H     0.13878   0.43953   0.57076   0.00000  Uiso   1.00
H264   H     0.20399   0.70725   0.82788   0.00000  Uiso   1.00
H265   H     0.64031   0.76331   0.77243   0.00000  Uiso   1.00
H266   H     0.01801   0.23355   0.43699   0.00000  Uiso   1.00
H267   H     0.15551   0.79807   0.97916   0.00000  Uiso   1.00
O268   O     0.80888   0.75365   0.87218   0.00000  Uiso   1.00
O269   O     0.99244   0.05863   0.43212   0.00000  Uiso   1.00
O270   O     0.17283   0.79928   0.14344   0.00000  Uiso   1.00
N271   N     0.69852   0.65861   0.90255   0.00000  Uiso   1.00
N272   N     0.11672   0.16332   0.58893   0.00000  Uiso   1.00
N273   N     0.24524   0.69108   0.09581   0.00000  Uiso   1.00
N274   N     0.64099   0.72437   0.80956   0.00000  Uiso   1.00
N275   N     0.05919   0.22907   0.49594   0.00000  Uiso   1.00
N276   N     0.18771   0.75683   0.00282   0.00000  Uiso   1.00
