data_job_05646
_audit_creation_date              2018-12-19
_audit_creation_method            'Materials Studio'
_symmetry_space_group_name_H-M    'P1'
_symmetry_Int_Tables_number       1
_symmetry_cell_setting            triclinic
loop_
_symmetry_equiv_pos_as_xyz
  x,y,z
_cell_length_a                    18.1090
_cell_length_b                    18.1090
_cell_length_c                    13.4945
_cell_angle_alpha                 90.0000
_cell_angle_beta                  90.0000
_cell_angle_gamma                 120.0000
loop_
_atom_site_label
_atom_site_type_symbol
_atom_site_fract_x
_atom_site_fract_y
_atom_site_fract_z
_atom_site_U_iso_or_equiv
_atom_site_adp_type
_atom_site_occupancy
C1     C     0.53368   0.45444   0.68213   0.00000  Uiso   1.00
C2     C     0.62724   0.50678   0.71202   0.00000  Uiso   1.00
C3     C     0.69647   0.52495   0.65190   0.00000  Uiso   1.00
C4     C     0.77700   0.57384   0.69304   0.00000  Uiso   1.00
C5     C     0.92062   0.65057   0.72459   0.00000  Uiso   1.00
C6     C     0.49200   0.38233   0.75756   0.00000  Uiso   1.00
C7     C     0.44751   0.29586   0.73573   0.00000  Uiso   1.00
C8     C     0.41419   0.23999   0.81522   0.00000  Uiso   1.00
C9     C     0.34779   0.12351   0.91747   0.00000  Uiso   1.00
C10    C     0.49545   0.51156   0.70016   0.00000  Uiso   1.00
C11    C     0.45384   0.53375   0.63008   0.00000  Uiso   1.00
C12    C     0.42340   0.58668   0.66124   0.00000  Uiso   1.00
C13    C     0.36236   0.67086   0.67437   0.00000  Uiso   1.00
C14    C     0.55357   0.50896   0.86211   0.00000  Uiso   1.00
C15    C     0.63804   0.53639   0.80978   0.00000  Uiso   1.00
C16    C     0.71848   0.58528   0.85102   0.00000  Uiso   1.00
C17    C     0.78782   0.60352   0.79097   0.00000  Uiso   1.00
C18    C     0.50280   0.41194   0.85532   0.00000  Uiso   1.00
C19    C     0.46952   0.35619   0.93486   0.00000  Uiso   1.00
C20    C     0.42501   0.26966   0.91316   0.00000  Uiso   1.00
C21    C     0.50625   0.54118   0.79792   0.00000  Uiso   1.00
C22    C     0.47586   0.59408   0.82920   0.00000  Uiso   1.00
C23    C     0.43422   0.61634   0.75918   0.00000  Uiso   1.00
H24    H     0.52527   0.43137   0.60603   0.00000  Uiso   1.00
H25    H     0.68808   0.50201   0.57625   0.00000  Uiso   1.00
H26    H     0.43916   0.27296   0.66008   0.00000  Uiso   1.00
H27    H     0.44549   0.51082   0.55444   0.00000  Uiso   1.00
H28    H     0.87336   0.59336   0.58636   0.00000  Uiso   1.00
H29    H     0.34846   0.11040   0.76311   0.00000  Uiso   1.00
H30    H     0.36182   0.61196   0.54034   0.00000  Uiso   1.00
H31    H     0.56198   0.53202   0.93822   0.00000  Uiso   1.00
H32    H     0.72682   0.60819   0.92667   0.00000  Uiso   1.00
H33    H     0.47789   0.37913   0.01050   0.00000  Uiso   1.00
H34    H     0.48423   0.61699   0.90485   0.00000  Uiso   1.00
H35    H     0.90480   0.67953   0.87078   0.00000  Uiso   1.00
H36    H     0.37990   0.19657   0.04752   0.00000  Uiso   1.00
H37    H     0.39326   0.69813   0.82475   0.00000  Uiso   1.00
O38    O     0.99685   0.68471   0.71499   0.00000  Uiso   1.00
O39    O     0.30819   0.05108   0.94687   0.00000  Uiso   1.00
O40    O     0.32572   0.70912   0.65460   0.00000  Uiso   1.00
N41    N     0.85814   0.60320   0.65488   0.00000  Uiso   1.00
N42    N     0.36740   0.15166   0.82012   0.00000  Uiso   1.00
N43    N     0.37987   0.62056   0.61186   0.00000  Uiso   1.00
N44    N     0.87506   0.64957   0.80792   0.00000  Uiso   1.00
N45    N     0.38432   0.19803   0.97316   0.00000  Uiso   1.00
N46    N     0.39679   0.66693   0.76490   0.00000  Uiso   1.00
C47    C     0.54556   0.07924   0.34880   0.00000  Uiso   1.00
C48    C     0.49322   0.12046   0.37868   0.00000  Uiso   1.00
C49    C     0.47505   0.17152   0.31857   0.00000  Uiso   1.00
C50    C     0.42616   0.20315   0.35971   0.00000  Uiso   1.00
C51    C     0.34943   0.27004   0.39126   0.00000  Uiso   1.00
C52    C     0.61767   0.10967   0.42423   0.00000  Uiso   1.00
C53    C     0.70414   0.15165   0.40240   0.00000  Uiso   1.00
C54    C     0.76001   0.17419   0.48189   0.00000  Uiso   1.00
C55    C     0.87649   0.22428   0.58414   0.00000  Uiso   1.00
C56    C     0.48844   0.98388   0.36683   0.00000  Uiso   1.00
C57    C     0.46625   0.92010   0.29674   0.00000  Uiso   1.00
C58    C     0.41332   0.83673   0.32791   0.00000  Uiso   1.00
C59    C     0.32914   0.69150   0.34103   0.00000  Uiso   1.00
C60    C     0.49104   0.04461   0.52878   0.00000  Uiso   1.00
C61    C     0.46361   0.10164   0.47644   0.00000  Uiso   1.00
C62    C     0.41472   0.13320   0.51769   0.00000  Uiso   1.00
C63    C     0.39648   0.18431   0.45764   0.00000  Uiso   1.00
C64    C     0.58806   0.09086   0.52198   0.00000  Uiso   1.00
C65    C     0.64381   0.11333   0.60152   0.00000  Uiso   1.00
C66    C     0.73034   0.15535   0.57982   0.00000  Uiso   1.00
C67    C     0.45882   0.96507   0.46458   0.00000  Uiso   1.00
C68    C     0.40592   0.88178   0.49587   0.00000  Uiso   1.00
C69    C     0.38366   0.81788   0.42584   0.00000  Uiso   1.00
H70    H     0.56863   0.09389   0.27270   0.00000  Uiso   1.00
H71    H     0.49799   0.18607   0.24292   0.00000  Uiso   1.00
H72    H     0.72704   0.16620   0.32674   0.00000  Uiso   1.00
H73    H     0.48918   0.93468   0.22110   0.00000  Uiso   1.00
H74    H     0.40664   0.28000   0.25303   0.00000  Uiso   1.00
H75    H     0.88960   0.23807   0.42977   0.00000  Uiso   1.00
H76    H     0.38804   0.74986   0.20701   0.00000  Uiso   1.00
H77    H     0.46798   0.02996   0.60489   0.00000  Uiso   1.00
H78    H     0.39181   0.11863   0.59334   0.00000  Uiso   1.00
H79    H     0.62087   0.09876   0.67716   0.00000  Uiso   1.00
H80    H     0.38301   0.86724   0.57152   0.00000  Uiso   1.00
H81    H     0.32047   0.22527   0.53745   0.00000  Uiso   1.00
H82    H     0.80343   0.18333   0.71419   0.00000  Uiso   1.00
H83    H     0.30187   0.69513   0.49142   0.00000  Uiso   1.00
O84    O     0.31529   0.31214   0.38166   0.00000  Uiso   1.00
O85    O     0.94892   0.25711   0.61353   0.00000  Uiso   1.00
O86    O     0.29088   0.61660   0.32127   0.00000  Uiso   1.00
N87    N     0.39680   0.25494   0.32155   0.00000  Uiso   1.00
N88    N     0.84834   0.21574   0.48679   0.00000  Uiso   1.00
N89    N     0.37944   0.75931   0.27853   0.00000  Uiso   1.00
N90    N     0.35043   0.22548   0.47459   0.00000  Uiso   1.00
N91    N     0.80197   0.18629   0.63983   0.00000  Uiso   1.00
N92    N     0.33307   0.72986   0.43157   0.00000  Uiso   1.00
C93    C     0.92076   0.46632   0.01547   0.00000  Uiso   1.00
C94    C     0.87954   0.37276   0.04535   0.00000  Uiso   1.00
C95    C     0.82848   0.30353   0.98523   0.00000  Uiso   1.00
C96    C     0.79685   0.22300   0.02638   0.00000  Uiso   1.00
C97    C     0.72996   0.07938   0.05792   0.00000  Uiso   1.00
C98    C     0.89033   0.50800   0.09090   0.00000  Uiso   1.00
C99    C     0.84835   0.55249   0.06907   0.00000  Uiso   1.00
C100   C     0.82581   0.58581   0.14856   0.00000  Uiso   1.00
C101   C     0.77572   0.65221   0.25081   0.00000  Uiso   1.00
C102   C     0.01612   0.50455   0.03349   0.00000  Uiso   1.00
C103   C     0.07990   0.54616   0.96341   0.00000  Uiso   1.00
C104   C     0.16327   0.57660   0.99458   0.00000  Uiso   1.00
C105   C     0.30850   0.63764   0.00770   0.00000  Uiso   1.00
C106   C     0.95539   0.44643   0.19544   0.00000  Uiso   1.00
C107   C     0.89836   0.36196   0.14311   0.00000  Uiso   1.00
C108   C     0.86680   0.28152   0.18436   0.00000  Uiso   1.00
C109   C     0.81569   0.21218   0.12431   0.00000  Uiso   1.00
C110   C     0.90914   0.49720   0.18865   0.00000  Uiso   1.00
C111   C     0.88667   0.53048   0.26819   0.00000  Uiso   1.00
C112   C     0.84465   0.57499   0.24649   0.00000  Uiso   1.00
C113   C     0.03493   0.49375   0.13125   0.00000  Uiso   1.00
C114   C     0.11822   0.52414   0.16253   0.00000  Uiso   1.00
C115   C     0.18212   0.56578   0.09251   0.00000  Uiso   1.00
H116   H     0.90611   0.47473   0.93936   0.00000  Uiso   1.00
H117   H     0.81393   0.31192   0.90959   0.00000  Uiso   1.00
H118   H     0.83380   0.56084   0.99341   0.00000  Uiso   1.00
H119   H     0.06532   0.55451   0.88777   0.00000  Uiso   1.00
H120   H     0.72000   0.12664   0.91970   0.00000  Uiso   1.00
H121   H     0.76193   0.65154   0.09644   0.00000  Uiso   1.00
H122   H     0.25014   0.63818   0.87367   0.00000  Uiso   1.00
H123   H     0.97004   0.43802   0.27156   0.00000  Uiso   1.00
H124   H     0.88137   0.27318   0.26001   0.00000  Uiso   1.00
H125   H     0.90124   0.52211   0.34383   0.00000  Uiso   1.00
H126   H     0.13276   0.51577   0.23819   0.00000  Uiso   1.00
H127   H     0.77473   0.09520   0.20411   0.00000  Uiso   1.00
H128   H     0.81667   0.62010   0.38085   0.00000  Uiso   1.00
H129   H     0.30487   0.60674   0.15809   0.00000  Uiso   1.00
O130   O     0.68786   0.00315   0.04832   0.00000  Uiso   1.00
O131   O     0.74289   0.69181   0.28020   0.00000  Uiso   1.00
O132   O     0.38340   0.67428   0.98793   0.00000  Uiso   1.00
N133   N     0.74506   0.14186   0.98821   0.00000  Uiso   1.00
N134   N     0.78426   0.63260   0.15346   0.00000  Uiso   1.00
N135   N     0.24069   0.62013   0.94519   0.00000  Uiso   1.00
N136   N     0.77452   0.12494   0.14125   0.00000  Uiso   1.00
N137   N     0.81371   0.61568   0.30650   0.00000  Uiso   1.00
N138   N     0.27014   0.60321   0.09824   0.00000  Uiso   1.00
C139   C     0.45444   0.53368   0.31787   0.00000  Uiso   1.00
C140   C     0.50678   0.62724   0.28798   0.00000  Uiso   1.00
C141   C     0.52495   0.69647   0.34810   0.00000  Uiso   1.00
C142   C     0.57384   0.77700   0.30696   0.00000  Uiso   1.00
C143   C     0.65057   0.92062   0.27541   0.00000  Uiso   1.00
C144   C     0.38233   0.49200   0.24244   0.00000  Uiso   1.00
C145   C     0.29586   0.44751   0.26427   0.00000  Uiso   1.00
C146   C     0.23999   0.41419   0.18478   0.00000  Uiso   1.00
C147   C     0.12351   0.34779   0.08253   0.00000  Uiso   1.00
C148   C     0.51156   0.49545   0.29984   0.00000  Uiso   1.00
C149   C     0.53375   0.45384   0.36992   0.00000  Uiso   1.00
C150   C     0.58668   0.42340   0.33876   0.00000  Uiso   1.00
C151   C     0.67086   0.36236   0.32563   0.00000  Uiso   1.00
C152   C     0.50896   0.55357   0.13789   0.00000  Uiso   1.00
C153   C     0.53639   0.63804   0.19022   0.00000  Uiso   1.00
C154   C     0.58528   0.71848   0.14898   0.00000  Uiso   1.00
C155   C     0.60352   0.78782   0.20903   0.00000  Uiso   1.00
C156   C     0.41194   0.50280   0.14468   0.00000  Uiso   1.00
C157   C     0.35619   0.46952   0.06514   0.00000  Uiso   1.00
C158   C     0.26966   0.42501   0.08684   0.00000  Uiso   1.00
C159   C     0.54118   0.50625   0.20208   0.00000  Uiso   1.00
C160   C     0.59408   0.47586   0.17080   0.00000  Uiso   1.00
C161   C     0.61634   0.43422   0.24082   0.00000  Uiso   1.00
H162   H     0.43137   0.52527   0.39397   0.00000  Uiso   1.00
H163   H     0.50201   0.68808   0.42375   0.00000  Uiso   1.00
H164   H     0.27296   0.43916   0.33992   0.00000  Uiso   1.00
H165   H     0.51082   0.44549   0.44556   0.00000  Uiso   1.00
H166   H     0.59336   0.87336   0.41364   0.00000  Uiso   1.00
H167   H     0.11040   0.34846   0.23689   0.00000  Uiso   1.00
H168   H     0.61196   0.36182   0.45966   0.00000  Uiso   1.00
H169   H     0.53202   0.56198   0.06178   0.00000  Uiso   1.00
H170   H     0.60819   0.72682   0.07333   0.00000  Uiso   1.00
H171   H     0.37913   0.47789   0.98950   0.00000  Uiso   1.00
H172   H     0.61699   0.48423   0.09515   0.00000  Uiso   1.00
H173   H     0.67953   0.90480   0.12922   0.00000  Uiso   1.00
H174   H     0.19657   0.37990   0.95248   0.00000  Uiso   1.00
H175   H     0.69813   0.39326   0.17525   0.00000  Uiso   1.00
O176   O     0.68471   0.99685   0.28501   0.00000  Uiso   1.00
O177   O     0.05108   0.30819   0.05313   0.00000  Uiso   1.00
O178   O     0.70912   0.32572   0.34540   0.00000  Uiso   1.00
N179   N     0.60320   0.85814   0.34512   0.00000  Uiso   1.00
N180   N     0.15166   0.36740   0.17988   0.00000  Uiso   1.00
N181   N     0.62056   0.37987   0.38814   0.00000  Uiso   1.00
N182   N     0.64957   0.87506   0.19208   0.00000  Uiso   1.00
N183   N     0.19803   0.38432   0.02684   0.00000  Uiso   1.00
N184   N     0.66693   0.39679   0.23510   0.00000  Uiso   1.00
C185   C     0.07924   0.54556   0.65120   0.00000  Uiso   1.00
C186   C     0.12046   0.49322   0.62132   0.00000  Uiso   1.00
C187   C     0.17152   0.47505   0.68143   0.00000  Uiso   1.00
C188   C     0.20315   0.42616   0.64029   0.00000  Uiso   1.00
C189   C     0.27004   0.34943   0.60874   0.00000  Uiso   1.00
C190   C     0.10967   0.61767   0.57577   0.00000  Uiso   1.00
C191   C     0.15165   0.70414   0.59760   0.00000  Uiso   1.00
C192   C     0.17419   0.76001   0.51811   0.00000  Uiso   1.00
C193   C     0.22428   0.87649   0.41586   0.00000  Uiso   1.00
C194   C     0.98388   0.48844   0.63317   0.00000  Uiso   1.00
C195   C     0.92010   0.46625   0.70326   0.00000  Uiso   1.00
C196   C     0.83673   0.41332   0.67209   0.00000  Uiso   1.00
C197   C     0.69150   0.32914   0.65897   0.00000  Uiso   1.00
C198   C     0.04461   0.49104   0.47122   0.00000  Uiso   1.00
C199   C     0.10164   0.46361   0.52356   0.00000  Uiso   1.00
C200   C     0.13320   0.41472   0.48231   0.00000  Uiso   1.00
C201   C     0.18431   0.39648   0.54236   0.00000  Uiso   1.00
C202   C     0.09086   0.58806   0.47802   0.00000  Uiso   1.00
C203   C     0.11333   0.64381   0.39848   0.00000  Uiso   1.00
C204   C     0.15535   0.73034   0.42018   0.00000  Uiso   1.00
C205   C     0.96507   0.45882   0.53542   0.00000  Uiso   1.00
C206   C     0.88178   0.40592   0.50413   0.00000  Uiso   1.00
C207   C     0.81788   0.38366   0.57416   0.00000  Uiso   1.00
H208   H     0.09389   0.56863   0.72730   0.00000  Uiso   1.00
H209   H     0.18607   0.49799   0.75708   0.00000  Uiso   1.00
H210   H     0.16620   0.72704   0.67326   0.00000  Uiso   1.00
H211   H     0.93468   0.48918   0.77890   0.00000  Uiso   1.00
H212   H     0.28000   0.40664   0.74697   0.00000  Uiso   1.00
H213   H     0.23807   0.88960   0.57023   0.00000  Uiso   1.00
H214   H     0.74986   0.38804   0.79299   0.00000  Uiso   1.00
H215   H     0.02996   0.46798   0.39511   0.00000  Uiso   1.00
H216   H     0.11863   0.39181   0.40666   0.00000  Uiso   1.00
H217   H     0.09876   0.62087   0.32284   0.00000  Uiso   1.00
H218   H     0.86724   0.38301   0.42848   0.00000  Uiso   1.00
H219   H     0.22527   0.32047   0.46255   0.00000  Uiso   1.00
H220   H     0.18333   0.80343   0.28581   0.00000  Uiso   1.00
H221   H     0.69513   0.30187   0.50858   0.00000  Uiso   1.00
O222   O     0.31214   0.31529   0.61834   0.00000  Uiso   1.00
O223   O     0.25711   0.94892   0.38647   0.00000  Uiso   1.00
O224   O     0.61660   0.29088   0.67873   0.00000  Uiso   1.00
N225   N     0.25494   0.39680   0.67845   0.00000  Uiso   1.00
N226   N     0.21574   0.84834   0.51321   0.00000  Uiso   1.00
N227   N     0.75931   0.37944   0.72147   0.00000  Uiso   1.00
N228   N     0.22548   0.35043   0.52541   0.00000  Uiso   1.00
N229   N     0.18629   0.80197   0.36017   0.00000  Uiso   1.00
N230   N     0.72986   0.33307   0.56843   0.00000  Uiso   1.00
C231   C     0.46632   0.92076   0.98453   0.00000  Uiso   1.00
C232   C     0.37276   0.87954   0.95465   0.00000  Uiso   1.00
C233   C     0.30353   0.82848   0.01477   0.00000  Uiso   1.00
C234   C     0.22300   0.79685   0.97362   0.00000  Uiso   1.00
C235   C     0.07938   0.72996   0.94208   0.00000  Uiso   1.00
C236   C     0.50800   0.89033   0.90910   0.00000  Uiso   1.00
C237   C     0.55249   0.84835   0.93093   0.00000  Uiso   1.00
C238   C     0.58581   0.82581   0.85144   0.00000  Uiso   1.00
C239   C     0.65221   0.77572   0.74919   0.00000  Uiso   1.00
C240   C     0.50455   0.01612   0.96651   0.00000  Uiso   1.00
C241   C     0.54616   0.07990   0.03659   0.00000  Uiso   1.00
C242   C     0.57660   0.16327   0.00542   0.00000  Uiso   1.00
C243   C     0.63764   0.30850   0.99230   0.00000  Uiso   1.00
C244   C     0.44643   0.95539   0.80456   0.00000  Uiso   1.00
C245   C     0.36196   0.89836   0.85689   0.00000  Uiso   1.00
C246   C     0.28152   0.86680   0.81564   0.00000  Uiso   1.00
C247   C     0.21218   0.81569   0.87569   0.00000  Uiso   1.00
C248   C     0.49720   0.90914   0.81135   0.00000  Uiso   1.00
C249   C     0.53048   0.88667   0.73181   0.00000  Uiso   1.00
C250   C     0.57499   0.84465   0.75351   0.00000  Uiso   1.00
C251   C     0.49375   0.03493   0.86875   0.00000  Uiso   1.00
C252   C     0.52414   0.11822   0.83747   0.00000  Uiso   1.00
C253   C     0.56578   0.18212   0.90749   0.00000  Uiso   1.00
H254   H     0.47473   0.90611   0.06064   0.00000  Uiso   1.00
H255   H     0.31192   0.81393   0.09041   0.00000  Uiso   1.00
H256   H     0.56084   0.83380   0.00659   0.00000  Uiso   1.00
H257   H     0.55451   0.06532   0.11223   0.00000  Uiso   1.00
H258   H     0.12664   0.72000   0.08030   0.00000  Uiso   1.00
H259   H     0.65154   0.76193   0.90356   0.00000  Uiso   1.00
H260   H     0.63818   0.25014   0.12633   0.00000  Uiso   1.00
H261   H     0.43802   0.97004   0.72844   0.00000  Uiso   1.00
H262   H     0.27318   0.88137   0.73999   0.00000  Uiso   1.00
H263   H     0.52211   0.90124   0.65617   0.00000  Uiso   1.00
H264   H     0.51577   0.13276   0.76181   0.00000  Uiso   1.00
H265   H     0.09520   0.77473   0.79589   0.00000  Uiso   1.00
H266   H     0.62010   0.81667   0.61915   0.00000  Uiso   1.00
H267   H     0.60674   0.30487   0.84191   0.00000  Uiso   1.00
O268   O     0.00315   0.68786   0.95168   0.00000  Uiso   1.00
O269   O     0.69181   0.74289   0.71980   0.00000  Uiso   1.00
O270   O     0.67428   0.38340   0.01207   0.00000  Uiso   1.00
N271   N     0.14186   0.74506   0.01179   0.00000  Uiso   1.00
N272   N     0.63260   0.78426   0.84654   0.00000  Uiso   1.00
N273   N     0.62013   0.24069   0.05481   0.00000  Uiso   1.00
N274   N     0.12494   0.77452   0.85875   0.00000  Uiso   1.00
N275   N     0.61568   0.81371   0.69350   0.00000  Uiso   1.00
N276   N     0.60321   0.27014   0.90176   0.00000  Uiso   1.00
