data_job_00746
_audit_creation_date              2018-12-19
_audit_creation_method            'Materials Studio'
_symmetry_space_group_name_H-M    'P1'
_symmetry_Int_Tables_number       1
_symmetry_cell_setting            triclinic
loop_
_symmetry_equiv_pos_as_xyz
  x,y,z
_cell_length_a                    12.3371
_cell_length_b                    12.4890
_cell_length_c                    14.0848
_cell_angle_alpha                 76.7146
_cell_angle_beta                  104.4799
_cell_angle_gamma                 73.3760
loop_
_atom_site_label
_atom_site_type_symbol
_atom_site_fract_x
_atom_site_fract_y
_atom_site_fract_z
_atom_site_U_iso_or_equiv
_atom_site_adp_type
_atom_site_occupancy
C1     C     0.91276   0.72847   0.08056   0.00000  Uiso   1.00
C2     C     0.85262   0.85519   0.07663   0.00000  Uiso   1.00
C3     C     0.80859   0.95494   0.98968   0.00000  Uiso   1.00
C4     C     0.75676   0.06289   0.00206   0.00000  Uiso   1.00
C5     C     0.66457   0.25847   0.98138   0.00000  Uiso   1.00
C6     C     0.03565   0.68052   0.16511   0.00000  Uiso   1.00
C7     C     0.14552   0.63341   0.15255   0.00000  Uiso   1.00
C8     C     0.24776   0.59431   0.23942   0.00000  Uiso   1.00
C9     C     0.43973   0.51864   0.35612   0.00000  Uiso   1.00
C10    C     0.84058   0.65953   0.12097   0.00000  Uiso   1.00
C11    C     0.78644   0.59473   0.07130   0.00000  Uiso   1.00
C12    C     0.72446   0.53794   0.12102   0.00000  Uiso   1.00
C13    C     0.61355   0.42968   0.16919   0.00000  Uiso   1.00
C14    C     0.89899   0.74281   0.25717   0.00000  Uiso   1.00
C15    C     0.84514   0.86297   0.17256   0.00000  Uiso   1.00
C16    C     0.79336   0.97080   0.18508   0.00000  Uiso   1.00
C17    C     0.74926   0.07070   0.09816   0.00000  Uiso   1.00
C18    C     0.02818   0.68831   0.26104   0.00000  Uiso   1.00
C19    C     0.13028   0.64927   0.34795   0.00000  Uiso   1.00
C20    C     0.24027   0.60211   0.33552   0.00000  Uiso   1.00
C21    C     0.83309   0.66732   0.21690   0.00000  Uiso   1.00
C22    C     0.77120   0.61061   0.26670   0.00000  Uiso   1.00
C23    C     0.71697   0.54574   0.21713   0.00000  Uiso   1.00
H24    H     0.91859   0.72241   0.00588   0.00000  Uiso   1.00
H25    H     0.81441   0.94888   0.91545   0.00000  Uiso   1.00
H26    H     0.15128   0.62738   0.07830   0.00000  Uiso   1.00
H27    H     0.79225   0.58873   0.99707   0.00000  Uiso   1.00
H28    H     0.69565   0.20340   0.85752   0.00000  Uiso   1.00
H29    H     0.40595   0.52547   0.20090   0.00000  Uiso   1.00
H30    H     0.64887   0.44395   0.02961   0.00000  Uiso   1.00
H31    H     0.89317   0.74887   0.33186   0.00000  Uiso   1.00
H32    H     0.78758   0.97680   0.25932   0.00000  Uiso   1.00
H33    H     0.12446   0.65531   0.42217   0.00000  Uiso   1.00
H34    H     0.76543   0.61665   0.34094   0.00000  Uiso   1.00
H35    H     0.67388   0.22607   0.13662   0.00000  Uiso   1.00
H36    H     0.38419   0.54813   0.48000   0.00000  Uiso   1.00
H37    H     0.62711   0.46662   0.30871   0.00000  Uiso   1.00
O38    O     0.61580   0.36420   0.94348   0.00000  Uiso   1.00
O39    O     0.54769   0.47476   0.39399   0.00000  Uiso   1.00
O40    O     0.55442   0.36782   0.16925   0.00000  Uiso   1.00
N41    N     0.70499   0.17745   0.93315   0.00000  Uiso   1.00
N42    N     0.36909   0.54365   0.25419   0.00000  Uiso   1.00
N43    N     0.66131   0.46741   0.09406   0.00000  Uiso   1.00
N44    N     0.69328   0.18965   0.08333   0.00000  Uiso   1.00
N45    N     0.35737   0.55585   0.40437   0.00000  Uiso   1.00
N46    N     0.64959   0.47961   0.24424   0.00000  Uiso   1.00
C47    C     0.08724   0.27153   0.91944   0.00000  Uiso   1.00
C48    C     0.14738   0.14481   0.92337   0.00000  Uiso   1.00
C49    C     0.19141   0.04506   0.01032   0.00000  Uiso   1.00
C50    C     0.24324   0.93711   0.99794   0.00000  Uiso   1.00
C51    C     0.33543   0.74153   0.01862   0.00000  Uiso   1.00
C52    C     0.96435   0.31948   0.83489   0.00000  Uiso   1.00
C53    C     0.85448   0.36659   0.84745   0.00000  Uiso   1.00
C54    C     0.75224   0.40569   0.76058   0.00000  Uiso   1.00
C55    C     0.56027   0.48136   0.64388   0.00000  Uiso   1.00
C56    C     0.15942   0.34047   0.87903   0.00000  Uiso   1.00
C57    C     0.21356   0.40527   0.92870   0.00000  Uiso   1.00
C58    C     0.27554   0.46206   0.87898   0.00000  Uiso   1.00
C59    C     0.38645   0.57032   0.83081   0.00000  Uiso   1.00
C60    C     0.10101   0.25719   0.74283   0.00000  Uiso   1.00
C61    C     0.15486   0.13703   0.82744   0.00000  Uiso   1.00
C62    C     0.20664   0.02920   0.81492   0.00000  Uiso   1.00
C63    C     0.25074   0.92930   0.90184   0.00000  Uiso   1.00
C64    C     0.97182   0.31169   0.73896   0.00000  Uiso   1.00
C65    C     0.86972   0.35073   0.65205   0.00000  Uiso   1.00
C66    C     0.75973   0.39789   0.66448   0.00000  Uiso   1.00
C67    C     0.16691   0.33268   0.78310   0.00000  Uiso   1.00
C68    C     0.22880   0.38939   0.73330   0.00000  Uiso   1.00
C69    C     0.28303   0.45426   0.78287   0.00000  Uiso   1.00
H70    H     0.08141   0.27759   0.99412   0.00000  Uiso   1.00
H71    H     0.18559   0.05112   0.08455   0.00000  Uiso   1.00
H72    H     0.84872   0.37262   0.92170   0.00000  Uiso   1.00
H73    H     0.20775   0.41127   0.00293   0.00000  Uiso   1.00
H74    H     0.30435   0.79660   0.14248   0.00000  Uiso   1.00
H75    H     0.59405   0.47453   0.79910   0.00000  Uiso   1.00
H76    H     0.35113   0.55605   0.97039   0.00000  Uiso   1.00
H77    H     0.10683   0.25113   0.66814   0.00000  Uiso   1.00
H78    H     0.21242   0.02320   0.74068   0.00000  Uiso   1.00
H79    H     0.87554   0.34469   0.57783   0.00000  Uiso   1.00
H80    H     0.23457   0.38335   0.65906   0.00000  Uiso   1.00
H81    H     0.32612   0.77393   0.86338   0.00000  Uiso   1.00
H82    H     0.61581   0.45187   0.52000   0.00000  Uiso   1.00
H83    H     0.37289   0.53338   0.69129   0.00000  Uiso   1.00
O84    O     0.38420   0.63580   0.05652   0.00000  Uiso   1.00
O85    O     0.45231   0.52524   0.60601   0.00000  Uiso   1.00
O86    O     0.44558   0.63218   0.83075   0.00000  Uiso   1.00
N87    N     0.29501   0.82255   0.06685   0.00000  Uiso   1.00
N88    N     0.63091   0.45635   0.74581   0.00000  Uiso   1.00
N89    N     0.33869   0.53259   0.90594   0.00000  Uiso   1.00
N90    N     0.30672   0.81035   0.91667   0.00000  Uiso   1.00
N91    N     0.64263   0.44415   0.59563   0.00000  Uiso   1.00
N92    N     0.35041   0.52039   0.75576   0.00000  Uiso   1.00
