data_job_00743
_audit_creation_date              2018-12-19
_audit_creation_method            'Materials Studio'
_symmetry_space_group_name_H-M    'P1'
_symmetry_Int_Tables_number       1
_symmetry_cell_setting            triclinic
loop_
_symmetry_equiv_pos_as_xyz
  x,y,z
_cell_length_a                    28.2880
_cell_length_b                    12.3577
_cell_length_c                    13.5572
_cell_angle_alpha                 90.0000
_cell_angle_beta                  90.0000
_cell_angle_gamma                 90.0000
loop_
_atom_site_label
_atom_site_type_symbol
_atom_site_fract_x
_atom_site_fract_y
_atom_site_fract_z
_atom_site_U_iso_or_equiv
_atom_site_adp_type
_atom_site_occupancy
C1     C     0.63529   0.00581   0.46272   0.00000  Uiso   1.00
C2     C     0.68587   0.97171   0.43935   0.00000  Uiso   1.00
C3     C     0.72583   0.00144   0.49216   0.00000  Uiso   1.00
C4     C     0.76890   0.96180   0.45889   0.00000  Uiso   1.00
C5     C     0.84700   0.91908   0.43521   0.00000  Uiso   1.00
C6     C     0.61650   0.05999   0.36957   0.00000  Uiso   1.00
C7     C     0.59814   0.16393   0.36372   0.00000  Uiso   1.00
C8     C     0.58280   0.19859   0.27171   0.00000  Uiso   1.00
C9     C     0.55317   0.29289   0.13972   0.00000  Uiso   1.00
C10    C     0.60720   0.90127   0.47438   0.00000  Uiso   1.00
C11    C     0.58100   0.87178   0.55665   0.00000  Uiso   1.00
C12    C     0.55783   0.77282   0.55286   0.00000  Uiso   1.00
C13    C     0.51375   0.62069   0.58360   0.00000  Uiso   1.00
C14    C     0.64070   0.88254   0.30970   0.00000  Uiso   1.00
C15    C     0.68881   0.90476   0.35623   0.00000  Uiso   1.00
C16    C     0.73182   0.86506   0.32287   0.00000  Uiso   1.00
C17    C     0.77185   0.89472   0.37563   0.00000  Uiso   1.00
C18    C     0.61944   0.99303   0.28646   0.00000  Uiso   1.00
C19    C     0.60413   0.02755   0.19443   0.00000  Uiso   1.00
C20    C     0.58575   0.13152   0.18845   0.00000  Uiso   1.00
C21    C     0.61014   0.83431   0.39126   0.00000  Uiso   1.00
C22    C     0.58699   0.73539   0.38735   0.00000  Uiso   1.00
C23    C     0.56077   0.70574   0.46960   0.00000  Uiso   1.00
H24    H     0.63299   0.05795   0.52742   0.00000  Uiso   1.00
H25    H     0.72354   0.05327   0.55647   0.00000  Uiso   1.00
H26    H     0.59586   0.21573   0.42806   0.00000  Uiso   1.00
H27    H     0.57873   0.92361   0.62095   0.00000  Uiso   1.00
H28    H     0.82523   0.01859   0.55201   0.00000  Uiso   1.00
H29    H     0.55600   0.36112   0.28124   0.00000  Uiso   1.00
H30    H     0.51987   0.74515   0.68799   0.00000  Uiso   1.00
H31    H     0.64299   0.83041   0.24499   0.00000  Uiso   1.00
H32    H     0.73409   0.81324   0.25855   0.00000  Uiso   1.00
H33    H     0.60641   0.97570   0.13013   0.00000  Uiso   1.00
H34    H     0.58928   0.68359   0.32302   0.00000  Uiso   1.00
H35    H     0.83379   0.82378   0.31020   0.00000  Uiso   1.00
H36    H     0.56455   0.16632   0.03943   0.00000  Uiso   1.00
H37    H     0.52843   0.55034   0.44618   0.00000  Uiso   1.00
O38    O     0.88926   0.91403   0.44510   0.00000  Uiso   1.00
O39    O     0.53602   0.36341   0.08987   0.00000  Uiso   1.00
O40    O     0.48864   0.55527   0.62352   0.00000  Uiso   1.00
N41    N     0.81475   0.97508   0.49325   0.00000  Uiso   1.00
N42    N     0.56303   0.29534   0.24010   0.00000  Uiso   1.00
N43    N     0.52925   0.71947   0.62037   0.00000  Uiso   1.00
N44    N     0.81935   0.87025   0.36314   0.00000  Uiso   1.00
N45    N     0.56763   0.19051   0.10998   0.00000  Uiso   1.00
N46    N     0.53385   0.61464   0.49025   0.00000  Uiso   1.00
C47    C     0.86471   0.99419   0.96272   0.00000  Uiso   1.00
C48    C     0.81413   0.02829   0.93935   0.00000  Uiso   1.00
C49    C     0.77417   0.99856   0.99216   0.00000  Uiso   1.00
C50    C     0.73110   0.03820   0.95889   0.00000  Uiso   1.00
C51    C     0.65300   0.08092   0.93521   0.00000  Uiso   1.00
C52    C     0.88350   0.94001   0.86957   0.00000  Uiso   1.00
C53    C     0.90186   0.83607   0.86372   0.00000  Uiso   1.00
C54    C     0.91720   0.80141   0.77171   0.00000  Uiso   1.00
C55    C     0.94683   0.70711   0.63972   0.00000  Uiso   1.00
C56    C     0.89280   0.09873   0.97438   0.00000  Uiso   1.00
C57    C     0.91900   0.12822   0.05665   0.00000  Uiso   1.00
C58    C     0.94217   0.22718   0.05286   0.00000  Uiso   1.00
C59    C     0.98625   0.37931   0.08360   0.00000  Uiso   1.00
C60    C     0.85930   0.11746   0.80970   0.00000  Uiso   1.00
C61    C     0.81119   0.09524   0.85623   0.00000  Uiso   1.00
C62    C     0.76818   0.13494   0.82287   0.00000  Uiso   1.00
C63    C     0.72815   0.10528   0.87563   0.00000  Uiso   1.00
C64    C     0.88056   0.00697   0.78646   0.00000  Uiso   1.00
C65    C     0.89587   0.97246   0.69443   0.00000  Uiso   1.00
C66    C     0.91425   0.86848   0.68845   0.00000  Uiso   1.00
C67    C     0.88986   0.16569   0.89126   0.00000  Uiso   1.00
C68    C     0.91301   0.26461   0.88735   0.00000  Uiso   1.00
C69    C     0.93923   0.29426   0.96960   0.00000  Uiso   1.00
H70    H     0.86701   0.94205   0.02742   0.00000  Uiso   1.00
H71    H     0.77646   0.94673   0.05647   0.00000  Uiso   1.00
H72    H     0.90414   0.78427   0.92806   0.00000  Uiso   1.00
H73    H     0.92127   0.07639   0.12095   0.00000  Uiso   1.00
H74    H     0.67477   0.98141   0.05201   0.00000  Uiso   1.00
H75    H     0.94400   0.63888   0.78124   0.00000  Uiso   1.00
H76    H     0.98013   0.25485   0.18799   0.00000  Uiso   1.00
H77    H     0.85701   0.16959   0.74499   0.00000  Uiso   1.00
H78    H     0.76591   0.18676   0.75855   0.00000  Uiso   1.00
H79    H     0.89359   0.02430   0.63013   0.00000  Uiso   1.00
H80    H     0.91072   0.31641   0.82302   0.00000  Uiso   1.00
H81    H     0.66621   0.17622   0.81020   0.00000  Uiso   1.00
H82    H     0.93545   0.83368   0.53943   0.00000  Uiso   1.00
H83    H     0.97157   0.44966   0.94618   0.00000  Uiso   1.00
O84    O     0.61074   0.08597   0.94510   0.00000  Uiso   1.00
O85    O     0.96398   0.63659   0.58987   0.00000  Uiso   1.00
O86    O     0.01136   0.44473   0.12352   0.00000  Uiso   1.00
N87    N     0.68525   0.02492   0.99325   0.00000  Uiso   1.00
N88    N     0.93697   0.70466   0.74010   0.00000  Uiso   1.00
N89    N     0.97075   0.28053   0.12037   0.00000  Uiso   1.00
N90    N     0.68065   0.12975   0.86314   0.00000  Uiso   1.00
N91    N     0.93237   0.80949   0.60998   0.00000  Uiso   1.00
N92    N     0.96615   0.38536   0.99025   0.00000  Uiso   1.00
C93    C     0.36471   0.50581   0.03728   0.00000  Uiso   1.00
C94    C     0.31413   0.47171   0.06065   0.00000  Uiso   1.00
C95    C     0.27417   0.50144   0.00784   0.00000  Uiso   1.00
C96    C     0.23110   0.46180   0.04111   0.00000  Uiso   1.00
C97    C     0.15300   0.41908   0.06479   0.00000  Uiso   1.00
C98    C     0.38350   0.55999   0.13043   0.00000  Uiso   1.00
C99    C     0.40186   0.66393   0.13628   0.00000  Uiso   1.00
C100   C     0.41720   0.69859   0.22829   0.00000  Uiso   1.00
C101   C     0.44683   0.79289   0.36028   0.00000  Uiso   1.00
C102   C     0.39280   0.40127   0.02562   0.00000  Uiso   1.00
C103   C     0.41900   0.37178   0.94335   0.00000  Uiso   1.00
C104   C     0.44217   0.27282   0.94714   0.00000  Uiso   1.00
C105   C     0.48625   0.12069   0.91640   0.00000  Uiso   1.00
C106   C     0.35930   0.38254   0.19030   0.00000  Uiso   1.00
C107   C     0.31119   0.40476   0.14377   0.00000  Uiso   1.00
C108   C     0.26818   0.36506   0.17713   0.00000  Uiso   1.00
C109   C     0.22815   0.39472   0.12437   0.00000  Uiso   1.00
C110   C     0.38056   0.49303   0.21354   0.00000  Uiso   1.00
C111   C     0.39587   0.52755   0.30557   0.00000  Uiso   1.00
C112   C     0.41425   0.63152   0.31155   0.00000  Uiso   1.00
C113   C     0.38986   0.33431   0.10874   0.00000  Uiso   1.00
C114   C     0.41301   0.23539   0.11265   0.00000  Uiso   1.00
C115   C     0.43923   0.20574   0.03040   0.00000  Uiso   1.00
H116   H     0.36701   0.55795   0.97258   0.00000  Uiso   1.00
H117   H     0.27646   0.55327   0.94353   0.00000  Uiso   1.00
H118   H     0.40414   0.71573   0.07194   0.00000  Uiso   1.00
H119   H     0.42127   0.42361   0.87905   0.00000  Uiso   1.00
H120   H     0.17477   0.51859   0.94799   0.00000  Uiso   1.00
H121   H     0.44400   0.86112   0.21876   0.00000  Uiso   1.00
H122   H     0.48013   0.24515   0.81201   0.00000  Uiso   1.00
H123   H     0.35701   0.33041   0.25501   0.00000  Uiso   1.00
H124   H     0.26591   0.31324   0.24145   0.00000  Uiso   1.00
H125   H     0.39359   0.47570   0.36987   0.00000  Uiso   1.00
H126   H     0.41072   0.18359   0.17698   0.00000  Uiso   1.00
H127   H     0.16621   0.32378   0.18980   0.00000  Uiso   1.00
H128   H     0.43545   0.66632   0.46057   0.00000  Uiso   1.00
H129   H     0.47157   0.05034   0.05382   0.00000  Uiso   1.00
O130   O     0.11074   0.41403   0.05490   0.00000  Uiso   1.00
O131   O     0.46398   0.86341   0.41013   0.00000  Uiso   1.00
O132   O     0.51136   0.05527   0.87648   0.00000  Uiso   1.00
N133   N     0.18525   0.47508   0.00675   0.00000  Uiso   1.00
N134   N     0.43697   0.79534   0.25990   0.00000  Uiso   1.00
N135   N     0.47075   0.21947   0.87963   0.00000  Uiso   1.00
N136   N     0.18065   0.37025   0.13686   0.00000  Uiso   1.00
N137   N     0.43237   0.69051   0.39002   0.00000  Uiso   1.00
N138   N     0.46615   0.11464   0.00975   0.00000  Uiso   1.00
C139   C     0.13529   0.49419   0.53728   0.00000  Uiso   1.00
C140   C     0.18587   0.52829   0.56065   0.00000  Uiso   1.00
C141   C     0.22583   0.49856   0.50784   0.00000  Uiso   1.00
C142   C     0.26890   0.53820   0.54111   0.00000  Uiso   1.00
C143   C     0.34700   0.58092   0.56479   0.00000  Uiso   1.00
C144   C     0.11650   0.44001   0.63043   0.00000  Uiso   1.00
C145   C     0.09814   0.33607   0.63628   0.00000  Uiso   1.00
C146   C     0.08280   0.30141   0.72829   0.00000  Uiso   1.00
C147   C     0.05317   0.20711   0.86028   0.00000  Uiso   1.00
C148   C     0.10720   0.59873   0.52562   0.00000  Uiso   1.00
C149   C     0.08100   0.62822   0.44335   0.00000  Uiso   1.00
C150   C     0.05783   0.72718   0.44714   0.00000  Uiso   1.00
C151   C     0.01375   0.87931   0.41640   0.00000  Uiso   1.00
C152   C     0.14070   0.61746   0.69030   0.00000  Uiso   1.00
C153   C     0.18881   0.59524   0.64377   0.00000  Uiso   1.00
C154   C     0.23182   0.63494   0.67713   0.00000  Uiso   1.00
C155   C     0.27185   0.60528   0.62437   0.00000  Uiso   1.00
C156   C     0.11944   0.50697   0.71354   0.00000  Uiso   1.00
C157   C     0.10413   0.47246   0.80557   0.00000  Uiso   1.00
C158   C     0.08575   0.36848   0.81155   0.00000  Uiso   1.00
C159   C     0.11014   0.66569   0.60874   0.00000  Uiso   1.00
C160   C     0.08699   0.76461   0.61265   0.00000  Uiso   1.00
C161   C     0.06077   0.79426   0.53040   0.00000  Uiso   1.00
H162   H     0.13299   0.44205   0.47258   0.00000  Uiso   1.00
H163   H     0.22354   0.44673   0.44353   0.00000  Uiso   1.00
H164   H     0.09586   0.28427   0.57194   0.00000  Uiso   1.00
H165   H     0.07873   0.57639   0.37905   0.00000  Uiso   1.00
H166   H     0.32523   0.48141   0.44799   0.00000  Uiso   1.00
H167   H     0.05600   0.13888   0.71876   0.00000  Uiso   1.00
H168   H     0.01987   0.75485   0.31201   0.00000  Uiso   1.00
H169   H     0.14299   0.66959   0.75501   0.00000  Uiso   1.00
H170   H     0.23409   0.68676   0.74145   0.00000  Uiso   1.00
H171   H     0.10641   0.52430   0.86987   0.00000  Uiso   1.00
H172   H     0.08928   0.81641   0.67698   0.00000  Uiso   1.00
H173   H     0.33379   0.67622   0.68980   0.00000  Uiso   1.00
H174   H     0.06455   0.33368   0.96057   0.00000  Uiso   1.00
H175   H     0.02843   0.94966   0.55382   0.00000  Uiso   1.00
O176   O     0.38926   0.58597   0.55490   0.00000  Uiso   1.00
O177   O     0.03602   0.13659   0.91013   0.00000  Uiso   1.00
O178   O     0.98864   0.94473   0.37648   0.00000  Uiso   1.00
N179   N     0.31475   0.52492   0.50675   0.00000  Uiso   1.00
N180   N     0.06303   0.20466   0.75990   0.00000  Uiso   1.00
N181   N     0.02925   0.78053   0.37963   0.00000  Uiso   1.00
N182   N     0.31935   0.62975   0.63686   0.00000  Uiso   1.00
N183   N     0.06763   0.30949   0.89002   0.00000  Uiso   1.00
N184   N     0.03385   0.88536   0.50975   0.00000  Uiso   1.00
C185   C     0.36471   0.99419   0.53728   0.00000  Uiso   1.00
C186   C     0.31413   0.02829   0.56065   0.00000  Uiso   1.00
C187   C     0.27417   0.99856   0.50784   0.00000  Uiso   1.00
C188   C     0.23110   0.03820   0.54111   0.00000  Uiso   1.00
C189   C     0.15300   0.08092   0.56479   0.00000  Uiso   1.00
C190   C     0.38350   0.94001   0.63043   0.00000  Uiso   1.00
C191   C     0.40186   0.83607   0.63628   0.00000  Uiso   1.00
C192   C     0.41720   0.80141   0.72829   0.00000  Uiso   1.00
C193   C     0.44683   0.70711   0.86028   0.00000  Uiso   1.00
C194   C     0.39280   0.09873   0.52562   0.00000  Uiso   1.00
C195   C     0.41900   0.12822   0.44335   0.00000  Uiso   1.00
C196   C     0.44217   0.22718   0.44714   0.00000  Uiso   1.00
C197   C     0.48625   0.37931   0.41640   0.00000  Uiso   1.00
C198   C     0.35930   0.11746   0.69030   0.00000  Uiso   1.00
C199   C     0.31119   0.09524   0.64377   0.00000  Uiso   1.00
C200   C     0.26818   0.13494   0.67713   0.00000  Uiso   1.00
C201   C     0.22815   0.10528   0.62437   0.00000  Uiso   1.00
C202   C     0.38056   0.00697   0.71354   0.00000  Uiso   1.00
C203   C     0.39587   0.97246   0.80557   0.00000  Uiso   1.00
C204   C     0.41425   0.86848   0.81155   0.00000  Uiso   1.00
C205   C     0.38986   0.16569   0.60874   0.00000  Uiso   1.00
C206   C     0.41301   0.26461   0.61265   0.00000  Uiso   1.00
C207   C     0.43923   0.29426   0.53040   0.00000  Uiso   1.00
H208   H     0.36701   0.94205   0.47258   0.00000  Uiso   1.00
H209   H     0.27646   0.94673   0.44353   0.00000  Uiso   1.00
H210   H     0.40414   0.78427   0.57194   0.00000  Uiso   1.00
H211   H     0.42127   0.07639   0.37905   0.00000  Uiso   1.00
H212   H     0.17477   0.98141   0.44799   0.00000  Uiso   1.00
H213   H     0.44400   0.63888   0.71876   0.00000  Uiso   1.00
H214   H     0.48013   0.25485   0.31201   0.00000  Uiso   1.00
H215   H     0.35701   0.16959   0.75501   0.00000  Uiso   1.00
H216   H     0.26591   0.18676   0.74145   0.00000  Uiso   1.00
H217   H     0.39359   0.02430   0.86987   0.00000  Uiso   1.00
H218   H     0.41072   0.31641   0.67698   0.00000  Uiso   1.00
H219   H     0.16621   0.17622   0.68980   0.00000  Uiso   1.00
H220   H     0.43545   0.83368   0.96057   0.00000  Uiso   1.00
H221   H     0.47157   0.44966   0.55382   0.00000  Uiso   1.00
O222   O     0.11074   0.08597   0.55490   0.00000  Uiso   1.00
O223   O     0.46398   0.63659   0.91013   0.00000  Uiso   1.00
O224   O     0.51136   0.44473   0.37648   0.00000  Uiso   1.00
N225   N     0.18525   0.02492   0.50675   0.00000  Uiso   1.00
N226   N     0.43697   0.70466   0.75990   0.00000  Uiso   1.00
N227   N     0.47075   0.28053   0.37963   0.00000  Uiso   1.00
N228   N     0.18065   0.12975   0.63686   0.00000  Uiso   1.00
N229   N     0.43237   0.80949   0.89002   0.00000  Uiso   1.00
N230   N     0.46615   0.38536   0.50975   0.00000  Uiso   1.00
C231   C     0.13529   0.00581   0.03728   0.00000  Uiso   1.00
C232   C     0.18587   0.97171   0.06065   0.00000  Uiso   1.00
C233   C     0.22583   0.00144   0.00784   0.00000  Uiso   1.00
C234   C     0.26890   0.96180   0.04111   0.00000  Uiso   1.00
C235   C     0.34700   0.91908   0.06479   0.00000  Uiso   1.00
C236   C     0.11650   0.05999   0.13043   0.00000  Uiso   1.00
C237   C     0.09814   0.16393   0.13628   0.00000  Uiso   1.00
C238   C     0.08280   0.19859   0.22829   0.00000  Uiso   1.00
C239   C     0.05317   0.29289   0.36028   0.00000  Uiso   1.00
C240   C     0.10720   0.90127   0.02562   0.00000  Uiso   1.00
C241   C     0.08100   0.87178   0.94335   0.00000  Uiso   1.00
C242   C     0.05783   0.77282   0.94714   0.00000  Uiso   1.00
C243   C     0.01375   0.62069   0.91640   0.00000  Uiso   1.00
C244   C     0.14070   0.88254   0.19030   0.00000  Uiso   1.00
C245   C     0.18881   0.90476   0.14377   0.00000  Uiso   1.00
C246   C     0.23182   0.86506   0.17713   0.00000  Uiso   1.00
C247   C     0.27185   0.89472   0.12437   0.00000  Uiso   1.00
C248   C     0.11944   0.99303   0.21354   0.00000  Uiso   1.00
C249   C     0.10413   0.02755   0.30557   0.00000  Uiso   1.00
C250   C     0.08575   0.13152   0.31155   0.00000  Uiso   1.00
C251   C     0.11014   0.83431   0.10874   0.00000  Uiso   1.00
C252   C     0.08699   0.73539   0.11265   0.00000  Uiso   1.00
C253   C     0.06077   0.70574   0.03040   0.00000  Uiso   1.00
H254   H     0.13299   0.05795   0.97258   0.00000  Uiso   1.00
H255   H     0.22354   0.05327   0.94353   0.00000  Uiso   1.00
H256   H     0.09586   0.21573   0.07194   0.00000  Uiso   1.00
H257   H     0.07873   0.92361   0.87905   0.00000  Uiso   1.00
H258   H     0.32523   0.01859   0.94799   0.00000  Uiso   1.00
H259   H     0.05600   0.36112   0.21876   0.00000  Uiso   1.00
H260   H     0.01987   0.74515   0.81201   0.00000  Uiso   1.00
H261   H     0.14299   0.83041   0.25501   0.00000  Uiso   1.00
H262   H     0.23409   0.81324   0.24145   0.00000  Uiso   1.00
H263   H     0.10641   0.97570   0.36987   0.00000  Uiso   1.00
H264   H     0.08928   0.68359   0.17698   0.00000  Uiso   1.00
H265   H     0.33379   0.82378   0.18980   0.00000  Uiso   1.00
H266   H     0.06455   0.16632   0.46057   0.00000  Uiso   1.00
H267   H     0.02843   0.55034   0.05382   0.00000  Uiso   1.00
O268   O     0.38926   0.91403   0.05490   0.00000  Uiso   1.00
O269   O     0.03602   0.36341   0.41013   0.00000  Uiso   1.00
O270   O     0.98864   0.55527   0.87648   0.00000  Uiso   1.00
N271   N     0.31475   0.97508   0.00675   0.00000  Uiso   1.00
N272   N     0.06303   0.29534   0.25990   0.00000  Uiso   1.00
N273   N     0.02925   0.71947   0.87963   0.00000  Uiso   1.00
N274   N     0.31935   0.87025   0.13686   0.00000  Uiso   1.00
N275   N     0.06763   0.19051   0.39002   0.00000  Uiso   1.00
N276   N     0.03385   0.61464   0.00975   0.00000  Uiso   1.00
C277   C     0.63529   0.49419   0.96272   0.00000  Uiso   1.00
C278   C     0.68587   0.52829   0.93935   0.00000  Uiso   1.00
C279   C     0.72583   0.49856   0.99216   0.00000  Uiso   1.00
C280   C     0.76890   0.53820   0.95889   0.00000  Uiso   1.00
C281   C     0.84700   0.58092   0.93521   0.00000  Uiso   1.00
C282   C     0.61650   0.44001   0.86957   0.00000  Uiso   1.00
C283   C     0.59814   0.33607   0.86372   0.00000  Uiso   1.00
C284   C     0.58280   0.30141   0.77171   0.00000  Uiso   1.00
C285   C     0.55317   0.20711   0.63972   0.00000  Uiso   1.00
C286   C     0.60720   0.59873   0.97438   0.00000  Uiso   1.00
C287   C     0.58100   0.62822   0.05665   0.00000  Uiso   1.00
C288   C     0.55783   0.72718   0.05286   0.00000  Uiso   1.00
C289   C     0.51375   0.87931   0.08360   0.00000  Uiso   1.00
C290   C     0.64070   0.61746   0.80970   0.00000  Uiso   1.00
C291   C     0.68881   0.59524   0.85623   0.00000  Uiso   1.00
C292   C     0.73182   0.63494   0.82287   0.00000  Uiso   1.00
C293   C     0.77185   0.60528   0.87563   0.00000  Uiso   1.00
C294   C     0.61944   0.50697   0.78646   0.00000  Uiso   1.00
C295   C     0.60413   0.47245   0.69443   0.00000  Uiso   1.00
C296   C     0.58575   0.36848   0.68845   0.00000  Uiso   1.00
C297   C     0.61014   0.66569   0.89126   0.00000  Uiso   1.00
C298   C     0.58699   0.76461   0.88735   0.00000  Uiso   1.00
C299   C     0.56077   0.79426   0.96960   0.00000  Uiso   1.00
H300   H     0.63299   0.44205   0.02742   0.00000  Uiso   1.00
H301   H     0.72354   0.44673   0.05647   0.00000  Uiso   1.00
H302   H     0.59586   0.28427   0.92806   0.00000  Uiso   1.00
H303   H     0.57873   0.57639   0.12095   0.00000  Uiso   1.00
H304   H     0.82523   0.48141   0.05201   0.00000  Uiso   1.00
H305   H     0.55600   0.13888   0.78124   0.00000  Uiso   1.00
H306   H     0.51987   0.75485   0.18799   0.00000  Uiso   1.00
H307   H     0.64299   0.66959   0.74499   0.00000  Uiso   1.00
H308   H     0.73409   0.68676   0.75855   0.00000  Uiso   1.00
H309   H     0.60641   0.52430   0.63013   0.00000  Uiso   1.00
H310   H     0.58928   0.81641   0.82302   0.00000  Uiso   1.00
H311   H     0.83379   0.67622   0.81020   0.00000  Uiso   1.00
H312   H     0.56455   0.33368   0.53943   0.00000  Uiso   1.00
H313   H     0.52843   0.94966   0.94618   0.00000  Uiso   1.00
O314   O     0.88926   0.58597   0.94510   0.00000  Uiso   1.00
O315   O     0.53602   0.13659   0.58987   0.00000  Uiso   1.00
O316   O     0.48864   0.94473   0.12352   0.00000  Uiso   1.00
N317   N     0.81475   0.52492   0.99325   0.00000  Uiso   1.00
N318   N     0.56303   0.20466   0.74010   0.00000  Uiso   1.00
N319   N     0.52925   0.78053   0.12037   0.00000  Uiso   1.00
N320   N     0.81935   0.62975   0.86314   0.00000  Uiso   1.00
N321   N     0.56763   0.30949   0.60998   0.00000  Uiso   1.00
N322   N     0.53385   0.88536   0.99025   0.00000  Uiso   1.00
C323   C     0.86471   0.50581   0.46272   0.00000  Uiso   1.00
C324   C     0.81413   0.47171   0.43935   0.00000  Uiso   1.00
C325   C     0.77417   0.50144   0.49216   0.00000  Uiso   1.00
C326   C     0.73110   0.46180   0.45889   0.00000  Uiso   1.00
C327   C     0.65300   0.41908   0.43521   0.00000  Uiso   1.00
C328   C     0.88350   0.55999   0.36957   0.00000  Uiso   1.00
C329   C     0.90186   0.66393   0.36372   0.00000  Uiso   1.00
C330   C     0.91720   0.69859   0.27171   0.00000  Uiso   1.00
C331   C     0.94683   0.79289   0.13972   0.00000  Uiso   1.00
C332   C     0.89280   0.40127   0.47438   0.00000  Uiso   1.00
C333   C     0.91900   0.37178   0.55665   0.00000  Uiso   1.00
C334   C     0.94217   0.27282   0.55286   0.00000  Uiso   1.00
C335   C     0.98625   0.12069   0.58360   0.00000  Uiso   1.00
C336   C     0.85930   0.38254   0.30970   0.00000  Uiso   1.00
C337   C     0.81119   0.40476   0.35623   0.00000  Uiso   1.00
C338   C     0.76818   0.36506   0.32287   0.00000  Uiso   1.00
C339   C     0.72815   0.39472   0.37563   0.00000  Uiso   1.00
C340   C     0.88056   0.49303   0.28646   0.00000  Uiso   1.00
C341   C     0.89587   0.52755   0.19443   0.00000  Uiso   1.00
C342   C     0.91425   0.63152   0.18845   0.00000  Uiso   1.00
C343   C     0.88986   0.33431   0.39126   0.00000  Uiso   1.00
C344   C     0.91301   0.23539   0.38735   0.00000  Uiso   1.00
C345   C     0.93923   0.20574   0.46960   0.00000  Uiso   1.00
H346   H     0.86701   0.55795   0.52742   0.00000  Uiso   1.00
H347   H     0.77646   0.55327   0.55647   0.00000  Uiso   1.00
H348   H     0.90414   0.71573   0.42806   0.00000  Uiso   1.00
H349   H     0.92127   0.42361   0.62095   0.00000  Uiso   1.00
H350   H     0.67477   0.51859   0.55201   0.00000  Uiso   1.00
H351   H     0.94400   0.86112   0.28124   0.00000  Uiso   1.00
H352   H     0.98013   0.24515   0.68799   0.00000  Uiso   1.00
H353   H     0.85701   0.33041   0.24499   0.00000  Uiso   1.00
H354   H     0.76591   0.31324   0.25855   0.00000  Uiso   1.00
H355   H     0.89359   0.47570   0.13013   0.00000  Uiso   1.00
H356   H     0.91072   0.18359   0.32302   0.00000  Uiso   1.00
H357   H     0.66621   0.32378   0.31020   0.00000  Uiso   1.00
H358   H     0.93545   0.66632   0.03943   0.00000  Uiso   1.00
H359   H     0.97157   0.05034   0.44618   0.00000  Uiso   1.00
O360   O     0.61074   0.41403   0.44510   0.00000  Uiso   1.00
O361   O     0.96398   0.86341   0.08987   0.00000  Uiso   1.00
O362   O     0.01136   0.05527   0.62352   0.00000  Uiso   1.00
N363   N     0.68525   0.47508   0.49325   0.00000  Uiso   1.00
N364   N     0.93697   0.79534   0.24010   0.00000  Uiso   1.00
N365   N     0.97075   0.21947   0.62037   0.00000  Uiso   1.00
N366   N     0.68065   0.37025   0.36314   0.00000  Uiso   1.00
N367   N     0.93237   0.69051   0.10998   0.00000  Uiso   1.00
N368   N     0.96615   0.11464   0.49025   0.00000  Uiso   1.00
