data_job_04725
_audit_creation_date              2018-12-19
_audit_creation_method            'Materials Studio'
_symmetry_space_group_name_H-M    'P1'
_symmetry_Int_Tables_number       1
_symmetry_cell_setting            triclinic
loop_
_symmetry_equiv_pos_as_xyz
  x,y,z
_cell_length_a                    16.8203
_cell_length_b                    26.4806
_cell_length_c                    12.4968
_cell_angle_alpha                 90.0000
_cell_angle_beta                  90.0000
_cell_angle_gamma                 90.0000
loop_
_atom_site_label
_atom_site_type_symbol
_atom_site_fract_x
_atom_site_fract_y
_atom_site_fract_z
_atom_site_U_iso_or_equiv
_atom_site_adp_type
_atom_site_occupancy
C1     C     0.12196   0.68863   0.69137   0.00000  Uiso   1.00
C2     C     0.03565   0.70214   0.66739   0.00000  Uiso   1.00
C3     C     0.00255   0.75004   0.67431   0.00000  Uiso   1.00
C4     C     0.92248   0.75456   0.64907   0.00000  Uiso   1.00
C5     C     0.79534   0.78191   0.61662   0.00000  Uiso   1.00
C6     C     0.11923   0.64762   0.77696   0.00000  Uiso   1.00
C7     C     0.15642   0.64968   0.87600   0.00000  Uiso   1.00
C8     C     0.14671   0.60831   0.94298   0.00000  Uiso   1.00
C9     C     0.14938   0.55100   0.08061   0.00000  Uiso   1.00
C10    C     0.15388   0.66327   0.59060   0.00000  Uiso   1.00
C11    C     0.22022   0.67847   0.53296   0.00000  Uiso   1.00
C12    C     0.23971   0.65025   0.44306   0.00000  Uiso   1.00
C13    C     0.29618   0.61723   0.29133   0.00000  Uiso   1.00
C14    C     0.03861   0.61149   0.63422   0.00000  Uiso   1.00
C15    C     0.99038   0.66024   0.63635   0.00000  Uiso   1.00
C16    C     0.91034   0.66469   0.61109   0.00000  Uiso   1.00
C17    C     0.87713   0.71259   0.61797   0.00000  Uiso   1.00
C18    C     0.07396   0.60573   0.74592   0.00000  Uiso   1.00
C19    C     0.06420   0.56434   0.81277   0.00000  Uiso   1.00
C20    C     0.10136   0.56633   0.91189   0.00000  Uiso   1.00
C21    C     0.10861   0.62137   0.55956   0.00000  Uiso   1.00
C22    C     0.12801   0.59312   0.46973   0.00000  Uiso   1.00
C23    C     0.19436   0.60828   0.41196   0.00000  Uiso   1.00
H24    H     0.15720   0.72125   0.71554   0.00000  Uiso   1.00
H25    H     0.03760   0.78245   0.69835   0.00000  Uiso   1.00
H26    H     0.19145   0.68211   0.89999   0.00000  Uiso   1.00
H27    H     0.25524   0.71089   0.55700   0.00000  Uiso   1.00
H28    H     0.88503   0.83182   0.66564   0.00000  Uiso   1.00
H29    H     0.20945   0.62024   0.09081   0.00000  Uiso   1.00
H30    H     0.34397   0.68093   0.36755   0.00000  Uiso   1.00
H31    H     0.00337   0.57887   0.61006   0.00000  Uiso   1.00
H32    H     0.87532   0.63226   0.58707   0.00000  Uiso   1.00
H33    H     0.02917   0.53192   0.78873   0.00000  Uiso   1.00
H34    H     0.09296   0.56070   0.44574   0.00000  Uiso   1.00
H35    H     0.75332   0.70993   0.57533   0.00000  Uiso   1.00
H36    H     0.07774   0.49834   0.00050   0.00000  Uiso   1.00
H37    H     0.21226   0.55903   0.27724   0.00000  Uiso   1.00
O38    O     0.73772   0.80856   0.60730   0.00000  Uiso   1.00
O39    O     0.16335   0.53097   0.16510   0.00000  Uiso   1.00
O40    O     0.33983   0.61060   0.21620   0.00000  Uiso   1.00
N41    N     0.87161   0.79581   0.64752   0.00000  Uiso   1.00
N42    N     0.17491   0.59799   0.04503   0.00000  Uiso   1.00
N43    N     0.30069   0.65473   0.36886   0.00000  Uiso   1.00
N44    N     0.80074   0.73022   0.59892   0.00000  Uiso   1.00
N45    N     0.10404   0.53240   0.99644   0.00000  Uiso   1.00
N46    N     0.22981   0.58914   0.32027   0.00000  Uiso   1.00
C47    C     0.73363   0.18798   0.70701   0.00000  Uiso   1.00
C48    C     0.64730   0.20142   0.68298   0.00000  Uiso   1.00
C49    C     0.61414   0.24930   0.68971   0.00000  Uiso   1.00
C50    C     0.53407   0.25376   0.66445   0.00000  Uiso   1.00
C51    C     0.40689   0.28100   0.63188   0.00000  Uiso   1.00
C52    C     0.73096   0.14705   0.79278   0.00000  Uiso   1.00
C53    C     0.76815   0.14922   0.89181   0.00000  Uiso   1.00
C54    C     0.75850   0.10790   0.95897   0.00000  Uiso   1.00
C55    C     0.76125   0.05073   0.09684   0.00000  Uiso   1.00
C56    C     0.76559   0.16254   0.60635   0.00000  Uiso   1.00
C57    C     0.83191   0.17772   0.54865   0.00000  Uiso   1.00
C58    C     0.85143   0.14943   0.45886   0.00000  Uiso   1.00
C59    C     0.90794   0.11630   0.30727   0.00000  Uiso   1.00
C60    C     0.65039   0.11074   0.65020   0.00000  Uiso   1.00
C61    C     0.60209   0.15947   0.65213   0.00000  Uiso   1.00
C62    C     0.52204   0.16385   0.62685   0.00000  Uiso   1.00
C63    C     0.48877   0.21173   0.63353   0.00000  Uiso   1.00
C64    C     0.68575   0.10510   0.76193   0.00000  Uiso   1.00
C65    C     0.67605   0.06377   0.82895   0.00000  Uiso   1.00
C66    C     0.71321   0.06588   0.92806   0.00000  Uiso   1.00
C67    C     0.72037   0.12058   0.57549   0.00000  Uiso   1.00
C68    C     0.73980   0.09227   0.48579   0.00000  Uiso   1.00
C69    C     0.80614   0.10740   0.42795   0.00000  Uiso   1.00
H70    H     0.76883   0.22064   0.73104   0.00000  Uiso   1.00
H71    H     0.64915   0.28176   0.71360   0.00000  Uiso   1.00
H72    H     0.80314   0.18169   0.91566   0.00000  Uiso   1.00
H73    H     0.86688   0.21018   0.57255   0.00000  Uiso   1.00
H74    H     0.49652   0.33102   0.68069   0.00000  Uiso   1.00
H75    H     0.82123   0.12001   0.10674   0.00000  Uiso   1.00
H76    H     0.95565   0.18009   0.38322   0.00000  Uiso   1.00
H77    H     0.61519   0.07808   0.62618   0.00000  Uiso   1.00
H78    H     0.48707   0.13138   0.60297   0.00000  Uiso   1.00
H79    H     0.64106   0.03131   0.80504   0.00000  Uiso   1.00
H80    H     0.70480   0.05980   0.46193   0.00000  Uiso   1.00
H81    H     0.36496   0.20896   0.59091   0.00000  Uiso   1.00
H82    H     0.68968   0.99796   0.01696   0.00000  Uiso   1.00
H83    H     0.82410   0.05804   0.29343   0.00000  Uiso   1.00
O84    O     0.34923   0.30762   0.62246   0.00000  Uiso   1.00
O85    O     0.77525   0.03079   0.18141   0.00000  Uiso   1.00
O86    O     0.95160   0.10961   0.23217   0.00000  Uiso   1.00
N87    N     0.48314   0.29498   0.66272   0.00000  Uiso   1.00
N88    N     0.78672   0.09770   0.06106   0.00000  Uiso   1.00
N89    N     0.91240   0.15387   0.38465   0.00000  Uiso   1.00
N90    N     0.41235   0.22930   0.61441   0.00000  Uiso   1.00
N91    N     0.71593   0.03203   0.01275   0.00000  Uiso   1.00
N92    N     0.84161   0.08819   0.33633   0.00000  Uiso   1.00
C93    C     0.87804   0.31137   0.69137   0.00000  Uiso   1.00
C94    C     0.96435   0.29786   0.66739   0.00000  Uiso   1.00
C95    C     0.99745   0.24996   0.67431   0.00000  Uiso   1.00
C96    C     0.07752   0.24544   0.64907   0.00000  Uiso   1.00
C97    C     0.20466   0.21809   0.61662   0.00000  Uiso   1.00
C98    C     0.88077   0.35238   0.77696   0.00000  Uiso   1.00
C99    C     0.84358   0.35032   0.87600   0.00000  Uiso   1.00
C100   C     0.85329   0.39169   0.94298   0.00000  Uiso   1.00
C101   C     0.85062   0.44900   0.08061   0.00000  Uiso   1.00
C102   C     0.84612   0.33673   0.59060   0.00000  Uiso   1.00
C103   C     0.77978   0.32153   0.53296   0.00000  Uiso   1.00
C104   C     0.76029   0.34975   0.44306   0.00000  Uiso   1.00
C105   C     0.70382   0.38277   0.29133   0.00000  Uiso   1.00
C106   C     0.96139   0.38851   0.63422   0.00000  Uiso   1.00
C107   C     0.00962   0.33976   0.63635   0.00000  Uiso   1.00
C108   C     0.08966   0.33531   0.61109   0.00000  Uiso   1.00
C109   C     0.12287   0.28741   0.61797   0.00000  Uiso   1.00
C110   C     0.92604   0.39427   0.74592   0.00000  Uiso   1.00
C111   C     0.93580   0.43566   0.81277   0.00000  Uiso   1.00
C112   C     0.89864   0.43367   0.91189   0.00000  Uiso   1.00
C113   C     0.89139   0.37863   0.55956   0.00000  Uiso   1.00
C114   C     0.87199   0.40688   0.46973   0.00000  Uiso   1.00
C115   C     0.80564   0.39172   0.41196   0.00000  Uiso   1.00
H116   H     0.84280   0.27875   0.71554   0.00000  Uiso   1.00
H117   H     0.96240   0.21755   0.69835   0.00000  Uiso   1.00
H118   H     0.80855   0.31789   0.89999   0.00000  Uiso   1.00
H119   H     0.74476   0.28911   0.55700   0.00000  Uiso   1.00
H120   H     0.11497   0.16818   0.66564   0.00000  Uiso   1.00
H121   H     0.79055   0.37976   0.09081   0.00000  Uiso   1.00
H122   H     0.65603   0.31907   0.36755   0.00000  Uiso   1.00
H123   H     0.99663   0.42113   0.61006   0.00000  Uiso   1.00
H124   H     0.12468   0.36774   0.58707   0.00000  Uiso   1.00
H125   H     0.97083   0.46808   0.78873   0.00000  Uiso   1.00
H126   H     0.90704   0.43930   0.44574   0.00000  Uiso   1.00
H127   H     0.24668   0.29007   0.57533   0.00000  Uiso   1.00
H128   H     0.92226   0.50166   0.00050   0.00000  Uiso   1.00
H129   H     0.78774   0.44097   0.27724   0.00000  Uiso   1.00
O130   O     0.26228   0.19144   0.60730   0.00000  Uiso   1.00
O131   O     0.83665   0.46903   0.16510   0.00000  Uiso   1.00
O132   O     0.66017   0.38940   0.21620   0.00000  Uiso   1.00
N133   N     0.12839   0.20419   0.64752   0.00000  Uiso   1.00
N134   N     0.82509   0.40201   0.04503   0.00000  Uiso   1.00
N135   N     0.69931   0.34527   0.36886   0.00000  Uiso   1.00
N136   N     0.19926   0.26978   0.59892   0.00000  Uiso   1.00
N137   N     0.89596   0.46760   0.99644   0.00000  Uiso   1.00
N138   N     0.77019   0.41086   0.32027   0.00000  Uiso   1.00
C139   C     0.26637   0.81202   0.70701   0.00000  Uiso   1.00
C140   C     0.35270   0.79858   0.68298   0.00000  Uiso   1.00
C141   C     0.38586   0.75070   0.68971   0.00000  Uiso   1.00
C142   C     0.46593   0.74624   0.66445   0.00000  Uiso   1.00
C143   C     0.59311   0.71900   0.63188   0.00000  Uiso   1.00
C144   C     0.26904   0.85295   0.79278   0.00000  Uiso   1.00
C145   C     0.23185   0.85078   0.89181   0.00000  Uiso   1.00
C146   C     0.24150   0.89210   0.95897   0.00000  Uiso   1.00
C147   C     0.23875   0.94927   0.09684   0.00000  Uiso   1.00
C148   C     0.23441   0.83746   0.60635   0.00000  Uiso   1.00
C149   C     0.16809   0.82228   0.54865   0.00000  Uiso   1.00
C150   C     0.14857   0.85057   0.45886   0.00000  Uiso   1.00
C151   C     0.09206   0.88370   0.30727   0.00000  Uiso   1.00
C152   C     0.34961   0.88926   0.65020   0.00000  Uiso   1.00
C153   C     0.39791   0.84053   0.65213   0.00000  Uiso   1.00
C154   C     0.47796   0.83615   0.62685   0.00000  Uiso   1.00
C155   C     0.51123   0.78827   0.63353   0.00000  Uiso   1.00
C156   C     0.31425   0.89490   0.76193   0.00000  Uiso   1.00
C157   C     0.32395   0.93623   0.82895   0.00000  Uiso   1.00
C158   C     0.28679   0.93412   0.92806   0.00000  Uiso   1.00
C159   C     0.27963   0.87942   0.57549   0.00000  Uiso   1.00
C160   C     0.26020   0.90773   0.48579   0.00000  Uiso   1.00
C161   C     0.19386   0.89260   0.42795   0.00000  Uiso   1.00
H162   H     0.23117   0.77936   0.73104   0.00000  Uiso   1.00
H163   H     0.35085   0.71824   0.71360   0.00000  Uiso   1.00
H164   H     0.19686   0.81831   0.91566   0.00000  Uiso   1.00
H165   H     0.13312   0.78982   0.57255   0.00000  Uiso   1.00
H166   H     0.50348   0.66898   0.68069   0.00000  Uiso   1.00
H167   H     0.17877   0.87999   0.10674   0.00000  Uiso   1.00
H168   H     0.04435   0.81991   0.38322   0.00000  Uiso   1.00
H169   H     0.38481   0.92192   0.62618   0.00000  Uiso   1.00
H170   H     0.51293   0.86862   0.60297   0.00000  Uiso   1.00
H171   H     0.35894   0.96869   0.80504   0.00000  Uiso   1.00
H172   H     0.29520   0.94020   0.46193   0.00000  Uiso   1.00
H173   H     0.63504   0.79104   0.59091   0.00000  Uiso   1.00
H174   H     0.31032   0.00204   0.01696   0.00000  Uiso   1.00
H175   H     0.17590   0.94196   0.29343   0.00000  Uiso   1.00
O176   O     0.65077   0.69238   0.62246   0.00000  Uiso   1.00
O177   O     0.22475   0.96921   0.18141   0.00000  Uiso   1.00
O178   O     0.04840   0.89039   0.23217   0.00000  Uiso   1.00
N179   N     0.51686   0.70502   0.66272   0.00000  Uiso   1.00
N180   N     0.21328   0.90230   0.06106   0.00000  Uiso   1.00
N181   N     0.08760   0.84613   0.38465   0.00000  Uiso   1.00
N182   N     0.58765   0.77070   0.61441   0.00000  Uiso   1.00
N183   N     0.28407   0.96797   0.01275   0.00000  Uiso   1.00
N184   N     0.15839   0.91181   0.33633   0.00000  Uiso   1.00
C185   C     0.62196   0.81137   0.19137   0.00000  Uiso   1.00
C186   C     0.53565   0.79786   0.16739   0.00000  Uiso   1.00
C187   C     0.50255   0.74996   0.17431   0.00000  Uiso   1.00
C188   C     0.42248   0.74544   0.14907   0.00000  Uiso   1.00
C189   C     0.29534   0.71809   0.11662   0.00000  Uiso   1.00
C190   C     0.61923   0.85238   0.27696   0.00000  Uiso   1.00
C191   C     0.65642   0.85032   0.37600   0.00000  Uiso   1.00
C192   C     0.64671   0.89169   0.44298   0.00000  Uiso   1.00
C193   C     0.64938   0.94900   0.58061   0.00000  Uiso   1.00
C194   C     0.65388   0.83673   0.09060   0.00000  Uiso   1.00
C195   C     0.72022   0.82153   0.03296   0.00000  Uiso   1.00
C196   C     0.73971   0.84975   0.94306   0.00000  Uiso   1.00
C197   C     0.79618   0.88277   0.79133   0.00000  Uiso   1.00
C198   C     0.53861   0.88851   0.13422   0.00000  Uiso   1.00
C199   C     0.49038   0.83976   0.13635   0.00000  Uiso   1.00
C200   C     0.41034   0.83531   0.11109   0.00000  Uiso   1.00
C201   C     0.37713   0.78741   0.11797   0.00000  Uiso   1.00
C202   C     0.57396   0.89427   0.24592   0.00000  Uiso   1.00
C203   C     0.56420   0.93566   0.31277   0.00000  Uiso   1.00
C204   C     0.60136   0.93367   0.41189   0.00000  Uiso   1.00
C205   C     0.60861   0.87863   0.05956   0.00000  Uiso   1.00
C206   C     0.62801   0.90688   0.96973   0.00000  Uiso   1.00
C207   C     0.69436   0.89172   0.91196   0.00000  Uiso   1.00
H208   H     0.65720   0.77875   0.21554   0.00000  Uiso   1.00
H209   H     0.53760   0.71755   0.19835   0.00000  Uiso   1.00
H210   H     0.69145   0.81789   0.39999   0.00000  Uiso   1.00
H211   H     0.75524   0.78911   0.05700   0.00000  Uiso   1.00
H212   H     0.38503   0.66818   0.16564   0.00000  Uiso   1.00
H213   H     0.70945   0.87976   0.59081   0.00000  Uiso   1.00
H214   H     0.84397   0.81907   0.86755   0.00000  Uiso   1.00
H215   H     0.50337   0.92113   0.11006   0.00000  Uiso   1.00
H216   H     0.37532   0.86774   0.08707   0.00000  Uiso   1.00
H217   H     0.52917   0.96808   0.28873   0.00000  Uiso   1.00
H218   H     0.59296   0.93930   0.94574   0.00000  Uiso   1.00
H219   H     0.25332   0.79007   0.07533   0.00000  Uiso   1.00
H220   H     0.57774   0.00166   0.50050   0.00000  Uiso   1.00
H221   H     0.71226   0.94097   0.77724   0.00000  Uiso   1.00
O222   O     0.23772   0.69144   0.10730   0.00000  Uiso   1.00
O223   O     0.66335   0.96903   0.66510   0.00000  Uiso   1.00
O224   O     0.83983   0.88940   0.71620   0.00000  Uiso   1.00
N225   N     0.37161   0.70419   0.14752   0.00000  Uiso   1.00
N226   N     0.67491   0.90201   0.54503   0.00000  Uiso   1.00
N227   N     0.80069   0.84527   0.86886   0.00000  Uiso   1.00
N228   N     0.30074   0.76978   0.09892   0.00000  Uiso   1.00
N229   N     0.60404   0.96760   0.49644   0.00000  Uiso   1.00
N230   N     0.72981   0.91086   0.82027   0.00000  Uiso   1.00
C231   C     0.23363   0.31202   0.20701   0.00000  Uiso   1.00
C232   C     0.14730   0.29858   0.18298   0.00000  Uiso   1.00
C233   C     0.11414   0.25070   0.18971   0.00000  Uiso   1.00
C234   C     0.03407   0.24624   0.16445   0.00000  Uiso   1.00
C235   C     0.90689   0.21900   0.13188   0.00000  Uiso   1.00
C236   C     0.23096   0.35295   0.29278   0.00000  Uiso   1.00
C237   C     0.26815   0.35078   0.39181   0.00000  Uiso   1.00
C238   C     0.25850   0.39210   0.45897   0.00000  Uiso   1.00
C239   C     0.26125   0.44927   0.59684   0.00000  Uiso   1.00
C240   C     0.26559   0.33746   0.10635   0.00000  Uiso   1.00
C241   C     0.33191   0.32228   0.04865   0.00000  Uiso   1.00
C242   C     0.35143   0.35057   0.95886   0.00000  Uiso   1.00
C243   C     0.40794   0.38370   0.80727   0.00000  Uiso   1.00
C244   C     0.15039   0.38926   0.15020   0.00000  Uiso   1.00
C245   C     0.10209   0.34053   0.15213   0.00000  Uiso   1.00
C246   C     0.02204   0.33615   0.12685   0.00000  Uiso   1.00
C247   C     0.98877   0.28827   0.13353   0.00000  Uiso   1.00
C248   C     0.18575   0.39490   0.26193   0.00000  Uiso   1.00
C249   C     0.17605   0.43623   0.32895   0.00000  Uiso   1.00
C250   C     0.21321   0.43412   0.42806   0.00000  Uiso   1.00
C251   C     0.22037   0.37942   0.07549   0.00000  Uiso   1.00
C252   C     0.23980   0.40773   0.98579   0.00000  Uiso   1.00
C253   C     0.30614   0.39260   0.92795   0.00000  Uiso   1.00
H254   H     0.26883   0.27936   0.23104   0.00000  Uiso   1.00
H255   H     0.14915   0.21824   0.21360   0.00000  Uiso   1.00
H256   H     0.30314   0.31831   0.41566   0.00000  Uiso   1.00
H257   H     0.36688   0.28982   0.07255   0.00000  Uiso   1.00
H258   H     0.99652   0.16898   0.18069   0.00000  Uiso   1.00
H259   H     0.32123   0.37999   0.60674   0.00000  Uiso   1.00
H260   H     0.45565   0.31991   0.88322   0.00000  Uiso   1.00
H261   H     0.11519   0.42192   0.12618   0.00000  Uiso   1.00
H262   H     0.98707   0.36862   0.10297   0.00000  Uiso   1.00
H263   H     0.14106   0.46869   0.30504   0.00000  Uiso   1.00
H264   H     0.20480   0.44020   0.96193   0.00000  Uiso   1.00
H265   H     0.86496   0.29104   0.09091   0.00000  Uiso   1.00
H266   H     0.18968   0.50204   0.51696   0.00000  Uiso   1.00
H267   H     0.32410   0.44196   0.79343   0.00000  Uiso   1.00
O268   O     0.84923   0.19238   0.12246   0.00000  Uiso   1.00
O269   O     0.27525   0.46921   0.68141   0.00000  Uiso   1.00
O270   O     0.45160   0.39039   0.73217   0.00000  Uiso   1.00
N271   N     0.98314   0.20502   0.16272   0.00000  Uiso   1.00
N272   N     0.28672   0.40230   0.56106   0.00000  Uiso   1.00
N273   N     0.41240   0.34613   0.88465   0.00000  Uiso   1.00
N274   N     0.91235   0.27070   0.11441   0.00000  Uiso   1.00
N275   N     0.21593   0.46797   0.51275   0.00000  Uiso   1.00
N276   N     0.34161   0.41181   0.83633   0.00000  Uiso   1.00
C277   C     0.37804   0.18863   0.19137   0.00000  Uiso   1.00
C278   C     0.46435   0.20214   0.16739   0.00000  Uiso   1.00
C279   C     0.49745   0.25004   0.17431   0.00000  Uiso   1.00
C280   C     0.57752   0.25456   0.14907   0.00000  Uiso   1.00
C281   C     0.70466   0.28191   0.11662   0.00000  Uiso   1.00
C282   C     0.38077   0.14762   0.27696   0.00000  Uiso   1.00
C283   C     0.34358   0.14968   0.37600   0.00000  Uiso   1.00
C284   C     0.35329   0.10831   0.44298   0.00000  Uiso   1.00
C285   C     0.35062   0.05100   0.58061   0.00000  Uiso   1.00
C286   C     0.34612   0.16327   0.09060   0.00000  Uiso   1.00
C287   C     0.27978   0.17847   0.03296   0.00000  Uiso   1.00
C288   C     0.26029   0.15025   0.94306   0.00000  Uiso   1.00
C289   C     0.20382   0.11723   0.79133   0.00000  Uiso   1.00
C290   C     0.46139   0.11149   0.13422   0.00000  Uiso   1.00
C291   C     0.50962   0.16024   0.13635   0.00000  Uiso   1.00
C292   C     0.58966   0.16469   0.11109   0.00000  Uiso   1.00
C293   C     0.62287   0.21259   0.11797   0.00000  Uiso   1.00
C294   C     0.42604   0.10573   0.24592   0.00000  Uiso   1.00
C295   C     0.43580   0.06434   0.31277   0.00000  Uiso   1.00
C296   C     0.39864   0.06633   0.41189   0.00000  Uiso   1.00
C297   C     0.39139   0.12137   0.05956   0.00000  Uiso   1.00
C298   C     0.37199   0.09312   0.96973   0.00000  Uiso   1.00
C299   C     0.30564   0.10828   0.91196   0.00000  Uiso   1.00
H300   H     0.34280   0.22125   0.21554   0.00000  Uiso   1.00
H301   H     0.46240   0.28245   0.19835   0.00000  Uiso   1.00
H302   H     0.30855   0.18211   0.39999   0.00000  Uiso   1.00
H303   H     0.24476   0.21089   0.05700   0.00000  Uiso   1.00
H304   H     0.61497   0.33182   0.16564   0.00000  Uiso   1.00
H305   H     0.29055   0.12024   0.59081   0.00000  Uiso   1.00
H306   H     0.15603   0.18093   0.86755   0.00000  Uiso   1.00
H307   H     0.49663   0.07887   0.11006   0.00000  Uiso   1.00
H308   H     0.62468   0.13226   0.08707   0.00000  Uiso   1.00
H309   H     0.47083   0.03192   0.28873   0.00000  Uiso   1.00
H310   H     0.40704   0.06070   0.94574   0.00000  Uiso   1.00
H311   H     0.74668   0.20993   0.07533   0.00000  Uiso   1.00
H312   H     0.42226   0.99834   0.50050   0.00000  Uiso   1.00
H313   H     0.28774   0.05903   0.77724   0.00000  Uiso   1.00
O314   O     0.76228   0.30856   0.10730   0.00000  Uiso   1.00
O315   O     0.33665   0.03097   0.66510   0.00000  Uiso   1.00
O316   O     0.16017   0.11060   0.71620   0.00000  Uiso   1.00
N317   N     0.62839   0.29581   0.14752   0.00000  Uiso   1.00
N318   N     0.32509   0.09799   0.54503   0.00000  Uiso   1.00
N319   N     0.19931   0.15473   0.86886   0.00000  Uiso   1.00
N320   N     0.69926   0.23022   0.09892   0.00000  Uiso   1.00
N321   N     0.39596   0.03240   0.49644   0.00000  Uiso   1.00
N322   N     0.27019   0.08914   0.82027   0.00000  Uiso   1.00
C323   C     0.76637   0.68798   0.20701   0.00000  Uiso   1.00
C324   C     0.85270   0.70142   0.18298   0.00000  Uiso   1.00
C325   C     0.88586   0.74930   0.18971   0.00000  Uiso   1.00
C326   C     0.96593   0.75376   0.16445   0.00000  Uiso   1.00
C327   C     0.09311   0.78100   0.13188   0.00000  Uiso   1.00
C328   C     0.76904   0.64705   0.29278   0.00000  Uiso   1.00
C329   C     0.73185   0.64922   0.39181   0.00000  Uiso   1.00
C330   C     0.74150   0.60790   0.45897   0.00000  Uiso   1.00
C331   C     0.73875   0.55073   0.59684   0.00000  Uiso   1.00
C332   C     0.73441   0.66254   0.10635   0.00000  Uiso   1.00
C333   C     0.66809   0.67772   0.04865   0.00000  Uiso   1.00
C334   C     0.64857   0.64943   0.95886   0.00000  Uiso   1.00
C335   C     0.59206   0.61630   0.80727   0.00000  Uiso   1.00
C336   C     0.84961   0.61074   0.15020   0.00000  Uiso   1.00
C337   C     0.89791   0.65947   0.15213   0.00000  Uiso   1.00
C338   C     0.97796   0.66385   0.12685   0.00000  Uiso   1.00
C339   C     0.01123   0.71173   0.13353   0.00000  Uiso   1.00
C340   C     0.81425   0.60510   0.26193   0.00000  Uiso   1.00
C341   C     0.82395   0.56377   0.32895   0.00000  Uiso   1.00
C342   C     0.78679   0.56588   0.42806   0.00000  Uiso   1.00
C343   C     0.77963   0.62058   0.07549   0.00000  Uiso   1.00
C344   C     0.76020   0.59227   0.98579   0.00000  Uiso   1.00
C345   C     0.69386   0.60740   0.92795   0.00000  Uiso   1.00
H346   H     0.73117   0.72064   0.23104   0.00000  Uiso   1.00
H347   H     0.85085   0.78176   0.21360   0.00000  Uiso   1.00
H348   H     0.69686   0.68169   0.41566   0.00000  Uiso   1.00
H349   H     0.63312   0.71018   0.07255   0.00000  Uiso   1.00
H350   H     0.00348   0.83102   0.18069   0.00000  Uiso   1.00
H351   H     0.67877   0.62001   0.60674   0.00000  Uiso   1.00
H352   H     0.54435   0.68009   0.88322   0.00000  Uiso   1.00
H353   H     0.88481   0.57808   0.12618   0.00000  Uiso   1.00
H354   H     0.01293   0.63138   0.10297   0.00000  Uiso   1.00
H355   H     0.85894   0.53131   0.30504   0.00000  Uiso   1.00
H356   H     0.79520   0.55980   0.96193   0.00000  Uiso   1.00
H357   H     0.13504   0.70896   0.09091   0.00000  Uiso   1.00
H358   H     0.81032   0.49796   0.51696   0.00000  Uiso   1.00
H359   H     0.67590   0.55804   0.79343   0.00000  Uiso   1.00
O360   O     0.15077   0.80762   0.12246   0.00000  Uiso   1.00
O361   O     0.72475   0.53079   0.68141   0.00000  Uiso   1.00
O362   O     0.54840   0.60961   0.73217   0.00000  Uiso   1.00
N363   N     0.01686   0.79498   0.16272   0.00000  Uiso   1.00
N364   N     0.71328   0.59770   0.56106   0.00000  Uiso   1.00
N365   N     0.58760   0.65387   0.88465   0.00000  Uiso   1.00
N366   N     0.08765   0.72930   0.11441   0.00000  Uiso   1.00
N367   N     0.78407   0.53203   0.51275   0.00000  Uiso   1.00
N368   N     0.65839   0.58819   0.83633   0.00000  Uiso   1.00
