data_job_03376
_audit_creation_date              2018-12-19
_audit_creation_method            'Materials Studio'
_symmetry_space_group_name_H-M    'P1'
_symmetry_Int_Tables_number       1
_symmetry_cell_setting            triclinic
loop_
_symmetry_equiv_pos_as_xyz
  x,y,z
_cell_length_a                    13.8448
_cell_length_b                    23.8112
_cell_length_c                    25.3936
_cell_angle_alpha                 90.0000
_cell_angle_beta                  90.0000
_cell_angle_gamma                 90.0000
loop_
_atom_site_label
_atom_site_type_symbol
_atom_site_fract_x
_atom_site_fract_y
_atom_site_fract_z
_atom_site_U_iso_or_equiv
_atom_site_adp_type
_atom_site_occupancy
C1     C     0.55134   0.08597   0.61956   0.00000  Uiso   1.00
C2     C     0.59054   0.13818   0.64699   0.00000  Uiso   1.00
C3     C     0.53569   0.18277   0.66554   0.00000  Uiso   1.00
C4     C     0.58515   0.22659   0.68949   0.00000  Uiso   1.00
C5     C     0.63069   0.30778   0.73131   0.00000  Uiso   1.00
C6     C     0.58738   0.03600   0.65157   0.00000  Uiso   1.00
C7     C     0.52987   0.99467   0.67398   0.00000  Uiso   1.00
C8     C     0.57668   0.95247   0.70177   0.00000  Uiso   1.00
C9     C     0.61732   0.87499   0.75068   0.00000  Uiso   1.00
C10    C     0.60314   0.08272   0.56666   0.00000  Uiso   1.00
C11    C     0.55888   0.08066   0.51766   0.00000  Uiso   1.00
C12    C     0.61896   0.07778   0.47396   0.00000  Uiso   1.00
C13    C     0.68408   0.07285   0.39102   0.00000  Uiso   1.00
C14    C     0.73673   0.08451   0.62909   0.00000  Uiso   1.00
C15    C     0.69124   0.13739   0.65217   0.00000  Uiso   1.00
C16    C     0.74080   0.18116   0.67609   0.00000  Uiso   1.00
C17    C     0.68602   0.22580   0.69467   0.00000  Uiso   1.00
C18    C     0.68807   0.03521   0.65675   0.00000  Uiso   1.00
C19    C     0.73498   0.99306   0.68452   0.00000  Uiso   1.00
C20    C     0.67755   0.95168   0.70696   0.00000  Uiso   1.00
C21    C     0.70384   0.08193   0.57183   0.00000  Uiso   1.00
C22    C     0.76400   0.07905   0.52820   0.00000  Uiso   1.00
C23    C     0.71984   0.07699   0.47914   0.00000  Uiso   1.00
H24    H     0.47294   0.08658   0.61554   0.00000  Uiso   1.00
H25    H     0.45776   0.18336   0.66154   0.00000  Uiso   1.00
H26    H     0.45195   0.99529   0.66996   0.00000  Uiso   1.00
H27    H     0.48096   0.08127   0.51367   0.00000  Uiso   1.00
H28    H     0.48532   0.29031   0.71484   0.00000  Uiso   1.00
H29    H     0.47307   0.89373   0.73259   0.00000  Uiso   1.00
H30    H     0.53425   0.07504   0.40301   0.00000  Uiso   1.00
H31    H     0.81513   0.08390   0.63312   0.00000  Uiso   1.00
H32    H     0.81872   0.18054   0.68008   0.00000  Uiso   1.00
H33    H     0.81291   0.99246   0.68851   0.00000  Uiso   1.00
H34    H     0.84192   0.07844   0.53222   0.00000  Uiso   1.00
H35    H     0.77830   0.28801   0.72989   0.00000  Uiso   1.00
H36    H     0.76604   0.89144   0.74764   0.00000  Uiso   1.00
H37    H     0.82722   0.07274   0.41807   0.00000  Uiso   1.00
O38    O     0.62800   0.35277   0.75296   0.00000  Uiso   1.00
O39    O     0.61192   0.83248   0.77624   0.00000  Uiso   1.00
O40    O     0.69218   0.07035   0.34385   0.00000  Uiso   1.00
N41    N     0.55378   0.27651   0.71193   0.00000  Uiso   1.00
N42    N     0.54233   0.90574   0.72853   0.00000  Uiso   1.00
N43    N     0.59952   0.07523   0.42040   0.00000  Uiso   1.00
N44    N     0.71143   0.27527   0.72003   0.00000  Uiso   1.00
N45    N     0.69997   0.90451   0.73663   0.00000  Uiso   1.00
N46    N     0.75717   0.07400   0.42851   0.00000  Uiso   1.00
C47    C     0.94866   0.91403   0.11956   0.00000  Uiso   1.00
C48    C     0.90946   0.86182   0.14699   0.00000  Uiso   1.00
C49    C     0.96431   0.81723   0.16554   0.00000  Uiso   1.00
C50    C     0.91485   0.77341   0.18949   0.00000  Uiso   1.00
C51    C     0.86931   0.69222   0.23131   0.00000  Uiso   1.00
C52    C     0.91262   0.96400   0.15157   0.00000  Uiso   1.00
C53    C     0.97013   0.00533   0.17398   0.00000  Uiso   1.00
C54    C     0.92332   0.04753   0.20177   0.00000  Uiso   1.00
C55    C     0.88268   0.12501   0.25068   0.00000  Uiso   1.00
C56    C     0.89686   0.91728   0.06666   0.00000  Uiso   1.00
C57    C     0.94112   0.91934   0.01766   0.00000  Uiso   1.00
C58    C     0.88104   0.92222   0.97396   0.00000  Uiso   1.00
C59    C     0.81592   0.92715   0.89102   0.00000  Uiso   1.00
C60    C     0.76327   0.91549   0.12909   0.00000  Uiso   1.00
C61    C     0.80876   0.86261   0.15217   0.00000  Uiso   1.00
C62    C     0.75920   0.81884   0.17609   0.00000  Uiso   1.00
C63    C     0.81398   0.77420   0.19467   0.00000  Uiso   1.00
C64    C     0.81193   0.96479   0.15675   0.00000  Uiso   1.00
C65    C     0.76502   0.00694   0.18452   0.00000  Uiso   1.00
C66    C     0.82245   0.04832   0.20696   0.00000  Uiso   1.00
C67    C     0.79616   0.91807   0.07183   0.00000  Uiso   1.00
C68    C     0.73600   0.92095   0.02820   0.00000  Uiso   1.00
C69    C     0.78016   0.92301   0.97914   0.00000  Uiso   1.00
H70    H     0.02706   0.91342   0.11554   0.00000  Uiso   1.00
H71    H     0.04224   0.81664   0.16154   0.00000  Uiso   1.00
H72    H     0.04805   0.00471   0.16996   0.00000  Uiso   1.00
H73    H     0.01904   0.91873   0.01367   0.00000  Uiso   1.00
H74    H     0.01468   0.70969   0.21484   0.00000  Uiso   1.00
H75    H     0.02693   0.10627   0.23259   0.00000  Uiso   1.00
H76    H     0.96575   0.92496   0.90301   0.00000  Uiso   1.00
H77    H     0.68487   0.91610   0.13312   0.00000  Uiso   1.00
H78    H     0.68128   0.81946   0.18008   0.00000  Uiso   1.00
H79    H     0.68709   0.00754   0.18851   0.00000  Uiso   1.00
H80    H     0.65808   0.92156   0.03222   0.00000  Uiso   1.00
H81    H     0.72170   0.71199   0.22989   0.00000  Uiso   1.00
H82    H     0.73396   0.10856   0.24764   0.00000  Uiso   1.00
H83    H     0.67278   0.92726   0.91807   0.00000  Uiso   1.00
O84    O     0.87200   0.64723   0.25296   0.00000  Uiso   1.00
O85    O     0.88808   0.16752   0.27624   0.00000  Uiso   1.00
O86    O     0.80782   0.92965   0.84385   0.00000  Uiso   1.00
N87    N     0.94622   0.72349   0.21193   0.00000  Uiso   1.00
N88    N     0.95767   0.09426   0.22853   0.00000  Uiso   1.00
N89    N     0.90048   0.92477   0.92040   0.00000  Uiso   1.00
N90    N     0.78857   0.72473   0.22003   0.00000  Uiso   1.00
N91    N     0.80003   0.09549   0.23663   0.00000  Uiso   1.00
N92    N     0.74283   0.92600   0.92851   0.00000  Uiso   1.00
C93    C     0.44866   0.58597   0.88044   0.00000  Uiso   1.00
C94    C     0.40946   0.63818   0.85301   0.00000  Uiso   1.00
C95    C     0.46431   0.68277   0.83446   0.00000  Uiso   1.00
C96    C     0.41485   0.72659   0.81051   0.00000  Uiso   1.00
C97    C     0.36931   0.80778   0.76869   0.00000  Uiso   1.00
C98    C     0.41262   0.53600   0.84843   0.00000  Uiso   1.00
C99    C     0.47013   0.49467   0.82602   0.00000  Uiso   1.00
C100   C     0.42332   0.45247   0.79823   0.00000  Uiso   1.00
C101   C     0.38268   0.37499   0.74932   0.00000  Uiso   1.00
C102   C     0.39686   0.58272   0.93334   0.00000  Uiso   1.00
C103   C     0.44112   0.58066   0.98234   0.00000  Uiso   1.00
C104   C     0.38104   0.57778   0.02604   0.00000  Uiso   1.00
C105   C     0.31592   0.57285   0.10898   0.00000  Uiso   1.00
C106   C     0.26327   0.58451   0.87091   0.00000  Uiso   1.00
C107   C     0.30876   0.63739   0.84783   0.00000  Uiso   1.00
C108   C     0.25920   0.68116   0.82391   0.00000  Uiso   1.00
C109   C     0.31398   0.72580   0.80533   0.00000  Uiso   1.00
C110   C     0.31193   0.53521   0.84325   0.00000  Uiso   1.00
C111   C     0.26502   0.49306   0.81548   0.00000  Uiso   1.00
C112   C     0.32245   0.45168   0.79304   0.00000  Uiso   1.00
C113   C     0.29616   0.58193   0.92817   0.00000  Uiso   1.00
C114   C     0.23600   0.57905   0.97180   0.00000  Uiso   1.00
C115   C     0.28016   0.57699   0.02086   0.00000  Uiso   1.00
H116   H     0.52706   0.58658   0.88446   0.00000  Uiso   1.00
H117   H     0.54224   0.68336   0.83846   0.00000  Uiso   1.00
H118   H     0.54805   0.49529   0.83004   0.00000  Uiso   1.00
H119   H     0.51904   0.58127   0.98633   0.00000  Uiso   1.00
H120   H     0.51468   0.79031   0.78516   0.00000  Uiso   1.00
H121   H     0.52693   0.39373   0.76741   0.00000  Uiso   1.00
H122   H     0.46575   0.57504   0.09699   0.00000  Uiso   1.00
H123   H     0.18487   0.58390   0.86688   0.00000  Uiso   1.00
H124   H     0.18128   0.68054   0.81992   0.00000  Uiso   1.00
H125   H     0.18709   0.49246   0.81149   0.00000  Uiso   1.00
H126   H     0.15808   0.57844   0.96778   0.00000  Uiso   1.00
H127   H     0.22170   0.78801   0.77011   0.00000  Uiso   1.00
H128   H     0.23396   0.39144   0.75236   0.00000  Uiso   1.00
H129   H     0.17278   0.57274   0.08193   0.00000  Uiso   1.00
O130   O     0.37200   0.85277   0.74704   0.00000  Uiso   1.00
O131   O     0.38808   0.33248   0.72376   0.00000  Uiso   1.00
O132   O     0.30782   0.57035   0.15615   0.00000  Uiso   1.00
N133   N     0.44622   0.77651   0.78807   0.00000  Uiso   1.00
N134   N     0.45767   0.40574   0.77147   0.00000  Uiso   1.00
N135   N     0.40048   0.57523   0.07960   0.00000  Uiso   1.00
N136   N     0.28857   0.77527   0.77997   0.00000  Uiso   1.00
N137   N     0.30003   0.40451   0.76337   0.00000  Uiso   1.00
N138   N     0.24283   0.57400   0.07149   0.00000  Uiso   1.00
C139   C     0.05134   0.41403   0.38044   0.00000  Uiso   1.00
C140   C     0.09054   0.36182   0.35301   0.00000  Uiso   1.00
C141   C     0.03569   0.31723   0.33446   0.00000  Uiso   1.00
C142   C     0.08515   0.27341   0.31051   0.00000  Uiso   1.00
C143   C     0.13069   0.19222   0.26869   0.00000  Uiso   1.00
C144   C     0.08738   0.46400   0.34843   0.00000  Uiso   1.00
C145   C     0.02987   0.50533   0.32602   0.00000  Uiso   1.00
C146   C     0.07668   0.54753   0.29823   0.00000  Uiso   1.00
C147   C     0.11732   0.62501   0.24932   0.00000  Uiso   1.00
C148   C     0.10314   0.41728   0.43334   0.00000  Uiso   1.00
C149   C     0.05888   0.41934   0.48234   0.00000  Uiso   1.00
C150   C     0.11896   0.42222   0.52604   0.00000  Uiso   1.00
C151   C     0.18408   0.42715   0.60898   0.00000  Uiso   1.00
C152   C     0.23673   0.41549   0.37091   0.00000  Uiso   1.00
C153   C     0.19124   0.36261   0.34783   0.00000  Uiso   1.00
C154   C     0.24080   0.31884   0.32391   0.00000  Uiso   1.00
C155   C     0.18602   0.27420   0.30533   0.00000  Uiso   1.00
C156   C     0.18807   0.46479   0.34325   0.00000  Uiso   1.00
C157   C     0.23498   0.50694   0.31548   0.00000  Uiso   1.00
C158   C     0.17755   0.54832   0.29304   0.00000  Uiso   1.00
C159   C     0.20384   0.41807   0.42817   0.00000  Uiso   1.00
C160   C     0.26400   0.42095   0.47180   0.00000  Uiso   1.00
C161   C     0.21984   0.42301   0.52086   0.00000  Uiso   1.00
H162   H     0.97294   0.41342   0.38446   0.00000  Uiso   1.00
H163   H     0.95776   0.31664   0.33846   0.00000  Uiso   1.00
H164   H     0.95195   0.50471   0.33004   0.00000  Uiso   1.00
H165   H     0.98096   0.41873   0.48633   0.00000  Uiso   1.00
H166   H     0.98532   0.20969   0.28516   0.00000  Uiso   1.00
H167   H     0.97307   0.60627   0.26741   0.00000  Uiso   1.00
H168   H     0.03425   0.42496   0.59699   0.00000  Uiso   1.00
H169   H     0.31513   0.41610   0.36688   0.00000  Uiso   1.00
H170   H     0.31872   0.31946   0.31992   0.00000  Uiso   1.00
H171   H     0.31291   0.50754   0.31149   0.00000  Uiso   1.00
H172   H     0.34192   0.42156   0.46778   0.00000  Uiso   1.00
H173   H     0.27830   0.21199   0.27011   0.00000  Uiso   1.00
H174   H     0.26604   0.60856   0.25236   0.00000  Uiso   1.00
H175   H     0.32722   0.42726   0.58193   0.00000  Uiso   1.00
O176   O     0.12800   0.14723   0.24704   0.00000  Uiso   1.00
O177   O     0.11192   0.66752   0.22376   0.00000  Uiso   1.00
O178   O     0.19218   0.42965   0.65615   0.00000  Uiso   1.00
N179   N     0.05378   0.22349   0.28807   0.00000  Uiso   1.00
N180   N     0.04233   0.59426   0.27147   0.00000  Uiso   1.00
N181   N     0.09952   0.42477   0.57960   0.00000  Uiso   1.00
N182   N     0.21143   0.22473   0.27997   0.00000  Uiso   1.00
N183   N     0.19997   0.59549   0.26337   0.00000  Uiso   1.00
N184   N     0.25717   0.42600   0.57149   0.00000  Uiso   1.00
C185   C     0.44866   0.91403   0.38044   0.00000  Uiso   1.00
C186   C     0.40946   0.86182   0.35301   0.00000  Uiso   1.00
C187   C     0.46431   0.81723   0.33446   0.00000  Uiso   1.00
C188   C     0.41485   0.77341   0.31051   0.00000  Uiso   1.00
C189   C     0.36931   0.69222   0.26869   0.00000  Uiso   1.00
C190   C     0.41262   0.96400   0.34843   0.00000  Uiso   1.00
C191   C     0.47013   0.00533   0.32602   0.00000  Uiso   1.00
C192   C     0.42332   0.04753   0.29823   0.00000  Uiso   1.00
C193   C     0.38268   0.12501   0.24932   0.00000  Uiso   1.00
C194   C     0.39686   0.91728   0.43334   0.00000  Uiso   1.00
C195   C     0.44112   0.91934   0.48234   0.00000  Uiso   1.00
C196   C     0.38104   0.92222   0.52604   0.00000  Uiso   1.00
C197   C     0.31592   0.92715   0.60898   0.00000  Uiso   1.00
C198   C     0.26327   0.91549   0.37091   0.00000  Uiso   1.00
C199   C     0.30876   0.86261   0.34783   0.00000  Uiso   1.00
C200   C     0.25920   0.81884   0.32391   0.00000  Uiso   1.00
C201   C     0.31398   0.77420   0.30533   0.00000  Uiso   1.00
C202   C     0.31193   0.96479   0.34325   0.00000  Uiso   1.00
C203   C     0.26502   0.00694   0.31548   0.00000  Uiso   1.00
C204   C     0.32245   0.04832   0.29304   0.00000  Uiso   1.00
C205   C     0.29616   0.91807   0.42817   0.00000  Uiso   1.00
C206   C     0.23600   0.92095   0.47180   0.00000  Uiso   1.00
C207   C     0.28016   0.92301   0.52086   0.00000  Uiso   1.00
H208   H     0.52706   0.91342   0.38446   0.00000  Uiso   1.00
H209   H     0.54224   0.81664   0.33846   0.00000  Uiso   1.00
H210   H     0.54805   0.00471   0.33004   0.00000  Uiso   1.00
H211   H     0.51904   0.91873   0.48633   0.00000  Uiso   1.00
H212   H     0.51468   0.70969   0.28516   0.00000  Uiso   1.00
H213   H     0.52693   0.10627   0.26741   0.00000  Uiso   1.00
H214   H     0.46575   0.92496   0.59699   0.00000  Uiso   1.00
H215   H     0.18487   0.91610   0.36688   0.00000  Uiso   1.00
H216   H     0.18128   0.81946   0.31992   0.00000  Uiso   1.00
H217   H     0.18709   0.00754   0.31149   0.00000  Uiso   1.00
H218   H     0.15808   0.92156   0.46778   0.00000  Uiso   1.00
H219   H     0.22170   0.71199   0.27011   0.00000  Uiso   1.00
H220   H     0.23396   0.10856   0.25236   0.00000  Uiso   1.00
H221   H     0.17278   0.92726   0.58193   0.00000  Uiso   1.00
O222   O     0.37200   0.64723   0.24704   0.00000  Uiso   1.00
O223   O     0.38808   0.16752   0.22376   0.00000  Uiso   1.00
O224   O     0.30782   0.92965   0.65615   0.00000  Uiso   1.00
N225   N     0.44622   0.72349   0.28807   0.00000  Uiso   1.00
N226   N     0.45767   0.09426   0.27147   0.00000  Uiso   1.00
N227   N     0.40048   0.92477   0.57960   0.00000  Uiso   1.00
N228   N     0.28857   0.72473   0.27997   0.00000  Uiso   1.00
N229   N     0.30003   0.09549   0.26337   0.00000  Uiso   1.00
N230   N     0.24283   0.92600   0.57149   0.00000  Uiso   1.00
C231   C     0.05134   0.08597   0.88044   0.00000  Uiso   1.00
C232   C     0.09054   0.13818   0.85301   0.00000  Uiso   1.00
C233   C     0.03569   0.18277   0.83446   0.00000  Uiso   1.00
C234   C     0.08515   0.22659   0.81051   0.00000  Uiso   1.00
C235   C     0.13069   0.30778   0.76869   0.00000  Uiso   1.00
C236   C     0.08738   0.03600   0.84843   0.00000  Uiso   1.00
C237   C     0.02987   0.99467   0.82602   0.00000  Uiso   1.00
C238   C     0.07668   0.95247   0.79823   0.00000  Uiso   1.00
C239   C     0.11732   0.87499   0.74932   0.00000  Uiso   1.00
C240   C     0.10314   0.08272   0.93334   0.00000  Uiso   1.00
C241   C     0.05888   0.08066   0.98234   0.00000  Uiso   1.00
C242   C     0.11896   0.07778   0.02604   0.00000  Uiso   1.00
C243   C     0.18408   0.07285   0.10898   0.00000  Uiso   1.00
C244   C     0.23673   0.08451   0.87091   0.00000  Uiso   1.00
C245   C     0.19124   0.13739   0.84783   0.00000  Uiso   1.00
C246   C     0.24080   0.18116   0.82391   0.00000  Uiso   1.00
C247   C     0.18602   0.22580   0.80533   0.00000  Uiso   1.00
C248   C     0.18807   0.03521   0.84325   0.00000  Uiso   1.00
C249   C     0.23498   0.99306   0.81548   0.00000  Uiso   1.00
C250   C     0.17755   0.95168   0.79304   0.00000  Uiso   1.00
C251   C     0.20384   0.08193   0.92817   0.00000  Uiso   1.00
C252   C     0.26400   0.07905   0.97180   0.00000  Uiso   1.00
C253   C     0.21984   0.07699   0.02086   0.00000  Uiso   1.00
H254   H     0.97294   0.08658   0.88446   0.00000  Uiso   1.00
H255   H     0.95776   0.18336   0.83846   0.00000  Uiso   1.00
H256   H     0.95195   0.99529   0.83004   0.00000  Uiso   1.00
H257   H     0.98096   0.08127   0.98633   0.00000  Uiso   1.00
H258   H     0.98532   0.29031   0.78516   0.00000  Uiso   1.00
H259   H     0.97307   0.89373   0.76741   0.00000  Uiso   1.00
H260   H     0.03425   0.07504   0.09699   0.00000  Uiso   1.00
H261   H     0.31513   0.08390   0.86688   0.00000  Uiso   1.00
H262   H     0.31872   0.18054   0.81992   0.00000  Uiso   1.00
H263   H     0.31291   0.99246   0.81149   0.00000  Uiso   1.00
H264   H     0.34192   0.07844   0.96778   0.00000  Uiso   1.00
H265   H     0.27830   0.28801   0.77011   0.00000  Uiso   1.00
H266   H     0.26604   0.89144   0.75236   0.00000  Uiso   1.00
H267   H     0.32722   0.07274   0.08193   0.00000  Uiso   1.00
O268   O     0.12800   0.35277   0.74704   0.00000  Uiso   1.00
O269   O     0.11192   0.83248   0.72376   0.00000  Uiso   1.00
O270   O     0.19218   0.07035   0.15615   0.00000  Uiso   1.00
N271   N     0.05378   0.27651   0.78807   0.00000  Uiso   1.00
N272   N     0.04233   0.90574   0.77147   0.00000  Uiso   1.00
N273   N     0.09952   0.07523   0.07960   0.00000  Uiso   1.00
N274   N     0.21143   0.27527   0.77997   0.00000  Uiso   1.00
N275   N     0.19997   0.90451   0.76337   0.00000  Uiso   1.00
N276   N     0.25717   0.07400   0.07149   0.00000  Uiso   1.00
C277   C     0.55134   0.41403   0.11956   0.00000  Uiso   1.00
C278   C     0.59054   0.36182   0.14699   0.00000  Uiso   1.00
C279   C     0.53569   0.31723   0.16554   0.00000  Uiso   1.00
C280   C     0.58515   0.27341   0.18949   0.00000  Uiso   1.00
C281   C     0.63069   0.19222   0.23131   0.00000  Uiso   1.00
C282   C     0.58738   0.46400   0.15157   0.00000  Uiso   1.00
C283   C     0.52987   0.50533   0.17398   0.00000  Uiso   1.00
C284   C     0.57668   0.54753   0.20177   0.00000  Uiso   1.00
C285   C     0.61732   0.62501   0.25068   0.00000  Uiso   1.00
C286   C     0.60314   0.41728   0.06666   0.00000  Uiso   1.00
C287   C     0.55888   0.41934   0.01766   0.00000  Uiso   1.00
C288   C     0.61896   0.42222   0.97396   0.00000  Uiso   1.00
C289   C     0.68408   0.42715   0.89102   0.00000  Uiso   1.00
C290   C     0.73673   0.41549   0.12909   0.00000  Uiso   1.00
C291   C     0.69124   0.36261   0.15217   0.00000  Uiso   1.00
C292   C     0.74080   0.31884   0.17609   0.00000  Uiso   1.00
C293   C     0.68602   0.27420   0.19467   0.00000  Uiso   1.00
C294   C     0.68807   0.46479   0.15675   0.00000  Uiso   1.00
C295   C     0.73498   0.50694   0.18452   0.00000  Uiso   1.00
C296   C     0.67755   0.54832   0.20696   0.00000  Uiso   1.00
C297   C     0.70384   0.41807   0.07183   0.00000  Uiso   1.00
C298   C     0.76400   0.42095   0.02820   0.00000  Uiso   1.00
C299   C     0.71984   0.42301   0.97914   0.00000  Uiso   1.00
H300   H     0.47294   0.41342   0.11554   0.00000  Uiso   1.00
H301   H     0.45776   0.31664   0.16154   0.00000  Uiso   1.00
H302   H     0.45195   0.50471   0.16996   0.00000  Uiso   1.00
H303   H     0.48096   0.41873   0.01367   0.00000  Uiso   1.00
H304   H     0.48532   0.20969   0.21484   0.00000  Uiso   1.00
H305   H     0.47307   0.60627   0.23259   0.00000  Uiso   1.00
H306   H     0.53425   0.42496   0.90301   0.00000  Uiso   1.00
H307   H     0.81513   0.41610   0.13312   0.00000  Uiso   1.00
H308   H     0.81872   0.31946   0.18008   0.00000  Uiso   1.00
H309   H     0.81291   0.50754   0.18851   0.00000  Uiso   1.00
H310   H     0.84192   0.42156   0.03222   0.00000  Uiso   1.00
H311   H     0.77830   0.21199   0.22989   0.00000  Uiso   1.00
H312   H     0.76604   0.60856   0.24764   0.00000  Uiso   1.00
H313   H     0.82722   0.42726   0.91807   0.00000  Uiso   1.00
O314   O     0.62800   0.14723   0.25296   0.00000  Uiso   1.00
O315   O     0.61192   0.66752   0.27624   0.00000  Uiso   1.00
O316   O     0.69218   0.42965   0.84385   0.00000  Uiso   1.00
N317   N     0.55378   0.22349   0.21193   0.00000  Uiso   1.00
N318   N     0.54233   0.59426   0.22853   0.00000  Uiso   1.00
N319   N     0.59952   0.42477   0.92040   0.00000  Uiso   1.00
N320   N     0.71143   0.22473   0.22003   0.00000  Uiso   1.00
N321   N     0.69997   0.59549   0.23663   0.00000  Uiso   1.00
N322   N     0.75717   0.42600   0.92851   0.00000  Uiso   1.00
C323   C     0.94866   0.58597   0.61956   0.00000  Uiso   1.00
C324   C     0.90946   0.63818   0.64699   0.00000  Uiso   1.00
C325   C     0.96431   0.68277   0.66554   0.00000  Uiso   1.00
C326   C     0.91485   0.72659   0.68949   0.00000  Uiso   1.00
C327   C     0.86931   0.80778   0.73131   0.00000  Uiso   1.00
C328   C     0.91262   0.53600   0.65157   0.00000  Uiso   1.00
C329   C     0.97013   0.49467   0.67398   0.00000  Uiso   1.00
C330   C     0.92332   0.45247   0.70177   0.00000  Uiso   1.00
C331   C     0.88268   0.37499   0.75068   0.00000  Uiso   1.00
C332   C     0.89686   0.58272   0.56666   0.00000  Uiso   1.00
C333   C     0.94112   0.58066   0.51766   0.00000  Uiso   1.00
C334   C     0.88104   0.57778   0.47396   0.00000  Uiso   1.00
C335   C     0.81592   0.57285   0.39102   0.00000  Uiso   1.00
C336   C     0.76327   0.58451   0.62909   0.00000  Uiso   1.00
C337   C     0.80876   0.63739   0.65217   0.00000  Uiso   1.00
C338   C     0.75920   0.68116   0.67609   0.00000  Uiso   1.00
C339   C     0.81398   0.72580   0.69467   0.00000  Uiso   1.00
C340   C     0.81193   0.53521   0.65675   0.00000  Uiso   1.00
C341   C     0.76502   0.49306   0.68452   0.00000  Uiso   1.00
C342   C     0.82245   0.45168   0.70696   0.00000  Uiso   1.00
C343   C     0.79616   0.58193   0.57183   0.00000  Uiso   1.00
C344   C     0.73600   0.57905   0.52820   0.00000  Uiso   1.00
C345   C     0.78016   0.57699   0.47914   0.00000  Uiso   1.00
H346   H     0.02706   0.58658   0.61554   0.00000  Uiso   1.00
H347   H     0.04224   0.68336   0.66154   0.00000  Uiso   1.00
H348   H     0.04805   0.49529   0.66996   0.00000  Uiso   1.00
H349   H     0.01904   0.58127   0.51367   0.00000  Uiso   1.00
H350   H     0.01468   0.79031   0.71484   0.00000  Uiso   1.00
H351   H     0.02693   0.39373   0.73259   0.00000  Uiso   1.00
H352   H     0.96575   0.57504   0.40301   0.00000  Uiso   1.00
H353   H     0.68487   0.58390   0.63312   0.00000  Uiso   1.00
H354   H     0.68128   0.68054   0.68008   0.00000  Uiso   1.00
H355   H     0.68709   0.49246   0.68851   0.00000  Uiso   1.00
H356   H     0.65808   0.57844   0.53222   0.00000  Uiso   1.00
H357   H     0.72170   0.78801   0.72989   0.00000  Uiso   1.00
H358   H     0.73396   0.39144   0.74764   0.00000  Uiso   1.00
H359   H     0.67278   0.57274   0.41807   0.00000  Uiso   1.00
O360   O     0.87200   0.85277   0.75296   0.00000  Uiso   1.00
O361   O     0.88808   0.33248   0.77624   0.00000  Uiso   1.00
O362   O     0.80782   0.57035   0.34385   0.00000  Uiso   1.00
N363   N     0.94622   0.77651   0.71193   0.00000  Uiso   1.00
N364   N     0.95767   0.40574   0.72853   0.00000  Uiso   1.00
N365   N     0.90048   0.57523   0.42040   0.00000  Uiso   1.00
N366   N     0.78857   0.77527   0.72003   0.00000  Uiso   1.00
N367   N     0.80003   0.40451   0.73663   0.00000  Uiso   1.00
N368   N     0.74283   0.57400   0.42851   0.00000  Uiso   1.00
