data_job_04062
_audit_creation_date              2018-12-19
_audit_creation_method            'Materials Studio'
_symmetry_space_group_name_H-M    'P1'
_symmetry_Int_Tables_number       1
_symmetry_cell_setting            triclinic
loop_
_symmetry_equiv_pos_as_xyz
  x,y,z
_cell_length_a                    20.2367
_cell_length_b                    20.2367
_cell_length_c                    12.1427
_cell_angle_alpha                 90.0000
_cell_angle_beta                  90.0000
_cell_angle_gamma                 120.0000
loop_
_atom_site_label
_atom_site_type_symbol
_atom_site_fract_x
_atom_site_fract_y
_atom_site_fract_z
_atom_site_U_iso_or_equiv
_atom_site_adp_type
_atom_site_occupancy
C1     C     0.29942   0.90965   0.41364   0.00000  Uiso   1.00
C2     C     0.24720   0.88593   0.31327   0.00000  Uiso   1.00
C3     C     0.21696   0.81647   0.25892   0.00000  Uiso   1.00
C4     C     0.17045   0.80579   0.16877   0.00000  Uiso   1.00
C5     C     0.09178   0.76033   0.01812   0.00000  Uiso   1.00
C6     C     0.37117   0.98363   0.38180   0.00000  Uiso   1.00
C7     C     0.44518   0.99630   0.38509   0.00000  Uiso   1.00
C8     C     0.50303   0.06787   0.35264   0.00000  Uiso   1.00
C9     C     0.61684   0.17410   0.30847   0.00000  Uiso   1.00
C10    C     0.26012   0.93105   0.50237   0.00000  Uiso   1.00
C11    C     0.24076   0.89954   0.60705   0.00000  Uiso   1.00
C12    C     0.20512   0.92686   0.67612   0.00000  Uiso   1.00
C13    C     0.14650   0.95146   0.81915   0.00000  Uiso   1.00
C14    C     0.27057   0.01422   0.35018   0.00000  Uiso   1.00
C15    C     0.23153   0.94273   0.27880   0.00000  Uiso   1.00
C16    C     0.18505   0.93215   0.18871   0.00000  Uiso   1.00
C17    C     0.15475   0.86268   0.13424   0.00000  Uiso   1.00
C18    C     0.35551   0.04042   0.34733   0.00000  Uiso   1.00
C19    C     0.41326   0.11199   0.31488   0.00000  Uiso   1.00
C20    C     0.48733   0.12477   0.31811   0.00000  Uiso   1.00
C21    C     0.24444   0.98785   0.46790   0.00000  Uiso   1.00
C22    C     0.20884   0.01522   0.53683   0.00000  Uiso   1.00
C23    C     0.18943   0.98376   0.64159   0.00000  Uiso   1.00
H24    H     0.31162   0.86544   0.44048   0.00000  Uiso   1.00
H25    H     0.22911   0.77253   0.28562   0.00000  Uiso   1.00
H26    H     0.45729   0.95234   0.41178   0.00000  Uiso   1.00
H27    H     0.25290   0.85559   0.63369   0.00000  Uiso   1.00
H28    H     0.13074   0.69458   0.09870   0.00000  Uiso   1.00
H29    H     0.61187   0.07373   0.36475   0.00000  Uiso   1.00
H30    H     0.18088   0.86972   0.83271   0.00000  Uiso   1.00
H31    H     0.25837   0.05844   0.32335   0.00000  Uiso   1.00
H32    H     0.17293   0.97612   0.16205   0.00000  Uiso   1.00
H33    H     0.40111   0.15593   0.28821   0.00000  Uiso   1.00
H34    H     0.19672   0.05918   0.51013   0.00000  Uiso   1.00
H35    H     0.08515   0.85982   0.99841   0.00000  Uiso   1.00
H36    H     0.56628   0.23897   0.26446   0.00000  Uiso   1.00
H37    H     0.13528   0.03495   0.73242   0.00000  Uiso   1.00
O38    O     0.05273   0.71958   0.94454   0.00000  Uiso   1.00
O39    O     0.68394   0.21701   0.29361   0.00000  Uiso   1.00
O40    O     0.11849   0.94934   0.90756   0.00000  Uiso   1.00
N41    N     0.13173   0.74476   0.09724   0.00000  Uiso   1.00
N42    N     0.58155   0.09924   0.34597   0.00000  Uiso   1.00
N43    N     0.17862   0.90852   0.78348   0.00000  Uiso   1.00
N44    N     0.10719   0.83368   0.04328   0.00000  Uiso   1.00
N45    N     0.55702   0.18815   0.29200   0.00000  Uiso   1.00
N46    N     0.15409   0.99743   0.72952   0.00000  Uiso   1.00
C47    C     0.09035   0.38977   0.41364   0.00000  Uiso   1.00
C48    C     0.11407   0.36126   0.31327   0.00000  Uiso   1.00
C49    C     0.18353   0.40050   0.25892   0.00000  Uiso   1.00
C50    C     0.19421   0.36466   0.16877   0.00000  Uiso   1.00
C51    C     0.23967   0.33145   0.01812   0.00000  Uiso   1.00
C52    C     0.01637   0.38755   0.38180   0.00000  Uiso   1.00
C53    C     0.00370   0.44888   0.38509   0.00000  Uiso   1.00
C54    C     0.93213   0.43516   0.35264   0.00000  Uiso   1.00
C55    C     0.82590   0.44273   0.30847   0.00000  Uiso   1.00
C56    C     0.06895   0.32906   0.50237   0.00000  Uiso   1.00
C57    C     0.10046   0.34122   0.60705   0.00000  Uiso   1.00
C58    C     0.07314   0.27827   0.67612   0.00000  Uiso   1.00
C59    C     0.04854   0.19504   0.81915   0.00000  Uiso   1.00
C60    C     0.98578   0.25635   0.35018   0.00000  Uiso   1.00
C61    C     0.05727   0.28880   0.27880   0.00000  Uiso   1.00
C62    C     0.06785   0.25289   0.18871   0.00000  Uiso   1.00
C63    C     0.13732   0.29207   0.13424   0.00000  Uiso   1.00
C64    C     0.95958   0.31508   0.34733   0.00000  Uiso   1.00
C65    C     0.88801   0.30127   0.31488   0.00000  Uiso   1.00
C66    C     0.87523   0.36256   0.31811   0.00000  Uiso   1.00
C67    C     0.01215   0.25660   0.46790   0.00000  Uiso   1.00
C68    C     0.98478   0.19361   0.53683   0.00000  Uiso   1.00
C69    C     0.01624   0.20567   0.64159   0.00000  Uiso   1.00
H70    H     0.13456   0.44618   0.44048   0.00000  Uiso   1.00
H71    H     0.22747   0.45658   0.28562   0.00000  Uiso   1.00
H72    H     0.04766   0.50495   0.41178   0.00000  Uiso   1.00
H73    H     0.14441   0.39731   0.63369   0.00000  Uiso   1.00
H74    H     0.30542   0.43616   0.09870   0.00000  Uiso   1.00
H75    H     0.92627   0.53814   0.36475   0.00000  Uiso   1.00
H76    H     0.13028   0.31116   0.83271   0.00000  Uiso   1.00
H77    H     0.94156   0.19993   0.32335   0.00000  Uiso   1.00
H78    H     0.02388   0.19681   0.16205   0.00000  Uiso   1.00
H79    H     0.84407   0.24518   0.28821   0.00000  Uiso   1.00
H80    H     0.94082   0.13754   0.51013   0.00000  Uiso   1.00
H81    H     0.14018   0.22533   0.99841   0.00000  Uiso   1.00
H82    H     0.76103   0.32731   0.26446   0.00000  Uiso   1.00
H83    H     0.96505   0.10033   0.73242   0.00000  Uiso   1.00
O84    O     0.28042   0.33315   0.94454   0.00000  Uiso   1.00
O85    O     0.78299   0.46694   0.29361   0.00000  Uiso   1.00
O86    O     0.05066   0.16915   0.90756   0.00000  Uiso   1.00
N87    N     0.25524   0.38696   0.09724   0.00000  Uiso   1.00
N88    N     0.90076   0.48231   0.34597   0.00000  Uiso   1.00
N89    N     0.09148   0.27011   0.78348   0.00000  Uiso   1.00
N90    N     0.16632   0.27352   0.04328   0.00000  Uiso   1.00
N91    N     0.81185   0.36886   0.29200   0.00000  Uiso   1.00
N92    N     0.00257   0.15666   0.72952   0.00000  Uiso   1.00
C93    C     0.61023   0.70058   0.41364   0.00000  Uiso   1.00
C94    C     0.63874   0.75280   0.31327   0.00000  Uiso   1.00
C95    C     0.59950   0.78304   0.25892   0.00000  Uiso   1.00
C96    C     0.63534   0.82955   0.16877   0.00000  Uiso   1.00
C97    C     0.66855   0.90822   0.01812   0.00000  Uiso   1.00
C98    C     0.61245   0.62883   0.38180   0.00000  Uiso   1.00
C99    C     0.55112   0.55482   0.38509   0.00000  Uiso   1.00
C100   C     0.56484   0.49697   0.35264   0.00000  Uiso   1.00
C101   C     0.55727   0.38316   0.30847   0.00000  Uiso   1.00
C102   C     0.67094   0.73988   0.50237   0.00000  Uiso   1.00
C103   C     0.65878   0.75924   0.60705   0.00000  Uiso   1.00
C104   C     0.72173   0.79488   0.67612   0.00000  Uiso   1.00
C105   C     0.80496   0.85350   0.81915   0.00000  Uiso   1.00
C106   C     0.74365   0.72943   0.35018   0.00000  Uiso   1.00
C107   C     0.71120   0.76847   0.27880   0.00000  Uiso   1.00
C108   C     0.74711   0.81495   0.18871   0.00000  Uiso   1.00
C109   C     0.70793   0.84525   0.13424   0.00000  Uiso   1.00
C110   C     0.68492   0.64449   0.34733   0.00000  Uiso   1.00
C111   C     0.69873   0.58674   0.31488   0.00000  Uiso   1.00
C112   C     0.63744   0.51267   0.31811   0.00000  Uiso   1.00
C113   C     0.74340   0.75556   0.46790   0.00000  Uiso   1.00
C114   C     0.80639   0.79116   0.53683   0.00000  Uiso   1.00
C115   C     0.79433   0.81057   0.64159   0.00000  Uiso   1.00
H116   H     0.55382   0.68838   0.44048   0.00000  Uiso   1.00
H117   H     0.54342   0.77089   0.28562   0.00000  Uiso   1.00
H118   H     0.49505   0.54271   0.41178   0.00000  Uiso   1.00
H119   H     0.60269   0.74710   0.63369   0.00000  Uiso   1.00
H120   H     0.56384   0.86926   0.09870   0.00000  Uiso   1.00
H121   H     0.46186   0.38813   0.36475   0.00000  Uiso   1.00
H122   H     0.68884   0.81912   0.83271   0.00000  Uiso   1.00
H123   H     0.80007   0.74163   0.32335   0.00000  Uiso   1.00
H124   H     0.80319   0.82707   0.16205   0.00000  Uiso   1.00
H125   H     0.75482   0.59889   0.28821   0.00000  Uiso   1.00
H126   H     0.86246   0.80328   0.51013   0.00000  Uiso   1.00
H127   H     0.77467   0.91485   0.99841   0.00000  Uiso   1.00
H128   H     0.67269   0.43372   0.26446   0.00000  Uiso   1.00
H129   H     0.89967   0.86472   0.73242   0.00000  Uiso   1.00
O130   O     0.66685   0.94727   0.94454   0.00000  Uiso   1.00
O131   O     0.53306   0.31606   0.29361   0.00000  Uiso   1.00
O132   O     0.83085   0.88151   0.90756   0.00000  Uiso   1.00
N133   N     0.61304   0.86827   0.09724   0.00000  Uiso   1.00
N134   N     0.51769   0.41845   0.34597   0.00000  Uiso   1.00
N135   N     0.72989   0.82138   0.78348   0.00000  Uiso   1.00
N136   N     0.72648   0.89281   0.04328   0.00000  Uiso   1.00
N137   N     0.63114   0.44298   0.29200   0.00000  Uiso   1.00
N138   N     0.84334   0.84591   0.72952   0.00000  Uiso   1.00
C139   C     0.70058   0.09035   0.58636   0.00000  Uiso   1.00
C140   C     0.75280   0.11407   0.68673   0.00000  Uiso   1.00
C141   C     0.78304   0.18353   0.74108   0.00000  Uiso   1.00
C142   C     0.82955   0.19421   0.83123   0.00000  Uiso   1.00
C143   C     0.90822   0.23967   0.98188   0.00000  Uiso   1.00
C144   C     0.62883   0.01637   0.61820   0.00000  Uiso   1.00
C145   C     0.55482   0.00370   0.61491   0.00000  Uiso   1.00
C146   C     0.49697   0.93213   0.64736   0.00000  Uiso   1.00
C147   C     0.38316   0.82590   0.69153   0.00000  Uiso   1.00
C148   C     0.73988   0.06895   0.49763   0.00000  Uiso   1.00
C149   C     0.75924   0.10046   0.39295   0.00000  Uiso   1.00
C150   C     0.79488   0.07314   0.32388   0.00000  Uiso   1.00
C151   C     0.85350   0.04854   0.18085   0.00000  Uiso   1.00
C152   C     0.72943   0.98578   0.64982   0.00000  Uiso   1.00
C153   C     0.76847   0.05727   0.72120   0.00000  Uiso   1.00
C154   C     0.81495   0.06785   0.81129   0.00000  Uiso   1.00
C155   C     0.84525   0.13732   0.86576   0.00000  Uiso   1.00
C156   C     0.64449   0.95958   0.65267   0.00000  Uiso   1.00
C157   C     0.58674   0.88801   0.68512   0.00000  Uiso   1.00
C158   C     0.51267   0.87523   0.68189   0.00000  Uiso   1.00
C159   C     0.75556   0.01215   0.53210   0.00000  Uiso   1.00
C160   C     0.79116   0.98478   0.46317   0.00000  Uiso   1.00
C161   C     0.81057   0.01624   0.35841   0.00000  Uiso   1.00
H162   H     0.68838   0.13456   0.55952   0.00000  Uiso   1.00
H163   H     0.77089   0.22747   0.71438   0.00000  Uiso   1.00
H164   H     0.54271   0.04766   0.58822   0.00000  Uiso   1.00
H165   H     0.74710   0.14441   0.36631   0.00000  Uiso   1.00
H166   H     0.86926   0.30542   0.90130   0.00000  Uiso   1.00
H167   H     0.38813   0.92627   0.63525   0.00000  Uiso   1.00
H168   H     0.81912   0.13028   0.16729   0.00000  Uiso   1.00
H169   H     0.74163   0.94156   0.67665   0.00000  Uiso   1.00
H170   H     0.82707   0.02388   0.83795   0.00000  Uiso   1.00
H171   H     0.59889   0.84407   0.71179   0.00000  Uiso   1.00
H172   H     0.80328   0.94082   0.48987   0.00000  Uiso   1.00
H173   H     0.91485   0.14018   0.00159   0.00000  Uiso   1.00
H174   H     0.43372   0.76103   0.73554   0.00000  Uiso   1.00
H175   H     0.86472   0.96505   0.26758   0.00000  Uiso   1.00
O176   O     0.94727   0.28042   0.05546   0.00000  Uiso   1.00
O177   O     0.31606   0.78299   0.70639   0.00000  Uiso   1.00
O178   O     0.88151   0.05066   0.09244   0.00000  Uiso   1.00
N179   N     0.86827   0.25524   0.90276   0.00000  Uiso   1.00
N180   N     0.41845   0.90076   0.65403   0.00000  Uiso   1.00
N181   N     0.82138   0.09148   0.21652   0.00000  Uiso   1.00
N182   N     0.89281   0.16632   0.95672   0.00000  Uiso   1.00
N183   N     0.44298   0.81185   0.70800   0.00000  Uiso   1.00
N184   N     0.84591   0.00257   0.27048   0.00000  Uiso   1.00
C185   C     0.90965   0.61023   0.58636   0.00000  Uiso   1.00
C186   C     0.88593   0.63874   0.68673   0.00000  Uiso   1.00
C187   C     0.81647   0.59950   0.74108   0.00000  Uiso   1.00
C188   C     0.80579   0.63534   0.83123   0.00000  Uiso   1.00
C189   C     0.76033   0.66855   0.98188   0.00000  Uiso   1.00
C190   C     0.98363   0.61245   0.61820   0.00000  Uiso   1.00
C191   C     0.99630   0.55112   0.61491   0.00000  Uiso   1.00
C192   C     0.06787   0.56484   0.64736   0.00000  Uiso   1.00
C193   C     0.17410   0.55727   0.69153   0.00000  Uiso   1.00
C194   C     0.93105   0.67094   0.49763   0.00000  Uiso   1.00
C195   C     0.89954   0.65878   0.39295   0.00000  Uiso   1.00
C196   C     0.92686   0.72173   0.32388   0.00000  Uiso   1.00
C197   C     0.95146   0.80496   0.18085   0.00000  Uiso   1.00
C198   C     0.01422   0.74365   0.64982   0.00000  Uiso   1.00
C199   C     0.94273   0.71120   0.72120   0.00000  Uiso   1.00
C200   C     0.93215   0.74711   0.81129   0.00000  Uiso   1.00
C201   C     0.86268   0.70793   0.86576   0.00000  Uiso   1.00
C202   C     0.04042   0.68492   0.65267   0.00000  Uiso   1.00
C203   C     0.11199   0.69873   0.68512   0.00000  Uiso   1.00
C204   C     0.12477   0.63744   0.68189   0.00000  Uiso   1.00
C205   C     0.98785   0.74340   0.53210   0.00000  Uiso   1.00
C206   C     0.01522   0.80639   0.46317   0.00000  Uiso   1.00
C207   C     0.98376   0.79433   0.35841   0.00000  Uiso   1.00
H208   H     0.86544   0.55382   0.55952   0.00000  Uiso   1.00
H209   H     0.77253   0.54342   0.71438   0.00000  Uiso   1.00
H210   H     0.95234   0.49505   0.58822   0.00000  Uiso   1.00
H211   H     0.85559   0.60269   0.36631   0.00000  Uiso   1.00
H212   H     0.69458   0.56384   0.90130   0.00000  Uiso   1.00
H213   H     0.07373   0.46186   0.63525   0.00000  Uiso   1.00
H214   H     0.86972   0.68884   0.16729   0.00000  Uiso   1.00
H215   H     0.05844   0.80007   0.67665   0.00000  Uiso   1.00
H216   H     0.97612   0.80319   0.83795   0.00000  Uiso   1.00
H217   H     0.15593   0.75482   0.71179   0.00000  Uiso   1.00
H218   H     0.05918   0.86246   0.48987   0.00000  Uiso   1.00
H219   H     0.85982   0.77467   0.00159   0.00000  Uiso   1.00
H220   H     0.23897   0.67269   0.73554   0.00000  Uiso   1.00
H221   H     0.03495   0.89967   0.26758   0.00000  Uiso   1.00
O222   O     0.71958   0.66685   0.05546   0.00000  Uiso   1.00
O223   O     0.21701   0.53306   0.70639   0.00000  Uiso   1.00
O224   O     0.94934   0.83085   0.09244   0.00000  Uiso   1.00
N225   N     0.74476   0.61304   0.90276   0.00000  Uiso   1.00
N226   N     0.09924   0.51769   0.65403   0.00000  Uiso   1.00
N227   N     0.90852   0.72989   0.21652   0.00000  Uiso   1.00
N228   N     0.83368   0.72648   0.95672   0.00000  Uiso   1.00
N229   N     0.18815   0.63114   0.70800   0.00000  Uiso   1.00
N230   N     0.99743   0.84334   0.27048   0.00000  Uiso   1.00
C231   C     0.38977   0.29942   0.58636   0.00000  Uiso   1.00
C232   C     0.36126   0.24720   0.68673   0.00000  Uiso   1.00
C233   C     0.40050   0.21696   0.74108   0.00000  Uiso   1.00
C234   C     0.36466   0.17045   0.83123   0.00000  Uiso   1.00
C235   C     0.33145   0.09178   0.98188   0.00000  Uiso   1.00
C236   C     0.38755   0.37117   0.61820   0.00000  Uiso   1.00
C237   C     0.44888   0.44518   0.61491   0.00000  Uiso   1.00
C238   C     0.43516   0.50303   0.64736   0.00000  Uiso   1.00
C239   C     0.44273   0.61684   0.69153   0.00000  Uiso   1.00
C240   C     0.32906   0.26012   0.49763   0.00000  Uiso   1.00
C241   C     0.34122   0.24076   0.39295   0.00000  Uiso   1.00
C242   C     0.27827   0.20512   0.32388   0.00000  Uiso   1.00
C243   C     0.19504   0.14650   0.18085   0.00000  Uiso   1.00
C244   C     0.25635   0.27057   0.64982   0.00000  Uiso   1.00
C245   C     0.28880   0.23153   0.72120   0.00000  Uiso   1.00
C246   C     0.25289   0.18505   0.81129   0.00000  Uiso   1.00
C247   C     0.29207   0.15475   0.86576   0.00000  Uiso   1.00
C248   C     0.31508   0.35551   0.65267   0.00000  Uiso   1.00
C249   C     0.30127   0.41326   0.68512   0.00000  Uiso   1.00
C250   C     0.36256   0.48733   0.68189   0.00000  Uiso   1.00
C251   C     0.25660   0.24444   0.53210   0.00000  Uiso   1.00
C252   C     0.19361   0.20884   0.46317   0.00000  Uiso   1.00
C253   C     0.20567   0.18943   0.35841   0.00000  Uiso   1.00
H254   H     0.44618   0.31162   0.55952   0.00000  Uiso   1.00
H255   H     0.45658   0.22911   0.71438   0.00000  Uiso   1.00
H256   H     0.50495   0.45729   0.58822   0.00000  Uiso   1.00
H257   H     0.39731   0.25290   0.36631   0.00000  Uiso   1.00
H258   H     0.43616   0.13074   0.90130   0.00000  Uiso   1.00
H259   H     0.53814   0.61187   0.63525   0.00000  Uiso   1.00
H260   H     0.31116   0.18088   0.16729   0.00000  Uiso   1.00
H261   H     0.19993   0.25837   0.67665   0.00000  Uiso   1.00
H262   H     0.19681   0.17293   0.83795   0.00000  Uiso   1.00
H263   H     0.24518   0.40111   0.71179   0.00000  Uiso   1.00
H264   H     0.13754   0.19672   0.48987   0.00000  Uiso   1.00
H265   H     0.22533   0.08515   0.00159   0.00000  Uiso   1.00
H266   H     0.32731   0.56628   0.73554   0.00000  Uiso   1.00
H267   H     0.10033   0.13528   0.26758   0.00000  Uiso   1.00
O268   O     0.33315   0.05273   0.05546   0.00000  Uiso   1.00
O269   O     0.46694   0.68394   0.70639   0.00000  Uiso   1.00
O270   O     0.16915   0.11849   0.09244   0.00000  Uiso   1.00
N271   N     0.38696   0.13173   0.90276   0.00000  Uiso   1.00
N272   N     0.48231   0.58155   0.65403   0.00000  Uiso   1.00
N273   N     0.27011   0.17862   0.21652   0.00000  Uiso   1.00
N274   N     0.27352   0.10719   0.95672   0.00000  Uiso   1.00
N275   N     0.36886   0.55702   0.70800   0.00000  Uiso   1.00
N276   N     0.15666   0.15409   0.27048   0.00000  Uiso   1.00
