data_job_00669
_audit_creation_date              2018-12-19
_audit_creation_method            'Materials Studio'
_symmetry_space_group_name_H-M    'P1'
_symmetry_Int_Tables_number       1
_symmetry_cell_setting            triclinic
loop_
_symmetry_equiv_pos_as_xyz
  x,y,z
_cell_length_a                    34.5129
_cell_length_b                    14.1559
_cell_length_c                    9.6361
_cell_angle_alpha                 90.0000
_cell_angle_beta                  94.3220
_cell_angle_gamma                 90.0000
loop_
_atom_site_label
_atom_site_type_symbol
_atom_site_fract_x
_atom_site_fract_y
_atom_site_fract_z
_atom_site_U_iso_or_equiv
_atom_site_adp_type
_atom_site_occupancy
C1     C     0.37927   0.21192   0.32665   0.00000  Uiso   1.00
C2     C     0.38233   0.20671   0.48516   0.00000  Uiso   1.00
C3     C     0.40138   0.13684   0.56500   0.00000  Uiso   1.00
C4     C     0.40086   0.14471   0.70847   0.00000  Uiso   1.00
C5     C     0.40848   0.12517   0.94528   0.00000  Uiso   1.00
C6     C     0.33595   0.21581   0.28211   0.00000  Uiso   1.00
C7     C     0.31600   0.15359   0.19121   0.00000  Uiso   1.00
C8     C     0.27644   0.16914   0.16374   0.00000  Uiso   1.00
C9     C     0.21206   0.16376   0.08522   0.00000  Uiso   1.00
C10    C     0.39569   0.30798   0.28998   0.00000  Uiso   1.00
C11    C     0.42595   0.32328   0.20566   0.00000  Uiso   1.00
C12    C     0.43669   0.41643   0.18478   0.00000  Uiso   1.00
C13    C     0.46505   0.55417   0.11849   0.00000  Uiso   1.00
C14    C     0.34450   0.35016   0.43946   0.00000  Uiso   1.00
C15    C     0.36345   0.28180   0.54643   0.00000  Uiso   1.00
C16    C     0.36291   0.28978   0.68981   0.00000  Uiso   1.00
C17    C     0.38195   0.21994   0.76986   0.00000  Uiso   1.00
C18    C     0.31707   0.29089   0.34338   0.00000  Uiso   1.00
C19    C     0.27753   0.30654   0.31602   0.00000  Uiso   1.00
C20    C     0.25752   0.24436   0.22512   0.00000  Uiso   1.00
C21    C     0.37680   0.38307   0.35125   0.00000  Uiso   1.00
C22    C     0.38749   0.47622   0.33048   0.00000  Uiso   1.00
C23    C     0.41777   0.49165   0.24616   0.00000  Uiso   1.00
H24    H     0.39397   0.15346   0.27894   0.00000  Uiso   1.00
H25    H     0.41598   0.07874   0.51755   0.00000  Uiso   1.00
H26    H     0.33062   0.09550   0.14380   0.00000  Uiso   1.00
H27    H     0.44056   0.26515   0.15827   0.00000  Uiso   1.00
H28    H     0.43205   0.02898   0.80910   0.00000  Uiso   1.00
H29    H     0.25206   0.06434   0.02101   0.00000  Uiso   1.00
H30    H     0.48389   0.42209   0.05150   0.00000  Uiso   1.00
H31    H     0.32979   0.40862   0.48716   0.00000  Uiso   1.00
H32    H     0.34829   0.34790   0.73720   0.00000  Uiso   1.00
H33    H     0.26293   0.36465   0.36345   0.00000  Uiso   1.00
H34    H     0.37287   0.53431   0.37792   0.00000  Uiso   1.00
H35    H     0.37711   0.24744   0.98738   0.00000  Uiso   1.00
H36    H     0.19712   0.28280   0.19928   0.00000  Uiso   1.00
H37    H     0.42895   0.64055   0.22978   0.00000  Uiso   1.00
O38    O     0.41789   0.09364   0.05897   0.00000  Uiso   1.00
O39    O     0.18176   0.14004   0.02500   0.00000  Uiso   1.00
O40    O     0.48591   0.60940   0.06501   0.00000  Uiso   1.00
N41    N     0.41659   0.08874   0.81675   0.00000  Uiso   1.00
N42    N     0.24831   0.12179   0.07995   0.00000  Uiso   1.00
N43    N     0.46504   0.45626   0.10842   0.00000  Uiso   1.00
N44    N     0.38703   0.20629   0.91268   0.00000  Uiso   1.00
N45    N     0.21875   0.23934   0.17588   0.00000  Uiso   1.00
N46    N     0.43548   0.57381   0.20435   0.00000  Uiso   1.00
C47    C     0.87927   0.71192   0.32665   0.00000  Uiso   1.00
C48    C     0.88233   0.70671   0.48516   0.00000  Uiso   1.00
C49    C     0.90138   0.63684   0.56500   0.00000  Uiso   1.00
C50    C     0.90086   0.64471   0.70847   0.00000  Uiso   1.00
C51    C     0.90848   0.62517   0.94528   0.00000  Uiso   1.00
C52    C     0.83595   0.71581   0.28211   0.00000  Uiso   1.00
C53    C     0.81600   0.65359   0.19121   0.00000  Uiso   1.00
C54    C     0.77644   0.66914   0.16374   0.00000  Uiso   1.00
C55    C     0.71206   0.66376   0.08522   0.00000  Uiso   1.00
C56    C     0.89569   0.80798   0.28998   0.00000  Uiso   1.00
C57    C     0.92595   0.82328   0.20566   0.00000  Uiso   1.00
C58    C     0.93669   0.91643   0.18478   0.00000  Uiso   1.00
C59    C     0.96505   0.05417   0.11849   0.00000  Uiso   1.00
C60    C     0.84450   0.85016   0.43946   0.00000  Uiso   1.00
C61    C     0.86345   0.78180   0.54643   0.00000  Uiso   1.00
C62    C     0.86291   0.78978   0.68981   0.00000  Uiso   1.00
C63    C     0.88195   0.71994   0.76986   0.00000  Uiso   1.00
C64    C     0.81707   0.79089   0.34338   0.00000  Uiso   1.00
C65    C     0.77753   0.80654   0.31602   0.00000  Uiso   1.00
C66    C     0.75752   0.74436   0.22512   0.00000  Uiso   1.00
C67    C     0.87680   0.88307   0.35125   0.00000  Uiso   1.00
C68    C     0.88749   0.97622   0.33048   0.00000  Uiso   1.00
C69    C     0.91777   0.99165   0.24616   0.00000  Uiso   1.00
H70    H     0.89397   0.65346   0.27894   0.00000  Uiso   1.00
H71    H     0.91598   0.57874   0.51755   0.00000  Uiso   1.00
H72    H     0.83062   0.59550   0.14380   0.00000  Uiso   1.00
H73    H     0.94056   0.76515   0.15827   0.00000  Uiso   1.00
H74    H     0.93205   0.52898   0.80910   0.00000  Uiso   1.00
H75    H     0.75206   0.56434   0.02101   0.00000  Uiso   1.00
H76    H     0.98389   0.92209   0.05150   0.00000  Uiso   1.00
H77    H     0.82979   0.90862   0.48716   0.00000  Uiso   1.00
H78    H     0.84829   0.84790   0.73720   0.00000  Uiso   1.00
H79    H     0.76293   0.86465   0.36345   0.00000  Uiso   1.00
H80    H     0.87287   0.03431   0.37792   0.00000  Uiso   1.00
H81    H     0.87711   0.74744   0.98738   0.00000  Uiso   1.00
H82    H     0.69712   0.78280   0.19928   0.00000  Uiso   1.00
H83    H     0.92895   0.14055   0.22978   0.00000  Uiso   1.00
O84    O     0.91789   0.59364   0.05897   0.00000  Uiso   1.00
O85    O     0.68176   0.64004   0.02500   0.00000  Uiso   1.00
O86    O     0.98591   0.10940   0.06501   0.00000  Uiso   1.00
N87    N     0.91659   0.58874   0.81675   0.00000  Uiso   1.00
N88    N     0.74831   0.62179   0.07995   0.00000  Uiso   1.00
N89    N     0.96504   0.95626   0.10842   0.00000  Uiso   1.00
N90    N     0.88703   0.70629   0.91268   0.00000  Uiso   1.00
N91    N     0.71875   0.73934   0.17588   0.00000  Uiso   1.00
N92    N     0.93548   0.07381   0.20435   0.00000  Uiso   1.00
C93    C     0.62073   0.21192   0.17335   0.00000  Uiso   1.00
C94    C     0.61767   0.20671   0.01484   0.00000  Uiso   1.00
C95    C     0.59862   0.13684   0.93500   0.00000  Uiso   1.00
C96    C     0.59914   0.14471   0.79153   0.00000  Uiso   1.00
C97    C     0.59152   0.12517   0.55472   0.00000  Uiso   1.00
C98    C     0.66405   0.21581   0.21789   0.00000  Uiso   1.00
C99    C     0.68400   0.15359   0.30879   0.00000  Uiso   1.00
C100   C     0.72356   0.16914   0.33626   0.00000  Uiso   1.00
C101   C     0.78794   0.16376   0.41478   0.00000  Uiso   1.00
C102   C     0.60431   0.30798   0.21002   0.00000  Uiso   1.00
C103   C     0.57405   0.32328   0.29434   0.00000  Uiso   1.00
C104   C     0.56331   0.41643   0.31522   0.00000  Uiso   1.00
C105   C     0.53495   0.55417   0.38151   0.00000  Uiso   1.00
C106   C     0.65550   0.35016   0.06054   0.00000  Uiso   1.00
C107   C     0.63655   0.28180   0.95357   0.00000  Uiso   1.00
C108   C     0.63709   0.28978   0.81019   0.00000  Uiso   1.00
C109   C     0.61805   0.21994   0.73014   0.00000  Uiso   1.00
C110   C     0.68293   0.29089   0.15662   0.00000  Uiso   1.00
C111   C     0.72247   0.30654   0.18398   0.00000  Uiso   1.00
C112   C     0.74248   0.24436   0.27488   0.00000  Uiso   1.00
C113   C     0.62320   0.38307   0.14875   0.00000  Uiso   1.00
C114   C     0.61251   0.47622   0.16952   0.00000  Uiso   1.00
C115   C     0.58223   0.49165   0.25384   0.00000  Uiso   1.00
H116   H     0.60603   0.15346   0.22106   0.00000  Uiso   1.00
H117   H     0.58402   0.07874   0.98245   0.00000  Uiso   1.00
H118   H     0.66938   0.09550   0.35620   0.00000  Uiso   1.00
H119   H     0.55944   0.26515   0.34173   0.00000  Uiso   1.00
H120   H     0.56795   0.02898   0.69090   0.00000  Uiso   1.00
H121   H     0.74794   0.06434   0.47899   0.00000  Uiso   1.00
H122   H     0.51611   0.42209   0.44850   0.00000  Uiso   1.00
H123   H     0.67021   0.40862   0.01284   0.00000  Uiso   1.00
H124   H     0.65171   0.34790   0.76280   0.00000  Uiso   1.00
H125   H     0.73707   0.36465   0.13655   0.00000  Uiso   1.00
H126   H     0.62713   0.53431   0.12208   0.00000  Uiso   1.00
H127   H     0.62289   0.24744   0.51262   0.00000  Uiso   1.00
H128   H     0.80288   0.28280   0.30072   0.00000  Uiso   1.00
H129   H     0.57105   0.64055   0.27022   0.00000  Uiso   1.00
O130   O     0.58211   0.09364   0.44103   0.00000  Uiso   1.00
O131   O     0.81824   0.14004   0.47500   0.00000  Uiso   1.00
O132   O     0.51409   0.60940   0.43499   0.00000  Uiso   1.00
N133   N     0.58341   0.08874   0.68325   0.00000  Uiso   1.00
N134   N     0.75169   0.12179   0.42005   0.00000  Uiso   1.00
N135   N     0.53496   0.45626   0.39158   0.00000  Uiso   1.00
N136   N     0.61297   0.20629   0.58732   0.00000  Uiso   1.00
N137   N     0.78125   0.23934   0.32412   0.00000  Uiso   1.00
N138   N     0.56452   0.57381   0.29565   0.00000  Uiso   1.00
C139   C     0.12073   0.71192   0.17335   0.00000  Uiso   1.00
C140   C     0.11767   0.70671   0.01484   0.00000  Uiso   1.00
C141   C     0.09862   0.63684   0.93500   0.00000  Uiso   1.00
C142   C     0.09914   0.64471   0.79153   0.00000  Uiso   1.00
C143   C     0.09152   0.62517   0.55472   0.00000  Uiso   1.00
C144   C     0.16405   0.71581   0.21789   0.00000  Uiso   1.00
C145   C     0.18400   0.65359   0.30879   0.00000  Uiso   1.00
C146   C     0.22356   0.66914   0.33626   0.00000  Uiso   1.00
C147   C     0.28794   0.66376   0.41478   0.00000  Uiso   1.00
C148   C     0.10431   0.80798   0.21002   0.00000  Uiso   1.00
C149   C     0.07405   0.82328   0.29434   0.00000  Uiso   1.00
C150   C     0.06331   0.91643   0.31522   0.00000  Uiso   1.00
C151   C     0.03495   0.05417   0.38151   0.00000  Uiso   1.00
C152   C     0.15550   0.85016   0.06054   0.00000  Uiso   1.00
C153   C     0.13655   0.78180   0.95357   0.00000  Uiso   1.00
C154   C     0.13709   0.78978   0.81019   0.00000  Uiso   1.00
C155   C     0.11805   0.71994   0.73014   0.00000  Uiso   1.00
C156   C     0.18293   0.79089   0.15662   0.00000  Uiso   1.00
C157   C     0.22247   0.80654   0.18398   0.00000  Uiso   1.00
C158   C     0.24248   0.74436   0.27488   0.00000  Uiso   1.00
C159   C     0.12320   0.88307   0.14875   0.00000  Uiso   1.00
C160   C     0.11251   0.97622   0.16952   0.00000  Uiso   1.00
C161   C     0.08223   0.99165   0.25384   0.00000  Uiso   1.00
H162   H     0.10603   0.65346   0.22106   0.00000  Uiso   1.00
H163   H     0.08402   0.57874   0.98245   0.00000  Uiso   1.00
H164   H     0.16938   0.59550   0.35620   0.00000  Uiso   1.00
H165   H     0.05944   0.76515   0.34173   0.00000  Uiso   1.00
H166   H     0.06795   0.52898   0.69090   0.00000  Uiso   1.00
H167   H     0.24794   0.56434   0.47899   0.00000  Uiso   1.00
H168   H     0.01611   0.92209   0.44850   0.00000  Uiso   1.00
H169   H     0.17021   0.90862   0.01284   0.00000  Uiso   1.00
H170   H     0.15171   0.84790   0.76280   0.00000  Uiso   1.00
H171   H     0.23707   0.86465   0.13655   0.00000  Uiso   1.00
H172   H     0.12713   0.03431   0.12208   0.00000  Uiso   1.00
H173   H     0.12289   0.74744   0.51262   0.00000  Uiso   1.00
H174   H     0.30288   0.78280   0.30072   0.00000  Uiso   1.00
H175   H     0.07105   0.14055   0.27022   0.00000  Uiso   1.00
O176   O     0.08211   0.59364   0.44103   0.00000  Uiso   1.00
O177   O     0.31824   0.64004   0.47500   0.00000  Uiso   1.00
O178   O     0.01409   0.10940   0.43499   0.00000  Uiso   1.00
N179   N     0.08341   0.58874   0.68325   0.00000  Uiso   1.00
N180   N     0.25169   0.62179   0.42005   0.00000  Uiso   1.00
N181   N     0.03496   0.95626   0.39158   0.00000  Uiso   1.00
N182   N     0.11297   0.70629   0.58732   0.00000  Uiso   1.00
N183   N     0.28125   0.73934   0.32412   0.00000  Uiso   1.00
N184   N     0.06452   0.07381   0.29565   0.00000  Uiso   1.00
C185   C     0.62073   0.78808   0.67335   0.00000  Uiso   1.00
C186   C     0.61767   0.79329   0.51484   0.00000  Uiso   1.00
C187   C     0.59862   0.86316   0.43500   0.00000  Uiso   1.00
C188   C     0.59914   0.85529   0.29153   0.00000  Uiso   1.00
C189   C     0.59152   0.87483   0.05472   0.00000  Uiso   1.00
C190   C     0.66405   0.78419   0.71789   0.00000  Uiso   1.00
C191   C     0.68400   0.84641   0.80879   0.00000  Uiso   1.00
C192   C     0.72356   0.83086   0.83626   0.00000  Uiso   1.00
C193   C     0.78794   0.83624   0.91478   0.00000  Uiso   1.00
C194   C     0.60431   0.69202   0.71002   0.00000  Uiso   1.00
C195   C     0.57405   0.67672   0.79434   0.00000  Uiso   1.00
C196   C     0.56331   0.58357   0.81522   0.00000  Uiso   1.00
C197   C     0.53495   0.44583   0.88151   0.00000  Uiso   1.00
C198   C     0.65550   0.64984   0.56054   0.00000  Uiso   1.00
C199   C     0.63655   0.71820   0.45357   0.00000  Uiso   1.00
C200   C     0.63709   0.71022   0.31019   0.00000  Uiso   1.00
C201   C     0.61805   0.78006   0.23014   0.00000  Uiso   1.00
C202   C     0.68293   0.70911   0.65662   0.00000  Uiso   1.00
C203   C     0.72247   0.69346   0.68398   0.00000  Uiso   1.00
C204   C     0.74248   0.75564   0.77488   0.00000  Uiso   1.00
C205   C     0.62320   0.61693   0.64875   0.00000  Uiso   1.00
C206   C     0.61251   0.52378   0.66952   0.00000  Uiso   1.00
C207   C     0.58223   0.50835   0.75384   0.00000  Uiso   1.00
H208   H     0.60603   0.84653   0.72106   0.00000  Uiso   1.00
H209   H     0.58402   0.92126   0.48245   0.00000  Uiso   1.00
H210   H     0.66938   0.90450   0.85620   0.00000  Uiso   1.00
H211   H     0.55944   0.73485   0.84173   0.00000  Uiso   1.00
H212   H     0.56795   0.97102   0.19090   0.00000  Uiso   1.00
H213   H     0.74794   0.93566   0.97899   0.00000  Uiso   1.00
H214   H     0.51611   0.57791   0.94850   0.00000  Uiso   1.00
H215   H     0.67021   0.59138   0.51284   0.00000  Uiso   1.00
H216   H     0.65171   0.65210   0.26280   0.00000  Uiso   1.00
H217   H     0.73707   0.63535   0.63655   0.00000  Uiso   1.00
H218   H     0.62713   0.46569   0.62208   0.00000  Uiso   1.00
H219   H     0.62289   0.75256   0.01262   0.00000  Uiso   1.00
H220   H     0.80288   0.71720   0.80072   0.00000  Uiso   1.00
H221   H     0.57105   0.35945   0.77022   0.00000  Uiso   1.00
O222   O     0.58211   0.90636   0.94103   0.00000  Uiso   1.00
O223   O     0.81824   0.85996   0.97500   0.00000  Uiso   1.00
O224   O     0.51409   0.39060   0.93499   0.00000  Uiso   1.00
N225   N     0.58341   0.91126   0.18325   0.00000  Uiso   1.00
N226   N     0.75169   0.87821   0.92005   0.00000  Uiso   1.00
N227   N     0.53496   0.54374   0.89158   0.00000  Uiso   1.00
N228   N     0.61297   0.79371   0.08732   0.00000  Uiso   1.00
N229   N     0.78125   0.76066   0.82412   0.00000  Uiso   1.00
N230   N     0.56452   0.42619   0.79565   0.00000  Uiso   1.00
C231   C     0.12073   0.28808   0.67335   0.00000  Uiso   1.00
C232   C     0.11767   0.29329   0.51484   0.00000  Uiso   1.00
C233   C     0.09862   0.36316   0.43500   0.00000  Uiso   1.00
C234   C     0.09914   0.35529   0.29153   0.00000  Uiso   1.00
C235   C     0.09152   0.37483   0.05472   0.00000  Uiso   1.00
C236   C     0.16405   0.28419   0.71789   0.00000  Uiso   1.00
C237   C     0.18400   0.34641   0.80879   0.00000  Uiso   1.00
C238   C     0.22356   0.33086   0.83626   0.00000  Uiso   1.00
C239   C     0.28794   0.33624   0.91478   0.00000  Uiso   1.00
C240   C     0.10431   0.19202   0.71002   0.00000  Uiso   1.00
C241   C     0.07405   0.17672   0.79434   0.00000  Uiso   1.00
C242   C     0.06331   0.08357   0.81522   0.00000  Uiso   1.00
C243   C     0.03495   0.94583   0.88151   0.00000  Uiso   1.00
C244   C     0.15550   0.14984   0.56054   0.00000  Uiso   1.00
C245   C     0.13655   0.21820   0.45357   0.00000  Uiso   1.00
C246   C     0.13709   0.21022   0.31019   0.00000  Uiso   1.00
C247   C     0.11805   0.28006   0.23014   0.00000  Uiso   1.00
C248   C     0.18293   0.20911   0.65662   0.00000  Uiso   1.00
C249   C     0.22247   0.19346   0.68398   0.00000  Uiso   1.00
C250   C     0.24248   0.25564   0.77488   0.00000  Uiso   1.00
C251   C     0.12320   0.11693   0.64875   0.00000  Uiso   1.00
C252   C     0.11251   0.02378   0.66952   0.00000  Uiso   1.00
C253   C     0.08223   0.00835   0.75384   0.00000  Uiso   1.00
H254   H     0.10603   0.34653   0.72106   0.00000  Uiso   1.00
H255   H     0.08402   0.42126   0.48245   0.00000  Uiso   1.00
H256   H     0.16938   0.40450   0.85620   0.00000  Uiso   1.00
H257   H     0.05944   0.23485   0.84173   0.00000  Uiso   1.00
H258   H     0.06795   0.47102   0.19090   0.00000  Uiso   1.00
H259   H     0.24794   0.43566   0.97899   0.00000  Uiso   1.00
H260   H     0.01611   0.07791   0.94850   0.00000  Uiso   1.00
H261   H     0.17021   0.09138   0.51284   0.00000  Uiso   1.00
H262   H     0.15171   0.15210   0.26280   0.00000  Uiso   1.00
H263   H     0.23707   0.13535   0.63655   0.00000  Uiso   1.00
H264   H     0.12713   0.96569   0.62208   0.00000  Uiso   1.00
H265   H     0.12289   0.25256   0.01262   0.00000  Uiso   1.00
H266   H     0.30288   0.21720   0.80072   0.00000  Uiso   1.00
H267   H     0.07105   0.85945   0.77022   0.00000  Uiso   1.00
O268   O     0.08211   0.40636   0.94103   0.00000  Uiso   1.00
O269   O     0.31824   0.35996   0.97500   0.00000  Uiso   1.00
O270   O     0.01409   0.89060   0.93499   0.00000  Uiso   1.00
N271   N     0.08341   0.41126   0.18325   0.00000  Uiso   1.00
N272   N     0.25169   0.37821   0.92005   0.00000  Uiso   1.00
N273   N     0.03496   0.04374   0.89158   0.00000  Uiso   1.00
N274   N     0.11297   0.29371   0.08732   0.00000  Uiso   1.00
N275   N     0.28125   0.26066   0.82412   0.00000  Uiso   1.00
N276   N     0.06452   0.92619   0.79565   0.00000  Uiso   1.00
C277   C     0.37927   0.78808   0.82665   0.00000  Uiso   1.00
C278   C     0.38233   0.79329   0.98516   0.00000  Uiso   1.00
C279   C     0.40138   0.86316   0.06500   0.00000  Uiso   1.00
C280   C     0.40086   0.85529   0.20847   0.00000  Uiso   1.00
C281   C     0.40848   0.87483   0.44528   0.00000  Uiso   1.00
C282   C     0.33595   0.78419   0.78211   0.00000  Uiso   1.00
C283   C     0.31600   0.84641   0.69121   0.00000  Uiso   1.00
C284   C     0.27644   0.83086   0.66374   0.00000  Uiso   1.00
C285   C     0.21206   0.83624   0.58522   0.00000  Uiso   1.00
C286   C     0.39569   0.69202   0.78998   0.00000  Uiso   1.00
C287   C     0.42595   0.67672   0.70566   0.00000  Uiso   1.00
C288   C     0.43669   0.58357   0.68478   0.00000  Uiso   1.00
C289   C     0.46505   0.44583   0.61849   0.00000  Uiso   1.00
C290   C     0.34450   0.64984   0.93946   0.00000  Uiso   1.00
C291   C     0.36345   0.71820   0.04643   0.00000  Uiso   1.00
C292   C     0.36291   0.71022   0.18981   0.00000  Uiso   1.00
C293   C     0.38195   0.78006   0.26986   0.00000  Uiso   1.00
C294   C     0.31707   0.70911   0.84338   0.00000  Uiso   1.00
C295   C     0.27753   0.69346   0.81602   0.00000  Uiso   1.00
C296   C     0.25752   0.75564   0.72512   0.00000  Uiso   1.00
C297   C     0.37680   0.61693   0.85125   0.00000  Uiso   1.00
C298   C     0.38749   0.52378   0.83048   0.00000  Uiso   1.00
C299   C     0.41777   0.50835   0.74616   0.00000  Uiso   1.00
H300   H     0.39397   0.84653   0.77894   0.00000  Uiso   1.00
H301   H     0.41598   0.92126   0.01755   0.00000  Uiso   1.00
H302   H     0.33062   0.90450   0.64380   0.00000  Uiso   1.00
H303   H     0.44056   0.73485   0.65827   0.00000  Uiso   1.00
H304   H     0.43205   0.97102   0.30910   0.00000  Uiso   1.00
H305   H     0.25206   0.93566   0.52101   0.00000  Uiso   1.00
H306   H     0.48389   0.57791   0.55150   0.00000  Uiso   1.00
H307   H     0.32979   0.59138   0.98716   0.00000  Uiso   1.00
H308   H     0.34829   0.65210   0.23720   0.00000  Uiso   1.00
H309   H     0.26293   0.63535   0.86345   0.00000  Uiso   1.00
H310   H     0.37287   0.46569   0.87792   0.00000  Uiso   1.00
H311   H     0.37711   0.75256   0.48738   0.00000  Uiso   1.00
H312   H     0.19712   0.71720   0.69928   0.00000  Uiso   1.00
H313   H     0.42895   0.35945   0.72978   0.00000  Uiso   1.00
O314   O     0.41789   0.90636   0.55897   0.00000  Uiso   1.00
O315   O     0.18176   0.85996   0.52500   0.00000  Uiso   1.00
O316   O     0.48591   0.39060   0.56501   0.00000  Uiso   1.00
N317   N     0.41659   0.91126   0.31675   0.00000  Uiso   1.00
N318   N     0.24831   0.87821   0.57995   0.00000  Uiso   1.00
N319   N     0.46504   0.54374   0.60842   0.00000  Uiso   1.00
N320   N     0.38703   0.79371   0.41268   0.00000  Uiso   1.00
N321   N     0.21875   0.76066   0.67588   0.00000  Uiso   1.00
N322   N     0.43548   0.42619   0.70435   0.00000  Uiso   1.00
C323   C     0.87927   0.28808   0.82665   0.00000  Uiso   1.00
C324   C     0.88233   0.29329   0.98516   0.00000  Uiso   1.00
C325   C     0.90138   0.36316   0.06500   0.00000  Uiso   1.00
C326   C     0.90086   0.35529   0.20847   0.00000  Uiso   1.00
C327   C     0.90848   0.37483   0.44528   0.00000  Uiso   1.00
C328   C     0.83595   0.28419   0.78211   0.00000  Uiso   1.00
C329   C     0.81600   0.34641   0.69121   0.00000  Uiso   1.00
C330   C     0.77644   0.33086   0.66374   0.00000  Uiso   1.00
C331   C     0.71206   0.33624   0.58522   0.00000  Uiso   1.00
C332   C     0.89569   0.19202   0.78998   0.00000  Uiso   1.00
C333   C     0.92595   0.17672   0.70566   0.00000  Uiso   1.00
C334   C     0.93669   0.08357   0.68478   0.00000  Uiso   1.00
C335   C     0.96505   0.94583   0.61849   0.00000  Uiso   1.00
C336   C     0.84450   0.14984   0.93946   0.00000  Uiso   1.00
C337   C     0.86345   0.21820   0.04643   0.00000  Uiso   1.00
C338   C     0.86291   0.21022   0.18981   0.00000  Uiso   1.00
C339   C     0.88195   0.28006   0.26986   0.00000  Uiso   1.00
C340   C     0.81707   0.20911   0.84338   0.00000  Uiso   1.00
C341   C     0.77753   0.19346   0.81602   0.00000  Uiso   1.00
C342   C     0.75752   0.25564   0.72512   0.00000  Uiso   1.00
C343   C     0.87680   0.11693   0.85125   0.00000  Uiso   1.00
C344   C     0.88749   0.02378   0.83048   0.00000  Uiso   1.00
C345   C     0.91777   0.00835   0.74616   0.00000  Uiso   1.00
H346   H     0.89397   0.34653   0.77894   0.00000  Uiso   1.00
H347   H     0.91598   0.42126   0.01755   0.00000  Uiso   1.00
H348   H     0.83062   0.40450   0.64380   0.00000  Uiso   1.00
H349   H     0.94056   0.23485   0.65827   0.00000  Uiso   1.00
H350   H     0.93205   0.47102   0.30910   0.00000  Uiso   1.00
H351   H     0.75206   0.43566   0.52101   0.00000  Uiso   1.00
H352   H     0.98389   0.07791   0.55150   0.00000  Uiso   1.00
H353   H     0.82979   0.09138   0.98716   0.00000  Uiso   1.00
H354   H     0.84829   0.15210   0.23720   0.00000  Uiso   1.00
H355   H     0.76293   0.13535   0.86345   0.00000  Uiso   1.00
H356   H     0.87287   0.96569   0.87792   0.00000  Uiso   1.00
H357   H     0.87711   0.25256   0.48738   0.00000  Uiso   1.00
H358   H     0.69712   0.21720   0.69928   0.00000  Uiso   1.00
H359   H     0.92895   0.85945   0.72978   0.00000  Uiso   1.00
O360   O     0.91789   0.40636   0.55897   0.00000  Uiso   1.00
O361   O     0.68176   0.35996   0.52500   0.00000  Uiso   1.00
O362   O     0.98591   0.89060   0.56501   0.00000  Uiso   1.00
N363   N     0.91659   0.41126   0.31675   0.00000  Uiso   1.00
N364   N     0.74831   0.37821   0.57995   0.00000  Uiso   1.00
N365   N     0.96504   0.04374   0.60842   0.00000  Uiso   1.00
N366   N     0.88703   0.29371   0.41268   0.00000  Uiso   1.00
N367   N     0.71875   0.26066   0.67588   0.00000  Uiso   1.00
N368   N     0.93548   0.92619   0.70435   0.00000  Uiso   1.00
