data_job_00447
_audit_creation_date              2018-12-19
_audit_creation_method            'Materials Studio'
_symmetry_space_group_name_H-M    'P1'
_symmetry_Int_Tables_number       1
_symmetry_cell_setting            triclinic
loop_
_symmetry_equiv_pos_as_xyz
  x,y,z
_cell_length_a                    16.1183
_cell_length_b                    18.4935
_cell_length_c                    8.7485
_cell_angle_alpha                 90.0000
_cell_angle_beta                  101.2908
_cell_angle_gamma                 90.0000
loop_
_atom_site_label
_atom_site_type_symbol
_atom_site_fract_x
_atom_site_fract_y
_atom_site_fract_z
_atom_site_U_iso_or_equiv
_atom_site_adp_type
_atom_site_occupancy
C1     C     0.79617   0.44031   0.52158   0.00000  Uiso   1.00
C2     C     0.71062   0.40275   0.47714   0.00000  Uiso   1.00
C3     C     0.67955   0.36872   0.33616   0.00000  Uiso   1.00
C4     C     0.59986   0.33757   0.31816   0.00000  Uiso   1.00
C5     C     0.47413   0.27884   0.23105   0.00000  Uiso   1.00
C6     C     0.77734   0.51749   0.56585   0.00000  Uiso   1.00
C7     C     0.80240   0.57995   0.49947   0.00000  Uiso   1.00
C8     C     0.77888   0.64538   0.55617   0.00000  Uiso   1.00
C9     C     0.75680   0.76480   0.60687   0.00000  Uiso   1.00
C10    C     0.84141   0.40424   0.67164   0.00000  Uiso   1.00
C11    C     0.92034   0.37149   0.69423   0.00000  Uiso   1.00
C12    C     0.95077   0.34159   0.84001   0.00000  Uiso   1.00
C13    C     0.02816   0.28518   0.05496   0.00000  Uiso   1.00
C14    C     0.70988   0.44548   0.74031   0.00000  Uiso   1.00
C15    C     0.66375   0.40555   0.59595   0.00000  Uiso   1.00
C16    C     0.58408   0.37444   0.57816   0.00000  Uiso   1.00
C17    C     0.55291   0.34037   0.43718   0.00000  Uiso   1.00
C18    C     0.73047   0.52030   0.68465   0.00000  Uiso   1.00
C19    C     0.70692   0.58566   0.74147   0.00000  Uiso   1.00
C20    C     0.73193   0.64820   0.67519   0.00000  Uiso   1.00
C21    C     0.79454   0.40704   0.79045   0.00000  Uiso   1.00
C22    C     0.82486   0.37720   0.93622   0.00000  Uiso   1.00
C23    C     0.90382   0.34440   0.95903   0.00000  Uiso   1.00
H24    H     0.83266   0.43813   0.42909   0.00000  Uiso   1.00
H25    H     0.71584   0.36657   0.24424   0.00000  Uiso   1.00
H26    H     0.83867   0.57776   0.40755   0.00000  Uiso   1.00
H27    H     0.95659   0.36933   0.60227   0.00000  Uiso   1.00
H28    H     0.56565   0.28849   0.09168   0.00000  Uiso   1.00
H29    H     0.82467   0.73379   0.43604   0.00000  Uiso   1.00
H30    H     0.07332   0.29428   0.84665   0.00000  Uiso   1.00
H31    H     0.67338   0.44766   0.83281   0.00000  Uiso   1.00
H32    H     0.54782   0.37662   0.67012   0.00000  Uiso   1.00
H33    H     0.67065   0.58781   0.83342   0.00000  Uiso   1.00
H34    H     0.78857   0.37938   0.02814   0.00000  Uiso   1.00
H35    H     0.42927   0.29665   0.43733   0.00000  Uiso   1.00
H36    H     0.68830   0.74195   0.78170   0.00000  Uiso   1.00
H37    H     0.93695   0.30244   0.19231   0.00000  Uiso   1.00
O38    O     0.41773   0.24569   0.15018   0.00000  Uiso   1.00
O39    O     0.75756   0.82990   0.60199   0.00000  Uiso   1.00
O40    O     0.08379   0.25327   0.14069   0.00000  Uiso   1.00
N41    N     0.55079   0.30015   0.19537   0.00000  Uiso   1.00
N42    N     0.79295   0.71648   0.51731   0.00000  Uiso   1.00
N43    N     0.02543   0.30559   0.90121   0.00000  Uiso   1.00
N44    N     0.47741   0.30454   0.38136   0.00000  Uiso   1.00
N45    N     0.71956   0.72087   0.70331   0.00000  Uiso   1.00
N46    N     0.95205   0.30998   0.08720   0.00000  Uiso   1.00
C47    C     0.20383   0.94031   0.97842   0.00000  Uiso   1.00
C48    C     0.28938   0.90275   0.02286   0.00000  Uiso   1.00
C49    C     0.32045   0.86872   0.16384   0.00000  Uiso   1.00
C50    C     0.40014   0.83757   0.18184   0.00000  Uiso   1.00
C51    C     0.52587   0.77884   0.26895   0.00000  Uiso   1.00
C52    C     0.22266   0.01749   0.93415   0.00000  Uiso   1.00
C53    C     0.19760   0.07995   0.00053   0.00000  Uiso   1.00
C54    C     0.22112   0.14538   0.94383   0.00000  Uiso   1.00
C55    C     0.24320   0.26480   0.89313   0.00000  Uiso   1.00
C56    C     0.15859   0.90424   0.82836   0.00000  Uiso   1.00
C57    C     0.07966   0.87149   0.80577   0.00000  Uiso   1.00
C58    C     0.04923   0.84159   0.65999   0.00000  Uiso   1.00
C59    C     0.97184   0.78518   0.44504   0.00000  Uiso   1.00
C60    C     0.29012   0.94548   0.75969   0.00000  Uiso   1.00
C61    C     0.33625   0.90555   0.90405   0.00000  Uiso   1.00
C62    C     0.41592   0.87444   0.92184   0.00000  Uiso   1.00
C63    C     0.44709   0.84037   0.06282   0.00000  Uiso   1.00
C64    C     0.26953   0.02030   0.81535   0.00000  Uiso   1.00
C65    C     0.29308   0.08566   0.75853   0.00000  Uiso   1.00
C66    C     0.26807   0.14820   0.82481   0.00000  Uiso   1.00
C67    C     0.20546   0.90704   0.70955   0.00000  Uiso   1.00
C68    C     0.17514   0.87720   0.56378   0.00000  Uiso   1.00
C69    C     0.09618   0.84440   0.54097   0.00000  Uiso   1.00
H70    H     0.16734   0.93813   0.07091   0.00000  Uiso   1.00
H71    H     0.28416   0.86657   0.25576   0.00000  Uiso   1.00
H72    H     0.16133   0.07776   0.09245   0.00000  Uiso   1.00
H73    H     0.04341   0.86933   0.89773   0.00000  Uiso   1.00
H74    H     0.43435   0.78849   0.40832   0.00000  Uiso   1.00
H75    H     0.17533   0.23379   0.06396   0.00000  Uiso   1.00
H76    H     0.92668   0.79428   0.65335   0.00000  Uiso   1.00
H77    H     0.32662   0.94766   0.66719   0.00000  Uiso   1.00
H78    H     0.45218   0.87662   0.82988   0.00000  Uiso   1.00
H79    H     0.32935   0.08781   0.66658   0.00000  Uiso   1.00
H80    H     0.21143   0.87938   0.47186   0.00000  Uiso   1.00
H81    H     0.57073   0.79665   0.06267   0.00000  Uiso   1.00
H82    H     0.31170   0.24195   0.71830   0.00000  Uiso   1.00
H83    H     0.06305   0.80244   0.30769   0.00000  Uiso   1.00
O84    O     0.58227   0.74569   0.34982   0.00000  Uiso   1.00
O85    O     0.24244   0.32990   0.89801   0.00000  Uiso   1.00
O86    O     0.91621   0.75327   0.35931   0.00000  Uiso   1.00
N87    N     0.44921   0.80015   0.30463   0.00000  Uiso   1.00
N88    N     0.20705   0.21648   0.98269   0.00000  Uiso   1.00
N89    N     0.97457   0.80559   0.59879   0.00000  Uiso   1.00
N90    N     0.52259   0.80454   0.11864   0.00000  Uiso   1.00
N91    N     0.28044   0.22087   0.79669   0.00000  Uiso   1.00
N92    N     0.04795   0.80998   0.41280   0.00000  Uiso   1.00
C93    C     0.20383   0.55969   0.47842   0.00000  Uiso   1.00
C94    C     0.28938   0.59725   0.52286   0.00000  Uiso   1.00
C95    C     0.32045   0.63128   0.66384   0.00000  Uiso   1.00
C96    C     0.40014   0.66243   0.68184   0.00000  Uiso   1.00
C97    C     0.52587   0.72116   0.76895   0.00000  Uiso   1.00
C98    C     0.22266   0.48251   0.43415   0.00000  Uiso   1.00
C99    C     0.19760   0.42005   0.50053   0.00000  Uiso   1.00
C100   C     0.22112   0.35462   0.44383   0.00000  Uiso   1.00
C101   C     0.24320   0.23520   0.39313   0.00000  Uiso   1.00
C102   C     0.15859   0.59576   0.32836   0.00000  Uiso   1.00
C103   C     0.07966   0.62851   0.30577   0.00000  Uiso   1.00
C104   C     0.04923   0.65841   0.15999   0.00000  Uiso   1.00
C105   C     0.97184   0.71482   0.94504   0.00000  Uiso   1.00
C106   C     0.29012   0.55452   0.25969   0.00000  Uiso   1.00
C107   C     0.33625   0.59445   0.40405   0.00000  Uiso   1.00
C108   C     0.41592   0.62556   0.42184   0.00000  Uiso   1.00
C109   C     0.44709   0.65963   0.56282   0.00000  Uiso   1.00
C110   C     0.26953   0.47970   0.31535   0.00000  Uiso   1.00
C111   C     0.29308   0.41434   0.25853   0.00000  Uiso   1.00
C112   C     0.26807   0.35180   0.32481   0.00000  Uiso   1.00
C113   C     0.20546   0.59296   0.20955   0.00000  Uiso   1.00
C114   C     0.17514   0.62280   0.06378   0.00000  Uiso   1.00
C115   C     0.09618   0.65560   0.04097   0.00000  Uiso   1.00
H116   H     0.16734   0.56187   0.57091   0.00000  Uiso   1.00
H117   H     0.28416   0.63343   0.75576   0.00000  Uiso   1.00
H118   H     0.16133   0.42224   0.59245   0.00000  Uiso   1.00
H119   H     0.04341   0.63067   0.39773   0.00000  Uiso   1.00
H120   H     0.43435   0.71151   0.90832   0.00000  Uiso   1.00
H121   H     0.17533   0.26621   0.56396   0.00000  Uiso   1.00
H122   H     0.92668   0.70572   0.15335   0.00000  Uiso   1.00
H123   H     0.32662   0.55234   0.16719   0.00000  Uiso   1.00
H124   H     0.45218   0.62338   0.32988   0.00000  Uiso   1.00
H125   H     0.32935   0.41219   0.16658   0.00000  Uiso   1.00
H126   H     0.21143   0.62062   0.97186   0.00000  Uiso   1.00
H127   H     0.57073   0.70335   0.56267   0.00000  Uiso   1.00
H128   H     0.31170   0.25805   0.21830   0.00000  Uiso   1.00
H129   H     0.06305   0.69756   0.80769   0.00000  Uiso   1.00
O130   O     0.58227   0.75431   0.84982   0.00000  Uiso   1.00
O131   O     0.24244   0.17010   0.39801   0.00000  Uiso   1.00
O132   O     0.91621   0.74673   0.85931   0.00000  Uiso   1.00
N133   N     0.44921   0.69985   0.80463   0.00000  Uiso   1.00
N134   N     0.20705   0.28352   0.48269   0.00000  Uiso   1.00
N135   N     0.97457   0.69441   0.09879   0.00000  Uiso   1.00
N136   N     0.52259   0.69546   0.61864   0.00000  Uiso   1.00
N137   N     0.28044   0.27913   0.29669   0.00000  Uiso   1.00
N138   N     0.04795   0.69002   0.91280   0.00000  Uiso   1.00
C139   C     0.79617   0.05969   0.02158   0.00000  Uiso   1.00
C140   C     0.71062   0.09725   0.97714   0.00000  Uiso   1.00
C141   C     0.67955   0.13128   0.83616   0.00000  Uiso   1.00
C142   C     0.59986   0.16243   0.81816   0.00000  Uiso   1.00
C143   C     0.47413   0.22116   0.73105   0.00000  Uiso   1.00
C144   C     0.77734   0.98251   0.06585   0.00000  Uiso   1.00
C145   C     0.80240   0.92005   0.99947   0.00000  Uiso   1.00
C146   C     0.77888   0.85462   0.05617   0.00000  Uiso   1.00
C147   C     0.75680   0.73520   0.10687   0.00000  Uiso   1.00
C148   C     0.84141   0.09576   0.17164   0.00000  Uiso   1.00
C149   C     0.92034   0.12851   0.19423   0.00000  Uiso   1.00
C150   C     0.95077   0.15841   0.34001   0.00000  Uiso   1.00
C151   C     0.02816   0.21482   0.55496   0.00000  Uiso   1.00
C152   C     0.70988   0.05452   0.24031   0.00000  Uiso   1.00
C153   C     0.66375   0.09445   0.09595   0.00000  Uiso   1.00
C154   C     0.58408   0.12556   0.07816   0.00000  Uiso   1.00
C155   C     0.55291   0.15963   0.93718   0.00000  Uiso   1.00
C156   C     0.73047   0.97970   0.18465   0.00000  Uiso   1.00
C157   C     0.70692   0.91434   0.24147   0.00000  Uiso   1.00
C158   C     0.73193   0.85180   0.17519   0.00000  Uiso   1.00
C159   C     0.79454   0.09296   0.29045   0.00000  Uiso   1.00
C160   C     0.82486   0.12280   0.43622   0.00000  Uiso   1.00
C161   C     0.90382   0.15560   0.45903   0.00000  Uiso   1.00
H162   H     0.83266   0.06187   0.92909   0.00000  Uiso   1.00
H163   H     0.71584   0.13343   0.74424   0.00000  Uiso   1.00
H164   H     0.83867   0.92224   0.90755   0.00000  Uiso   1.00
H165   H     0.95659   0.13067   0.10227   0.00000  Uiso   1.00
H166   H     0.56565   0.21151   0.59168   0.00000  Uiso   1.00
H167   H     0.82467   0.76621   0.93604   0.00000  Uiso   1.00
H168   H     0.07332   0.20572   0.34665   0.00000  Uiso   1.00
H169   H     0.67338   0.05234   0.33281   0.00000  Uiso   1.00
H170   H     0.54782   0.12338   0.17012   0.00000  Uiso   1.00
H171   H     0.67065   0.91219   0.33342   0.00000  Uiso   1.00
H172   H     0.78857   0.12062   0.52814   0.00000  Uiso   1.00
H173   H     0.42927   0.20335   0.93733   0.00000  Uiso   1.00
H174   H     0.68830   0.75805   0.28170   0.00000  Uiso   1.00
H175   H     0.93695   0.19756   0.69231   0.00000  Uiso   1.00
O176   O     0.41773   0.25431   0.65018   0.00000  Uiso   1.00
O177   O     0.75756   0.67010   0.10199   0.00000  Uiso   1.00
O178   O     0.08379   0.24673   0.64069   0.00000  Uiso   1.00
N179   N     0.55079   0.19985   0.69537   0.00000  Uiso   1.00
N180   N     0.79295   0.78352   0.01731   0.00000  Uiso   1.00
N181   N     0.02543   0.19441   0.40121   0.00000  Uiso   1.00
N182   N     0.47741   0.19546   0.88136   0.00000  Uiso   1.00
N183   N     0.71956   0.77913   0.20331   0.00000  Uiso   1.00
N184   N     0.95205   0.19002   0.58720   0.00000  Uiso   1.00
