data_job_03168
_audit_creation_date              2018-12-19
_audit_creation_method            'Materials Studio'
_symmetry_space_group_name_H-M    'P1'
_symmetry_Int_Tables_number       1
_symmetry_cell_setting            triclinic
loop_
_symmetry_equiv_pos_as_xyz
  x,y,z
_cell_length_a                    47.2689
_cell_length_b                    47.2689
_cell_length_c                    7.1512
_cell_angle_alpha                 90.0000
_cell_angle_beta                  90.0000
_cell_angle_gamma                 120.0000
loop_
_atom_site_label
_atom_site_type_symbol
_atom_site_fract_x
_atom_site_fract_y
_atom_site_fract_z
_atom_site_U_iso_or_equiv
_atom_site_adp_type
_atom_site_occupancy
C1     C     0.42079   0.58496   0.91000   0.00000  Uiso   1.00
C2     C     0.43653   0.61788   0.81032   0.00000  Uiso   1.00
C3     C     0.45246   0.64826   0.89636   0.00000  Uiso   1.00
C4     C     0.46520   0.67547   0.78060   0.00000  Uiso   1.00
C5     C     0.49010   0.72705   0.65546   0.00000  Uiso   1.00
C6     C     0.38527   0.56662   0.84582   0.00000  Uiso   1.00
C7     C     0.35810   0.55390   0.96171   0.00000  Uiso   1.00
C8     C     0.32769   0.53795   0.87583   0.00000  Uiso   1.00
C9     C     0.27301   0.50994   0.80580   0.00000  Uiso   1.00
C10    C     0.43667   0.56648   0.82813   0.00000  Uiso   1.00
C11    C     0.45270   0.55362   0.92915   0.00000  Uiso   1.00
C12    C     0.46556   0.53755   0.82838   0.00000  Uiso   1.00
C13    C     0.49068   0.50931   0.73090   0.00000  Uiso   1.00
C14    C     0.41511   0.57927   0.55142   0.00000  Uiso   1.00
C15    C     0.43345   0.61479   0.61555   0.00000  Uiso   1.00
C16    C     0.44617   0.64196   0.49963   0.00000  Uiso   1.00
C17    C     0.46211   0.67237   0.58549   0.00000  Uiso   1.00
C18    C     0.38219   0.56353   0.65106   0.00000  Uiso   1.00
C19    C     0.35181   0.54760   0.56499   0.00000  Uiso   1.00
C20    C     0.32460   0.53485   0.68071   0.00000  Uiso   1.00
C21    C     0.43359   0.56339   0.63336   0.00000  Uiso   1.00
C22    C     0.44642   0.54733   0.53242   0.00000  Uiso   1.00
C23    C     0.46247   0.53445   0.63327   0.00000  Uiso   1.00
H24    H     0.42319   0.58737   0.06163   0.00000  Uiso   1.00
H25    H     0.45483   0.65064   0.04709   0.00000  Uiso   1.00
H26    H     0.36049   0.55629   0.11242   0.00000  Uiso   1.00
H27    H     0.45508   0.55602   0.07987   0.00000  Uiso   1.00
H28    H     0.48855   0.71943   0.94508   0.00000  Uiso   1.00
H29    H     0.28962   0.52047   0.08285   0.00000  Uiso   1.00
H30    H     0.48909   0.51990   0.01421   0.00000  Uiso   1.00
H31    H     0.41271   0.57686   0.39978   0.00000  Uiso   1.00
H32    H     0.44378   0.63956   0.34892   0.00000  Uiso   1.00
H33    H     0.34944   0.54521   0.41426   0.00000  Uiso   1.00
H34    H     0.44403   0.54494   0.38171   0.00000  Uiso   1.00
H35    H     0.47958   0.71043   0.37842   0.00000  Uiso   1.00
H36    H     0.28065   0.51148   0.51619   0.00000  Uiso   1.00
H37    H     0.48012   0.51091   0.44754   0.00000  Uiso   1.00
O38    O     0.50468   0.75636   0.64024   0.00000  Uiso   1.00
O39    O     0.24370   0.49534   0.82099   0.00000  Uiso   1.00
O40    O     0.50539   0.49459   0.73093   0.00000  Uiso   1.00
N41    N     0.48218   0.70870   0.81869   0.00000  Uiso   1.00
N42    N     0.29619   0.52270   0.94750   0.00000  Uiso   1.00
N43    N     0.48267   0.52216   0.88333   0.00000  Uiso   1.00
N44    N     0.47735   0.70387   0.51378   0.00000  Uiso   1.00
N45    N     0.29136   0.51786   0.64259   0.00000  Uiso   1.00
N46    N     0.47784   0.51732   0.57841   0.00000  Uiso   1.00
C47    C     0.41504   0.83583   0.24333   0.00000  Uiso   1.00
C48    C     0.38212   0.81865   0.14365   0.00000  Uiso   1.00
C49    C     0.35174   0.80420   0.22969   0.00000  Uiso   1.00
C50    C     0.32453   0.78973   0.11394   0.00000  Uiso   1.00
C51    C     0.27295   0.76305   0.98879   0.00000  Uiso   1.00
C52    C     0.43338   0.81865   0.17915   0.00000  Uiso   1.00
C53    C     0.44610   0.80420   0.29504   0.00000  Uiso   1.00
C54    C     0.46205   0.78974   0.20916   0.00000  Uiso   1.00
C55    C     0.49006   0.76307   0.13914   0.00000  Uiso   1.00
C56    C     0.43352   0.87019   0.16147   0.00000  Uiso   1.00
C57    C     0.44638   0.89908   0.26249   0.00000  Uiso   1.00
C58    C     0.46245   0.92801   0.16172   0.00000  Uiso   1.00
C59    C     0.49069   0.98137   0.06424   0.00000  Uiso   1.00
C60    C     0.42073   0.83584   0.88475   0.00000  Uiso   1.00
C61    C     0.38521   0.81866   0.94889   0.00000  Uiso   1.00
C62    C     0.35804   0.80421   0.83297   0.00000  Uiso   1.00
C63    C     0.32763   0.78974   0.91882   0.00000  Uiso   1.00
C64    C     0.43647   0.81866   0.98439   0.00000  Uiso   1.00
C65    C     0.45240   0.80421   0.89832   0.00000  Uiso   1.00
C66    C     0.46515   0.78974   0.01404   0.00000  Uiso   1.00
C67    C     0.43661   0.87020   0.96670   0.00000  Uiso   1.00
C68    C     0.45267   0.89909   0.86576   0.00000  Uiso   1.00
C69    C     0.46555   0.92802   0.96660   0.00000  Uiso   1.00
H70    H     0.41263   0.83582   0.39496   0.00000  Uiso   1.00
H71    H     0.34936   0.80420   0.38042   0.00000  Uiso   1.00
H72    H     0.44371   0.80420   0.44576   0.00000  Uiso   1.00
H73    H     0.44398   0.89907   0.41320   0.00000  Uiso   1.00
H74    H     0.28057   0.76912   0.27841   0.00000  Uiso   1.00
H75    H     0.47953   0.76915   0.41618   0.00000  Uiso   1.00
H76    H     0.48010   0.96919   0.34754   0.00000  Uiso   1.00
H77    H     0.42314   0.83585   0.73312   0.00000  Uiso   1.00
H78    H     0.36044   0.80422   0.68225   0.00000  Uiso   1.00
H79    H     0.45479   0.80423   0.74759   0.00000  Uiso   1.00
H80    H     0.45506   0.89909   0.71504   0.00000  Uiso   1.00
H81    H     0.28957   0.76914   0.71175   0.00000  Uiso   1.00
H82    H     0.48852   0.76917   0.84953   0.00000  Uiso   1.00
H83    H     0.48909   0.96920   0.78088   0.00000  Uiso   1.00
O84    O     0.24364   0.74832   0.97357   0.00000  Uiso   1.00
O85    O     0.50466   0.74835   0.15432   0.00000  Uiso   1.00
O86    O     0.50541   0.01080   0.06426   0.00000  Uiso   1.00
N87    N     0.29130   0.77347   0.15203   0.00000  Uiso   1.00
N88    N     0.47730   0.77349   0.28083   0.00000  Uiso   1.00
N89    N     0.47784   0.96051   0.21666   0.00000  Uiso   1.00
N90    N     0.29613   0.77349   0.84711   0.00000  Uiso   1.00
N91    N     0.48214   0.77350   0.97592   0.00000  Uiso   1.00
N92    N     0.48268   0.96052   0.91175   0.00000  Uiso   1.00
C93    C     0.16417   0.57921   0.57667   0.00000  Uiso   1.00
C94    C     0.18135   0.56347   0.47699   0.00000  Uiso   1.00
C95    C     0.19580   0.54754   0.56302   0.00000  Uiso   1.00
C96    C     0.21027   0.53480   0.44727   0.00000  Uiso   1.00
C97    C     0.23695   0.50990   0.32212   0.00000  Uiso   1.00
C98    C     0.18135   0.61473   0.51248   0.00000  Uiso   1.00
C99    C     0.19580   0.64190   0.62838   0.00000  Uiso   1.00
C100   C     0.21026   0.67231   0.54249   0.00000  Uiso   1.00
C101   C     0.23693   0.72699   0.47247   0.00000  Uiso   1.00
C102   C     0.12981   0.56333   0.49480   0.00000  Uiso   1.00
C103   C     0.10092   0.54730   0.59582   0.00000  Uiso   1.00
C104   C     0.07199   0.53444   0.49505   0.00000  Uiso   1.00
C105   C     0.01863   0.50932   0.39757   0.00000  Uiso   1.00
C106   C     0.16416   0.58489   0.21809   0.00000  Uiso   1.00
C107   C     0.18134   0.56655   0.28222   0.00000  Uiso   1.00
C108   C     0.19579   0.55383   0.16630   0.00000  Uiso   1.00
C109   C     0.21026   0.53789   0.25215   0.00000  Uiso   1.00
C110   C     0.18134   0.61781   0.31773   0.00000  Uiso   1.00
C111   C     0.19579   0.64819   0.23165   0.00000  Uiso   1.00
C112   C     0.21026   0.67540   0.34738   0.00000  Uiso   1.00
C113   C     0.12980   0.56641   0.30003   0.00000  Uiso   1.00
C114   C     0.10091   0.55358   0.19909   0.00000  Uiso   1.00
C115   C     0.07198   0.53753   0.29994   0.00000  Uiso   1.00
H116   H     0.16418   0.57681   0.72830   0.00000  Uiso   1.00
H117   H     0.19580   0.54517   0.71376   0.00000  Uiso   1.00
H118   H     0.19580   0.63951   0.77909   0.00000  Uiso   1.00
H119   H     0.10093   0.54492   0.74654   0.00000  Uiso   1.00
H120   H     0.23088   0.51145   0.61175   0.00000  Uiso   1.00
H121   H     0.23085   0.71038   0.74952   0.00000  Uiso   1.00
H122   H     0.03081   0.51091   0.68087   0.00000  Uiso   1.00
H123   H     0.16415   0.58729   0.06645   0.00000  Uiso   1.00
H124   H     0.19578   0.55622   0.01558   0.00000  Uiso   1.00
H125   H     0.19577   0.65056   0.08093   0.00000  Uiso   1.00
H126   H     0.10091   0.55597   0.04837   0.00000  Uiso   1.00
H127   H     0.23086   0.52042   0.04509   0.00000  Uiso   1.00
H128   H     0.23083   0.71935   0.18286   0.00000  Uiso   1.00
H129   H     0.03080   0.51988   0.11421   0.00000  Uiso   1.00
O130   O     0.25168   0.49532   0.30690   0.00000  Uiso   1.00
O131   O     0.25165   0.75630   0.48766   0.00000  Uiso   1.00
O132   O     0.98920   0.49461   0.39760   0.00000  Uiso   1.00
N133   N     0.22653   0.51782   0.48536   0.00000  Uiso   1.00
N134   N     0.22651   0.70381   0.61417   0.00000  Uiso   1.00
N135   N     0.03949   0.51733   0.55000   0.00000  Uiso   1.00
N136   N     0.22651   0.52265   0.18044   0.00000  Uiso   1.00
N137   N     0.22650   0.70864   0.30925   0.00000  Uiso   1.00
N138   N     0.03948   0.52216   0.24508   0.00000  Uiso   1.00
C139   C     0.57921   0.41504   0.41000   0.00000  Uiso   1.00
C140   C     0.56347   0.38212   0.31032   0.00000  Uiso   1.00
C141   C     0.54754   0.35174   0.39636   0.00000  Uiso   1.00
C142   C     0.53480   0.32453   0.28060   0.00000  Uiso   1.00
C143   C     0.50990   0.27295   0.15546   0.00000  Uiso   1.00
C144   C     0.61473   0.43338   0.34582   0.00000  Uiso   1.00
C145   C     0.64190   0.44610   0.46171   0.00000  Uiso   1.00
C146   C     0.67231   0.46205   0.37583   0.00000  Uiso   1.00
C147   C     0.72699   0.49006   0.30580   0.00000  Uiso   1.00
C148   C     0.56333   0.43352   0.32813   0.00000  Uiso   1.00
C149   C     0.54730   0.44638   0.42915   0.00000  Uiso   1.00
C150   C     0.53444   0.46245   0.32838   0.00000  Uiso   1.00
C151   C     0.50932   0.49069   0.23090   0.00000  Uiso   1.00
C152   C     0.58489   0.42073   0.05142   0.00000  Uiso   1.00
C153   C     0.56655   0.38521   0.11555   0.00000  Uiso   1.00
C154   C     0.55383   0.35804   0.99963   0.00000  Uiso   1.00
C155   C     0.53789   0.32763   0.08549   0.00000  Uiso   1.00
C156   C     0.61781   0.43647   0.15106   0.00000  Uiso   1.00
C157   C     0.64819   0.45240   0.06499   0.00000  Uiso   1.00
C158   C     0.67540   0.46515   0.18071   0.00000  Uiso   1.00
C159   C     0.56641   0.43661   0.13336   0.00000  Uiso   1.00
C160   C     0.55358   0.45267   0.03242   0.00000  Uiso   1.00
C161   C     0.53753   0.46555   0.13327   0.00000  Uiso   1.00
H162   H     0.57681   0.41263   0.56163   0.00000  Uiso   1.00
H163   H     0.54517   0.34936   0.54709   0.00000  Uiso   1.00
H164   H     0.63951   0.44371   0.61242   0.00000  Uiso   1.00
H165   H     0.54492   0.44398   0.57987   0.00000  Uiso   1.00
H166   H     0.51145   0.28057   0.44508   0.00000  Uiso   1.00
H167   H     0.71038   0.47953   0.58285   0.00000  Uiso   1.00
H168   H     0.51091   0.48010   0.51421   0.00000  Uiso   1.00
H169   H     0.58729   0.42314   0.89978   0.00000  Uiso   1.00
H170   H     0.55622   0.36044   0.84892   0.00000  Uiso   1.00
H171   H     0.65056   0.45479   0.91426   0.00000  Uiso   1.00
H172   H     0.55597   0.45506   0.88171   0.00000  Uiso   1.00
H173   H     0.52042   0.28957   0.87842   0.00000  Uiso   1.00
H174   H     0.71935   0.48852   0.01619   0.00000  Uiso   1.00
H175   H     0.51988   0.48909   0.94754   0.00000  Uiso   1.00
O176   O     0.49532   0.24364   0.14024   0.00000  Uiso   1.00
O177   O     0.75630   0.50466   0.32099   0.00000  Uiso   1.00
O178   O     0.49461   0.50541   0.23093   0.00000  Uiso   1.00
N179   N     0.51782   0.29130   0.31869   0.00000  Uiso   1.00
N180   N     0.70381   0.47730   0.44750   0.00000  Uiso   1.00
N181   N     0.51733   0.47784   0.38333   0.00000  Uiso   1.00
N182   N     0.52265   0.29613   0.01378   0.00000  Uiso   1.00
N183   N     0.70864   0.48214   0.14259   0.00000  Uiso   1.00
N184   N     0.52216   0.48268   0.07841   0.00000  Uiso   1.00
C185   C     0.58496   0.16417   0.74333   0.00000  Uiso   1.00
C186   C     0.61788   0.18135   0.64365   0.00000  Uiso   1.00
C187   C     0.64826   0.19580   0.72969   0.00000  Uiso   1.00
C188   C     0.67547   0.21027   0.61394   0.00000  Uiso   1.00
C189   C     0.72705   0.23695   0.48879   0.00000  Uiso   1.00
C190   C     0.56662   0.18135   0.67915   0.00000  Uiso   1.00
C191   C     0.55390   0.19580   0.79504   0.00000  Uiso   1.00
C192   C     0.53795   0.21026   0.70916   0.00000  Uiso   1.00
C193   C     0.50994   0.23693   0.63914   0.00000  Uiso   1.00
C194   C     0.56648   0.12981   0.66147   0.00000  Uiso   1.00
C195   C     0.55362   0.10092   0.76249   0.00000  Uiso   1.00
C196   C     0.53755   0.07199   0.66172   0.00000  Uiso   1.00
C197   C     0.50931   0.01863   0.56424   0.00000  Uiso   1.00
C198   C     0.57927   0.16416   0.38475   0.00000  Uiso   1.00
C199   C     0.61479   0.18134   0.44889   0.00000  Uiso   1.00
C200   C     0.64196   0.19579   0.33297   0.00000  Uiso   1.00
C201   C     0.67237   0.21026   0.41882   0.00000  Uiso   1.00
C202   C     0.56353   0.18134   0.48439   0.00000  Uiso   1.00
C203   C     0.54760   0.19579   0.39832   0.00000  Uiso   1.00
C204   C     0.53485   0.21026   0.51404   0.00000  Uiso   1.00
C205   C     0.56339   0.12980   0.46670   0.00000  Uiso   1.00
C206   C     0.54733   0.10091   0.36576   0.00000  Uiso   1.00
C207   C     0.53445   0.07198   0.46660   0.00000  Uiso   1.00
H208   H     0.58737   0.16418   0.89496   0.00000  Uiso   1.00
H209   H     0.65064   0.19580   0.88042   0.00000  Uiso   1.00
H210   H     0.55629   0.19580   0.94576   0.00000  Uiso   1.00
H211   H     0.55602   0.10093   0.91320   0.00000  Uiso   1.00
H212   H     0.71943   0.23088   0.77841   0.00000  Uiso   1.00
H213   H     0.52047   0.23085   0.91618   0.00000  Uiso   1.00
H214   H     0.51990   0.03081   0.84754   0.00000  Uiso   1.00
H215   H     0.57686   0.16415   0.23312   0.00000  Uiso   1.00
H216   H     0.63956   0.19578   0.18225   0.00000  Uiso   1.00
H217   H     0.54521   0.19577   0.24759   0.00000  Uiso   1.00
H218   H     0.54494   0.10091   0.21504   0.00000  Uiso   1.00
H219   H     0.71043   0.23086   0.21175   0.00000  Uiso   1.00
H220   H     0.51148   0.23083   0.34953   0.00000  Uiso   1.00
H221   H     0.51091   0.03080   0.28088   0.00000  Uiso   1.00
O222   O     0.75636   0.25168   0.47357   0.00000  Uiso   1.00
O223   O     0.49534   0.25165   0.65432   0.00000  Uiso   1.00
O224   O     0.49459   0.98920   0.56426   0.00000  Uiso   1.00
N225   N     0.70870   0.22653   0.65203   0.00000  Uiso   1.00
N226   N     0.52270   0.22651   0.78083   0.00000  Uiso   1.00
N227   N     0.52216   0.03949   0.71666   0.00000  Uiso   1.00
N228   N     0.70387   0.22651   0.34711   0.00000  Uiso   1.00
N229   N     0.51786   0.22650   0.47592   0.00000  Uiso   1.00
N230   N     0.51732   0.03948   0.41175   0.00000  Uiso   1.00
C231   C     0.83583   0.42079   0.07667   0.00000  Uiso   1.00
C232   C     0.81865   0.43653   0.97699   0.00000  Uiso   1.00
C233   C     0.80420   0.45246   0.06302   0.00000  Uiso   1.00
C234   C     0.78973   0.46520   0.94727   0.00000  Uiso   1.00
C235   C     0.76305   0.49010   0.82212   0.00000  Uiso   1.00
C236   C     0.81865   0.38527   0.01248   0.00000  Uiso   1.00
C237   C     0.80420   0.35810   0.12838   0.00000  Uiso   1.00
C238   C     0.78974   0.32769   0.04249   0.00000  Uiso   1.00
C239   C     0.76307   0.27301   0.97247   0.00000  Uiso   1.00
C240   C     0.87019   0.43667   0.99480   0.00000  Uiso   1.00
C241   C     0.89908   0.45270   0.09582   0.00000  Uiso   1.00
C242   C     0.92801   0.46556   0.99505   0.00000  Uiso   1.00
C243   C     0.98137   0.49068   0.89757   0.00000  Uiso   1.00
C244   C     0.83584   0.41511   0.71809   0.00000  Uiso   1.00
C245   C     0.81866   0.43345   0.78222   0.00000  Uiso   1.00
C246   C     0.80421   0.44617   0.66630   0.00000  Uiso   1.00
C247   C     0.78974   0.46211   0.75215   0.00000  Uiso   1.00
C248   C     0.81866   0.38219   0.81773   0.00000  Uiso   1.00
C249   C     0.80421   0.35181   0.73165   0.00000  Uiso   1.00
C250   C     0.78974   0.32460   0.84738   0.00000  Uiso   1.00
C251   C     0.87020   0.43359   0.80003   0.00000  Uiso   1.00
C252   C     0.89909   0.44642   0.69909   0.00000  Uiso   1.00
C253   C     0.92802   0.46247   0.79994   0.00000  Uiso   1.00
H254   H     0.83582   0.42319   0.22830   0.00000  Uiso   1.00
H255   H     0.80420   0.45483   0.21376   0.00000  Uiso   1.00
H256   H     0.80420   0.36049   0.27909   0.00000  Uiso   1.00
H257   H     0.89907   0.45508   0.24654   0.00000  Uiso   1.00
H258   H     0.76912   0.48855   0.11175   0.00000  Uiso   1.00
H259   H     0.76915   0.28962   0.24952   0.00000  Uiso   1.00
H260   H     0.96919   0.48909   0.18087   0.00000  Uiso   1.00
H261   H     0.83585   0.41271   0.56645   0.00000  Uiso   1.00
H262   H     0.80422   0.44378   0.51558   0.00000  Uiso   1.00
H263   H     0.80423   0.34944   0.58093   0.00000  Uiso   1.00
H264   H     0.89909   0.44403   0.54837   0.00000  Uiso   1.00
H265   H     0.76914   0.47958   0.54509   0.00000  Uiso   1.00
H266   H     0.76917   0.28065   0.68286   0.00000  Uiso   1.00
H267   H     0.96920   0.48012   0.61421   0.00000  Uiso   1.00
O268   O     0.74832   0.50468   0.80690   0.00000  Uiso   1.00
O269   O     0.74835   0.24370   0.98766   0.00000  Uiso   1.00
O270   O     0.01080   0.50539   0.89760   0.00000  Uiso   1.00
N271   N     0.77347   0.48218   0.98536   0.00000  Uiso   1.00
N272   N     0.77349   0.29619   0.11417   0.00000  Uiso   1.00
N273   N     0.96051   0.48267   0.05000   0.00000  Uiso   1.00
N274   N     0.77349   0.47735   0.68044   0.00000  Uiso   1.00
N275   N     0.77350   0.29136   0.80925   0.00000  Uiso   1.00
N276   N     0.96052   0.47784   0.74508   0.00000  Uiso   1.00
