data_job_04612
_audit_creation_date              2018-12-19
_audit_creation_method            'Materials Studio'
_symmetry_space_group_name_H-M    'P1'
_symmetry_Int_Tables_number       1
_symmetry_cell_setting            triclinic
loop_
_symmetry_equiv_pos_as_xyz
  x,y,z
_cell_length_a                    12.7223
_cell_length_b                    16.7660
_cell_length_c                    11.3553
_cell_angle_alpha                 90.0000
_cell_angle_beta                  88.7880
_cell_angle_gamma                 90.0000
loop_
_atom_site_label
_atom_site_type_symbol
_atom_site_fract_x
_atom_site_fract_y
_atom_site_fract_z
_atom_site_U_iso_or_equiv
_atom_site_adp_type
_atom_site_occupancy
C1     C     0.44958   0.95651   0.04252   0.00000  Uiso   1.00
C2     C     0.34209   0.99255   0.01847   0.00000  Uiso   1.00
C3     C     0.24932   0.97531   0.07974   0.00000  Uiso   1.00
C4     C     0.15928   0.01455   0.04420   0.00000  Uiso   1.00
C5     C     0.99195   0.06219   0.02103   0.00000  Uiso   1.00
C6     C     0.48731   0.91902   0.92681   0.00000  Uiso   1.00
C7     C     0.51665   0.83994   0.91102   0.00000  Uiso   1.00
C8     C     0.54887   0.81729   0.79832   0.00000  Uiso   1.00
C9     C     0.60707   0.75078   0.63287   0.00000  Uiso   1.00
C10    C     0.52280   0.02674   0.06436   0.00000  Uiso   1.00
C11    C     0.58200   0.03823   0.16421   0.00000  Uiso   1.00
C12    C     0.64411   0.10627   0.16731   0.00000  Uiso   1.00
C13    C     0.75741   0.20701   0.21542   0.00000  Uiso   1.00
C14    C     0.45464   0.05687   0.87046   0.00000  Uiso   1.00
C15    C     0.34484   0.04706   0.92501   0.00000  Uiso   1.00
C16    C     0.25492   0.08635   0.88937   0.00000  Uiso   1.00
C17    C     0.16203   0.06917   0.95058   0.00000  Uiso   1.00
C18    C     0.49006   0.97352   0.83335   0.00000  Uiso   1.00
C19    C     0.52225   0.95098   0.72065   0.00000  Uiso   1.00
C20    C     0.55162   0.87190   0.70469   0.00000  Uiso   1.00
C21    C     0.52554   0.08125   0.97090   0.00000  Uiso   1.00
C22    C     0.58759   0.14927   0.97384   0.00000  Uiso   1.00
C23    C     0.64686   0.16087   0.07368   0.00000  Uiso   1.00
H24    H     0.44744   0.91407   0.11527   0.00000  Uiso   1.00
H25    H     0.24723   0.93311   0.15205   0.00000  Uiso   1.00
H26    H     0.51453   0.79778   0.98336   0.00000  Uiso   1.00
H27    H     0.57985   0.99604   0.23651   0.00000  Uiso   1.00
H28    H     0.02646   0.97825   0.15158   0.00000  Uiso   1.00
H29    H     0.59010   0.69288   0.79590   0.00000  Uiso   1.00
H30    H     0.72786   0.11095   0.32972   0.00000  Uiso   1.00
H31    H     0.45678   0.09931   0.79769   0.00000  Uiso   1.00
H32    H     0.25707   0.12853   0.81704   0.00000  Uiso   1.00
H33    H     0.52437   0.99319   0.64835   0.00000  Uiso   1.00
H34    H     0.58969   0.19145   0.90150   0.00000  Uiso   1.00
H35    H     0.03444   0.13685   0.87967   0.00000  Uiso   1.00
H36    H     0.59809   0.85148   0.52399   0.00000  Uiso   1.00
H37    H     0.73585   0.26956   0.05781   0.00000  Uiso   1.00
O38    O     0.89890   0.07340   0.03406   0.00000  Uiso   1.00
O39    O     0.63840   0.69902   0.56743   0.00000  Uiso   1.00
O40    O     0.81913   0.24752   0.26779   0.00000  Uiso   1.00
N41    N     0.05575   0.01158   0.08495   0.00000  Uiso   1.00
N42    N     0.58271   0.74478   0.75240   0.00000  Uiso   1.00
N43    N     0.71152   0.13562   0.25146   0.00000  Uiso   1.00
N44    N     0.06004   0.09692   0.93864   0.00000  Uiso   1.00
N45    N     0.58700   0.83012   0.60609   0.00000  Uiso   1.00
N46    N     0.71582   0.22097   0.10515   0.00000  Uiso   1.00
C47    C     0.96814   0.03898   0.40401   0.00000  Uiso   1.00
C48    C     0.07557   0.00268   0.42759   0.00000  Uiso   1.00
C49    C     0.16837   0.02019   0.36654   0.00000  Uiso   1.00
C50    C     0.25835   0.98064   0.40157   0.00000  Uiso   1.00
C51    C     0.42560   0.93268   0.42411   0.00000  Uiso   1.00
C52    C     0.93048   0.07583   0.52021   0.00000  Uiso   1.00
C53    C     0.90126   0.15484   0.53701   0.00000  Uiso   1.00
C54    C     0.86909   0.17686   0.65000   0.00000  Uiso   1.00
C55    C     0.81100   0.24245   0.81631   0.00000  Uiso   1.00
C56    C     0.89481   0.96897   0.38127   0.00000  Uiso   1.00
C57    C     0.83559   0.95813   0.28128   0.00000  Uiso   1.00
C58    C     0.77336   0.89018   0.27731   0.00000  Uiso   1.00
C59    C     0.65990   0.78985   0.22790   0.00000  Uiso   1.00
C60    C     0.96293   0.93761   0.57478   0.00000  Uiso   1.00
C61    C     0.07273   0.94762   0.52035   0.00000  Uiso   1.00
C62    C     0.16260   0.90803   0.55547   0.00000  Uiso   1.00
C63    C     0.25551   0.92548   0.49448   0.00000  Uiso   1.00
C64    C     0.92764   0.02077   0.61296   0.00000  Uiso   1.00
C65    C     0.89550   0.04268   0.72594   0.00000  Uiso   1.00
C66    C     0.86625   0.12170   0.74292   0.00000  Uiso   1.00
C67    C     0.89198   0.91390   0.47402   0.00000  Uiso   1.00
C68    C     0.82983   0.84597   0.47021   0.00000  Uiso   1.00
C69    C     0.77053   0.83502   0.37023   0.00000  Uiso   1.00
H70    H     0.97035   0.08185   0.33181   0.00000  Uiso   1.00
H71    H     0.17053   0.06281   0.29477   0.00000  Uiso   1.00
H72    H     0.90346   0.19743   0.46522   0.00000  Uiso   1.00
H73    H     0.83780   0.00075   0.20953   0.00000  Uiso   1.00
H74    H     0.39123   0.01744   0.29465   0.00000  Uiso   1.00
H75    H     0.82806   0.30129   0.65403   0.00000  Uiso   1.00
H76    H     0.68960   0.88655   0.11485   0.00000  Uiso   1.00
H77    H     0.96072   0.89474   0.64699   0.00000  Uiso   1.00
H78    H     0.16038   0.86543   0.62725   0.00000  Uiso   1.00
H79    H     0.89331   0.00005   0.79770   0.00000  Uiso   1.00
H80    H     0.82765   0.80337   0.54200   0.00000  Uiso   1.00
H81    H     0.38299   0.85724   0.56451   0.00000  Uiso   1.00
H82    H     0.81982   0.14109   0.92388   0.00000  Uiso   1.00
H83    H     0.68137   0.72635   0.38470   0.00000  Uiso   1.00
O84    O     0.51863   0.92145   0.41093   0.00000  Uiso   1.00
O85    O     0.77976   0.29385   0.88241   0.00000  Uiso   1.00
O86    O     0.59811   0.74972   0.17502   0.00000  Uiso   1.00
N87    N     0.36189   0.98375   0.36085   0.00000  Uiso   1.00
N88    N     0.83537   0.24913   0.69686   0.00000  Uiso   1.00
N89    N     0.70590   0.86140   0.19278   0.00000  Uiso   1.00
N90    N     0.35745   0.89754   0.50606   0.00000  Uiso   1.00
N91    N     0.83094   0.16293   0.84206   0.00000  Uiso   1.00
N92    N     0.70147   0.77519   0.33799   0.00000  Uiso   1.00
C93    C     0.55042   0.45651   0.95748   0.00000  Uiso   1.00
C94    C     0.65791   0.49255   0.98153   0.00000  Uiso   1.00
C95    C     0.75068   0.47531   0.92026   0.00000  Uiso   1.00
C96    C     0.84072   0.51455   0.95580   0.00000  Uiso   1.00
C97    C     0.00805   0.56219   0.97897   0.00000  Uiso   1.00
C98    C     0.51269   0.41902   0.07319   0.00000  Uiso   1.00
C99    C     0.48335   0.33994   0.08898   0.00000  Uiso   1.00
C100   C     0.45113   0.31729   0.20168   0.00000  Uiso   1.00
C101   C     0.39293   0.25078   0.36713   0.00000  Uiso   1.00
C102   C     0.47720   0.52674   0.93564   0.00000  Uiso   1.00
C103   C     0.41800   0.53823   0.83579   0.00000  Uiso   1.00
C104   C     0.35589   0.60627   0.83269   0.00000  Uiso   1.00
C105   C     0.24259   0.70701   0.78458   0.00000  Uiso   1.00
C106   C     0.54536   0.55687   0.12954   0.00000  Uiso   1.00
C107   C     0.65516   0.54706   0.07499   0.00000  Uiso   1.00
C108   C     0.74508   0.58635   0.11063   0.00000  Uiso   1.00
C109   C     0.83797   0.56917   0.04942   0.00000  Uiso   1.00
C110   C     0.50994   0.47352   0.16665   0.00000  Uiso   1.00
C111   C     0.47775   0.45098   0.27935   0.00000  Uiso   1.00
C112   C     0.44838   0.37190   0.29531   0.00000  Uiso   1.00
C113   C     0.47446   0.58125   0.02910   0.00000  Uiso   1.00
C114   C     0.41241   0.64927   0.02616   0.00000  Uiso   1.00
C115   C     0.35314   0.66087   0.92632   0.00000  Uiso   1.00
H116   H     0.55256   0.41407   0.88473   0.00000  Uiso   1.00
H117   H     0.75277   0.43311   0.84795   0.00000  Uiso   1.00
H118   H     0.48547   0.29778   0.01664   0.00000  Uiso   1.00
H119   H     0.42015   0.49604   0.76349   0.00000  Uiso   1.00
H120   H     0.97354   0.47825   0.84842   0.00000  Uiso   1.00
H121   H     0.40990   0.19288   0.20410   0.00000  Uiso   1.00
H122   H     0.27214   0.61095   0.67028   0.00000  Uiso   1.00
H123   H     0.54322   0.59931   0.20231   0.00000  Uiso   1.00
H124   H     0.74293   0.62853   0.18296   0.00000  Uiso   1.00
H125   H     0.47563   0.49319   0.35165   0.00000  Uiso   1.00
H126   H     0.41031   0.69145   0.09850   0.00000  Uiso   1.00
H127   H     0.96556   0.63685   0.12033   0.00000  Uiso   1.00
H128   H     0.40191   0.35148   0.47601   0.00000  Uiso   1.00
H129   H     0.26415   0.76956   0.94219   0.00000  Uiso   1.00
O130   O     0.10110   0.57340   0.96594   0.00000  Uiso   1.00
O131   O     0.36160   0.19902   0.43257   0.00000  Uiso   1.00
O132   O     0.18087   0.74752   0.73221   0.00000  Uiso   1.00
N133   N     0.94425   0.51158   0.91505   0.00000  Uiso   1.00
N134   N     0.41729   0.24478   0.24760   0.00000  Uiso   1.00
N135   N     0.28848   0.63562   0.74854   0.00000  Uiso   1.00
N136   N     0.93996   0.59692   0.06136   0.00000  Uiso   1.00
N137   N     0.41300   0.33012   0.39391   0.00000  Uiso   1.00
N138   N     0.28418   0.72097   0.89485   0.00000  Uiso   1.00
C139   C     0.03186   0.53898   0.59599   0.00000  Uiso   1.00
C140   C     0.92443   0.50268   0.57241   0.00000  Uiso   1.00
C141   C     0.83163   0.52019   0.63346   0.00000  Uiso   1.00
C142   C     0.74165   0.48064   0.59843   0.00000  Uiso   1.00
C143   C     0.57440   0.43268   0.57589   0.00000  Uiso   1.00
C144   C     0.06952   0.57583   0.47979   0.00000  Uiso   1.00
C145   C     0.09874   0.65484   0.46299   0.00000  Uiso   1.00
C146   C     0.13091   0.67686   0.35000   0.00000  Uiso   1.00
C147   C     0.18900   0.74245   0.18369   0.00000  Uiso   1.00
C148   C     0.10519   0.46897   0.61873   0.00000  Uiso   1.00
C149   C     0.16441   0.45813   0.71872   0.00000  Uiso   1.00
C150   C     0.22664   0.39018   0.72269   0.00000  Uiso   1.00
C151   C     0.34010   0.28985   0.77210   0.00000  Uiso   1.00
C152   C     0.03707   0.43761   0.42522   0.00000  Uiso   1.00
C153   C     0.92727   0.44762   0.47965   0.00000  Uiso   1.00
C154   C     0.83740   0.40803   0.44453   0.00000  Uiso   1.00
C155   C     0.74449   0.42548   0.50552   0.00000  Uiso   1.00
C156   C     0.07236   0.52077   0.38704   0.00000  Uiso   1.00
C157   C     0.10450   0.54268   0.27406   0.00000  Uiso   1.00
C158   C     0.13375   0.62170   0.25708   0.00000  Uiso   1.00
C159   C     0.10802   0.41390   0.52598   0.00000  Uiso   1.00
C160   C     0.17017   0.34597   0.52979   0.00000  Uiso   1.00
C161   C     0.22947   0.33502   0.62977   0.00000  Uiso   1.00
H162   H     0.02965   0.58185   0.66819   0.00000  Uiso   1.00
H163   H     0.82947   0.56281   0.70523   0.00000  Uiso   1.00
H164   H     0.09654   0.69743   0.53478   0.00000  Uiso   1.00
H165   H     0.16220   0.50075   0.79047   0.00000  Uiso   1.00
H166   H     0.60877   0.51744   0.70535   0.00000  Uiso   1.00
H167   H     0.17194   0.80129   0.34597   0.00000  Uiso   1.00
H168   H     0.31040   0.38655   0.88515   0.00000  Uiso   1.00
H169   H     0.03928   0.39474   0.35301   0.00000  Uiso   1.00
H170   H     0.83962   0.36543   0.37275   0.00000  Uiso   1.00
H171   H     0.10669   0.50005   0.20230   0.00000  Uiso   1.00
H172   H     0.17235   0.30337   0.45800   0.00000  Uiso   1.00
H173   H     0.61701   0.35724   0.43549   0.00000  Uiso   1.00
H174   H     0.18018   0.64109   0.07612   0.00000  Uiso   1.00
H175   H     0.31863   0.22635   0.61530   0.00000  Uiso   1.00
O176   O     0.48137   0.42145   0.58907   0.00000  Uiso   1.00
O177   O     0.22024   0.79385   0.11759   0.00000  Uiso   1.00
O178   O     0.40189   0.24972   0.82498   0.00000  Uiso   1.00
N179   N     0.63811   0.48375   0.63915   0.00000  Uiso   1.00
N180   N     0.16463   0.74913   0.30314   0.00000  Uiso   1.00
N181   N     0.29410   0.36140   0.80722   0.00000  Uiso   1.00
N182   N     0.64255   0.39754   0.49394   0.00000  Uiso   1.00
N183   N     0.16906   0.66293   0.15794   0.00000  Uiso   1.00
N184   N     0.29853   0.27519   0.66201   0.00000  Uiso   1.00
