data_job_04837
_audit_creation_date              2018-12-19
_audit_creation_method            'Materials Studio'
_symmetry_space_group_name_H-M    'P1'
_symmetry_Int_Tables_number       1
_symmetry_cell_setting            triclinic
loop_
_symmetry_equiv_pos_as_xyz
  x,y,z
_cell_length_a                    16.6442
_cell_length_b                    29.9582
_cell_length_c                    11.0674
_cell_angle_alpha                 90.0000
_cell_angle_beta                  90.0000
_cell_angle_gamma                 90.0000
loop_
_atom_site_label
_atom_site_type_symbol
_atom_site_fract_x
_atom_site_fract_y
_atom_site_fract_z
_atom_site_U_iso_or_equiv
_atom_site_adp_type
_atom_site_occupancy
C1     C     0.62157   0.35818   0.00601   0.00000  Uiso   1.00
C2     C     0.69372   0.33598   0.94600   0.00000  Uiso   1.00
C3     C     0.69054   0.30585   0.85087   0.00000  Uiso   1.00
C4     C     0.76324   0.28930   0.80874   0.00000  Uiso   1.00
C5     C     0.86413   0.25281   0.70781   0.00000  Uiso   1.00
C6     C     0.62737   0.34680   0.14002   0.00000  Uiso   1.00
C7     C     0.56840   0.32578   0.20801   0.00000  Uiso   1.00
C8     C     0.58526   0.31835   0.32922   0.00000  Uiso   1.00
C9     C     0.58312   0.29869   0.52953   0.00000  Uiso   1.00
C10    C     0.63598   0.40833   0.99667   0.00000  Uiso   1.00
C11    C     0.58425   0.43905   0.94416   0.00000  Uiso   1.00
C12    C     0.60834   0.48342   0.94470   0.00000  Uiso   1.00
C13    C     0.61957   0.55929   0.92244   0.00000  Uiso   1.00
C14    C     0.75635   0.38236   0.10037   0.00000  Uiso   1.00
C15    C     0.76692   0.34911   0.99726   0.00000  Uiso   1.00
C16    C     0.83965   0.33261   0.95526   0.00000  Uiso   1.00
C17    C     0.83658   0.30246   0.86008   0.00000  Uiso   1.00
C18    C     0.70057   0.35993   0.19127   0.00000  Uiso   1.00
C19    C     0.71752   0.35253   0.31241   0.00000  Uiso   1.00
C20    C     0.65859   0.33151   0.38057   0.00000  Uiso   1.00
C21    C     0.70919   0.42146   0.04792   0.00000  Uiso   1.00
C22    C     0.73337   0.46580   0.04855   0.00000  Uiso   1.00
C23    C     0.68168   0.49657   0.99605   0.00000  Uiso   1.00
H24    H     0.56457   0.34796   0.96611   0.00000  Uiso   1.00
H25    H     0.63387   0.29570   0.81123   0.00000  Uiso   1.00
H26    H     0.51175   0.31563   0.16833   0.00000  Uiso   1.00
H27    H     0.52760   0.42887   0.90451   0.00000  Uiso   1.00
H28    H     0.74298   0.24353   0.66215   0.00000  Uiso   1.00
H29    H     0.48548   0.28557   0.41512   0.00000  Uiso   1.00
H30    H     0.51889   0.52437   0.85881   0.00000  Uiso   1.00
H31    H     0.81334   0.39259   0.14027   0.00000  Uiso   1.00
H32    H     0.89630   0.34277   0.99494   0.00000  Uiso   1.00
H33    H     0.77418   0.36270   0.35204   0.00000  Uiso   1.00
H34    H     0.79002   0.47595   0.08822   0.00000  Uiso   1.00
H35    H     0.95597   0.28174   0.81127   0.00000  Uiso   1.00
H36    H     0.69847   0.32378   0.56423   0.00000  Uiso   1.00
H37    H     0.73188   0.56258   0.00792   0.00000  Uiso   1.00
O38    O     0.89955   0.22905   0.63799   0.00000  Uiso   1.00
O39    O     0.56171   0.28422   0.62585   0.00000  Uiso   1.00
O40    O     0.60555   0.59751   0.89598   0.00000  Uiso   1.00
N41    N     0.78173   0.25937   0.71718   0.00000  Uiso   1.00
N42    N     0.54098   0.29867   0.42115   0.00000  Uiso   1.00
N43    N     0.57221   0.52192   0.90107   0.00000  Uiso   1.00
N44    N     0.89634   0.27993   0.79741   0.00000  Uiso   1.00
N45    N     0.65559   0.31923   0.50138   0.00000  Uiso   1.00
N46    N     0.68682   0.54249   0.98131   0.00000  Uiso   1.00
C47    C     0.87843   0.64182   0.50601   0.00000  Uiso   1.00
C48    C     0.80628   0.66402   0.44600   0.00000  Uiso   1.00
C49    C     0.80946   0.69415   0.35087   0.00000  Uiso   1.00
C50    C     0.73676   0.71070   0.30874   0.00000  Uiso   1.00
C51    C     0.63587   0.74719   0.20781   0.00000  Uiso   1.00
C52    C     0.87263   0.65320   0.64002   0.00000  Uiso   1.00
C53    C     0.93160   0.67422   0.70801   0.00000  Uiso   1.00
C54    C     0.91474   0.68165   0.82922   0.00000  Uiso   1.00
C55    C     0.91688   0.70131   0.02953   0.00000  Uiso   1.00
C56    C     0.86402   0.59167   0.49667   0.00000  Uiso   1.00
C57    C     0.91575   0.56095   0.44416   0.00000  Uiso   1.00
C58    C     0.89166   0.51658   0.44470   0.00000  Uiso   1.00
C59    C     0.88043   0.44071   0.42244   0.00000  Uiso   1.00
C60    C     0.74365   0.61764   0.60037   0.00000  Uiso   1.00
C61    C     0.73308   0.65089   0.49726   0.00000  Uiso   1.00
C62    C     0.66035   0.66739   0.45526   0.00000  Uiso   1.00
C63    C     0.66342   0.69754   0.36008   0.00000  Uiso   1.00
C64    C     0.79943   0.64007   0.69127   0.00000  Uiso   1.00
C65    C     0.78248   0.64747   0.81241   0.00000  Uiso   1.00
C66    C     0.84141   0.66849   0.88057   0.00000  Uiso   1.00
C67    C     0.79081   0.57854   0.54792   0.00000  Uiso   1.00
C68    C     0.76663   0.53420   0.54855   0.00000  Uiso   1.00
C69    C     0.81832   0.50343   0.49605   0.00000  Uiso   1.00
H70    H     0.93543   0.65204   0.46611   0.00000  Uiso   1.00
H71    H     0.86613   0.70430   0.31123   0.00000  Uiso   1.00
H72    H     0.98825   0.68437   0.66833   0.00000  Uiso   1.00
H73    H     0.97240   0.57113   0.40451   0.00000  Uiso   1.00
H74    H     0.75702   0.75647   0.16215   0.00000  Uiso   1.00
H75    H     0.01452   0.71443   0.91512   0.00000  Uiso   1.00
H76    H     0.98111   0.47563   0.35881   0.00000  Uiso   1.00
H77    H     0.68666   0.60741   0.64027   0.00000  Uiso   1.00
H78    H     0.60370   0.65723   0.49494   0.00000  Uiso   1.00
H79    H     0.72582   0.63730   0.85204   0.00000  Uiso   1.00
H80    H     0.70998   0.52405   0.58822   0.00000  Uiso   1.00
H81    H     0.54403   0.71826   0.31127   0.00000  Uiso   1.00
H82    H     0.80153   0.67622   0.06423   0.00000  Uiso   1.00
H83    H     0.76812   0.43742   0.50792   0.00000  Uiso   1.00
O84    O     0.60045   0.77095   0.13799   0.00000  Uiso   1.00
O85    O     0.93829   0.71578   0.12585   0.00000  Uiso   1.00
O86    O     0.89445   0.40249   0.39598   0.00000  Uiso   1.00
N87    N     0.71827   0.74063   0.21718   0.00000  Uiso   1.00
N88    N     0.95902   0.70133   0.92115   0.00000  Uiso   1.00
N89    N     0.92779   0.47808   0.40107   0.00000  Uiso   1.00
N90    N     0.60366   0.72007   0.29741   0.00000  Uiso   1.00
N91    N     0.84441   0.68077   0.00138   0.00000  Uiso   1.00
N92    N     0.81318   0.45751   0.48131   0.00000  Uiso   1.00
C93    C     0.37843   0.85818   0.49399   0.00000  Uiso   1.00
C94    C     0.30628   0.83598   0.55400   0.00000  Uiso   1.00
C95    C     0.30946   0.80585   0.64913   0.00000  Uiso   1.00
C96    C     0.23676   0.78930   0.69126   0.00000  Uiso   1.00
C97    C     0.13587   0.75281   0.79219   0.00000  Uiso   1.00
C98    C     0.37263   0.84680   0.35998   0.00000  Uiso   1.00
C99    C     0.43160   0.82578   0.29199   0.00000  Uiso   1.00
C100   C     0.41474   0.81835   0.17078   0.00000  Uiso   1.00
C101   C     0.41688   0.79869   0.97047   0.00000  Uiso   1.00
C102   C     0.36402   0.90833   0.50333   0.00000  Uiso   1.00
C103   C     0.41575   0.93905   0.55584   0.00000  Uiso   1.00
C104   C     0.39166   0.98342   0.55530   0.00000  Uiso   1.00
C105   C     0.38043   0.05929   0.57756   0.00000  Uiso   1.00
C106   C     0.24365   0.88236   0.39963   0.00000  Uiso   1.00
C107   C     0.23308   0.84911   0.50274   0.00000  Uiso   1.00
C108   C     0.16035   0.83261   0.54474   0.00000  Uiso   1.00
C109   C     0.16342   0.80246   0.63992   0.00000  Uiso   1.00
C110   C     0.29943   0.85993   0.30873   0.00000  Uiso   1.00
C111   C     0.28248   0.85253   0.18759   0.00000  Uiso   1.00
C112   C     0.34141   0.83151   0.11943   0.00000  Uiso   1.00
C113   C     0.29081   0.92146   0.45208   0.00000  Uiso   1.00
C114   C     0.26663   0.96580   0.45145   0.00000  Uiso   1.00
C115   C     0.31832   0.99657   0.50395   0.00000  Uiso   1.00
H116   H     0.43543   0.84796   0.53389   0.00000  Uiso   1.00
H117   H     0.36613   0.79570   0.68877   0.00000  Uiso   1.00
H118   H     0.48825   0.81563   0.33167   0.00000  Uiso   1.00
H119   H     0.47240   0.92887   0.59549   0.00000  Uiso   1.00
H120   H     0.25702   0.74353   0.83785   0.00000  Uiso   1.00
H121   H     0.51452   0.78557   0.08488   0.00000  Uiso   1.00
H122   H     0.48111   0.02437   0.64119   0.00000  Uiso   1.00
H123   H     0.18666   0.89259   0.35973   0.00000  Uiso   1.00
H124   H     0.10370   0.84277   0.50506   0.00000  Uiso   1.00
H125   H     0.22582   0.86270   0.14796   0.00000  Uiso   1.00
H126   H     0.20998   0.97595   0.41178   0.00000  Uiso   1.00
H127   H     0.04403   0.78174   0.68873   0.00000  Uiso   1.00
H128   H     0.30153   0.82378   0.93577   0.00000  Uiso   1.00
H129   H     0.26812   0.06258   0.49208   0.00000  Uiso   1.00
O130   O     0.10045   0.72905   0.86201   0.00000  Uiso   1.00
O131   O     0.43829   0.78422   0.87415   0.00000  Uiso   1.00
O132   O     0.39445   0.09751   0.60402   0.00000  Uiso   1.00
N133   N     0.21827   0.75937   0.78282   0.00000  Uiso   1.00
N134   N     0.45902   0.79867   0.07885   0.00000  Uiso   1.00
N135   N     0.42779   0.02192   0.59893   0.00000  Uiso   1.00
N136   N     0.10366   0.77993   0.70259   0.00000  Uiso   1.00
N137   N     0.34441   0.81923   0.99862   0.00000  Uiso   1.00
N138   N     0.31318   0.04249   0.51869   0.00000  Uiso   1.00
C139   C     0.12157   0.14182   0.99399   0.00000  Uiso   1.00
C140   C     0.19372   0.16402   0.05400   0.00000  Uiso   1.00
C141   C     0.19054   0.19415   0.14913   0.00000  Uiso   1.00
C142   C     0.26324   0.21070   0.19126   0.00000  Uiso   1.00
C143   C     0.36413   0.24719   0.29219   0.00000  Uiso   1.00
C144   C     0.12737   0.15320   0.85998   0.00000  Uiso   1.00
C145   C     0.06840   0.17422   0.79199   0.00000  Uiso   1.00
C146   C     0.08526   0.18165   0.67078   0.00000  Uiso   1.00
C147   C     0.08312   0.20131   0.47047   0.00000  Uiso   1.00
C148   C     0.13598   0.09167   0.00333   0.00000  Uiso   1.00
C149   C     0.08425   0.06095   0.05584   0.00000  Uiso   1.00
C150   C     0.10834   0.01658   0.05530   0.00000  Uiso   1.00
C151   C     0.11957   0.94071   0.07756   0.00000  Uiso   1.00
C152   C     0.25635   0.11764   0.89963   0.00000  Uiso   1.00
C153   C     0.26692   0.15089   0.00274   0.00000  Uiso   1.00
C154   C     0.33965   0.16739   0.04474   0.00000  Uiso   1.00
C155   C     0.33658   0.19754   0.13992   0.00000  Uiso   1.00
C156   C     0.20057   0.14007   0.80873   0.00000  Uiso   1.00
C157   C     0.21752   0.14747   0.68759   0.00000  Uiso   1.00
C158   C     0.15859   0.16849   0.61943   0.00000  Uiso   1.00
C159   C     0.20919   0.07854   0.95208   0.00000  Uiso   1.00
C160   C     0.23337   0.03420   0.95145   0.00000  Uiso   1.00
C161   C     0.18168   0.00343   0.00395   0.00000  Uiso   1.00
H162   H     0.06457   0.15204   0.03389   0.00000  Uiso   1.00
H163   H     0.13387   0.20430   0.18877   0.00000  Uiso   1.00
H164   H     0.01175   0.18437   0.83167   0.00000  Uiso   1.00
H165   H     0.02760   0.07113   0.09549   0.00000  Uiso   1.00
H166   H     0.24298   0.25647   0.33785   0.00000  Uiso   1.00
H167   H     0.98548   0.21443   0.58488   0.00000  Uiso   1.00
H168   H     0.01889   0.97563   0.14119   0.00000  Uiso   1.00
H169   H     0.31334   0.10741   0.85973   0.00000  Uiso   1.00
H170   H     0.39630   0.15723   0.00506   0.00000  Uiso   1.00
H171   H     0.27418   0.13730   0.64796   0.00000  Uiso   1.00
H172   H     0.29002   0.02405   0.91178   0.00000  Uiso   1.00
H173   H     0.45597   0.21826   0.18873   0.00000  Uiso   1.00
H174   H     0.19847   0.17622   0.43577   0.00000  Uiso   1.00
H175   H     0.23188   0.93742   0.99208   0.00000  Uiso   1.00
O176   O     0.39955   0.27095   0.36201   0.00000  Uiso   1.00
O177   O     0.06171   0.21578   0.37415   0.00000  Uiso   1.00
O178   O     0.10555   0.90249   0.10402   0.00000  Uiso   1.00
N179   N     0.28173   0.24063   0.28282   0.00000  Uiso   1.00
N180   N     0.04098   0.20133   0.57885   0.00000  Uiso   1.00
N181   N     0.07221   0.97808   0.09893   0.00000  Uiso   1.00
N182   N     0.39634   0.22007   0.20259   0.00000  Uiso   1.00
N183   N     0.15559   0.18077   0.49862   0.00000  Uiso   1.00
N184   N     0.18682   0.95751   0.01869   0.00000  Uiso   1.00
C185   C     0.37843   0.64182   0.99399   0.00000  Uiso   1.00
C186   C     0.30628   0.66402   0.05400   0.00000  Uiso   1.00
C187   C     0.30946   0.69415   0.14913   0.00000  Uiso   1.00
C188   C     0.23676   0.71070   0.19126   0.00000  Uiso   1.00
C189   C     0.13587   0.74719   0.29219   0.00000  Uiso   1.00
C190   C     0.37263   0.65320   0.85998   0.00000  Uiso   1.00
C191   C     0.43160   0.67422   0.79199   0.00000  Uiso   1.00
C192   C     0.41474   0.68165   0.67078   0.00000  Uiso   1.00
C193   C     0.41688   0.70131   0.47047   0.00000  Uiso   1.00
C194   C     0.36402   0.59167   0.00333   0.00000  Uiso   1.00
C195   C     0.41575   0.56095   0.05584   0.00000  Uiso   1.00
C196   C     0.39166   0.51658   0.05530   0.00000  Uiso   1.00
C197   C     0.38043   0.44071   0.07756   0.00000  Uiso   1.00
C198   C     0.24365   0.61764   0.89963   0.00000  Uiso   1.00
C199   C     0.23308   0.65089   0.00274   0.00000  Uiso   1.00
C200   C     0.16035   0.66739   0.04474   0.00000  Uiso   1.00
C201   C     0.16342   0.69754   0.13992   0.00000  Uiso   1.00
C202   C     0.29943   0.64007   0.80873   0.00000  Uiso   1.00
C203   C     0.28248   0.64747   0.68759   0.00000  Uiso   1.00
C204   C     0.34141   0.66849   0.61943   0.00000  Uiso   1.00
C205   C     0.29081   0.57854   0.95208   0.00000  Uiso   1.00
C206   C     0.26663   0.53420   0.95145   0.00000  Uiso   1.00
C207   C     0.31832   0.50343   0.00395   0.00000  Uiso   1.00
H208   H     0.43543   0.65204   0.03389   0.00000  Uiso   1.00
H209   H     0.36613   0.70430   0.18877   0.00000  Uiso   1.00
H210   H     0.48825   0.68437   0.83167   0.00000  Uiso   1.00
H211   H     0.47240   0.57113   0.09549   0.00000  Uiso   1.00
H212   H     0.25702   0.75647   0.33785   0.00000  Uiso   1.00
H213   H     0.51452   0.71443   0.58488   0.00000  Uiso   1.00
H214   H     0.48111   0.47563   0.14119   0.00000  Uiso   1.00
H215   H     0.18666   0.60741   0.85973   0.00000  Uiso   1.00
H216   H     0.10370   0.65723   0.00506   0.00000  Uiso   1.00
H217   H     0.22582   0.63730   0.64796   0.00000  Uiso   1.00
H218   H     0.20998   0.52405   0.91178   0.00000  Uiso   1.00
H219   H     0.04403   0.71826   0.18873   0.00000  Uiso   1.00
H220   H     0.30153   0.67622   0.43577   0.00000  Uiso   1.00
H221   H     0.26812   0.43742   0.99208   0.00000  Uiso   1.00
O222   O     0.10045   0.77095   0.36201   0.00000  Uiso   1.00
O223   O     0.43829   0.71578   0.37415   0.00000  Uiso   1.00
O224   O     0.39445   0.40249   0.10402   0.00000  Uiso   1.00
N225   N     0.21827   0.74063   0.28282   0.00000  Uiso   1.00
N226   N     0.45902   0.70133   0.57885   0.00000  Uiso   1.00
N227   N     0.42779   0.47808   0.09893   0.00000  Uiso   1.00
N228   N     0.10366   0.72007   0.20259   0.00000  Uiso   1.00
N229   N     0.34441   0.68077   0.49862   0.00000  Uiso   1.00
N230   N     0.31318   0.45751   0.01869   0.00000  Uiso   1.00
C231   C     0.12157   0.35818   0.49399   0.00000  Uiso   1.00
C232   C     0.19372   0.33598   0.55400   0.00000  Uiso   1.00
C233   C     0.19054   0.30585   0.64913   0.00000  Uiso   1.00
C234   C     0.26324   0.28930   0.69126   0.00000  Uiso   1.00
C235   C     0.36413   0.25281   0.79219   0.00000  Uiso   1.00
C236   C     0.12737   0.34680   0.35998   0.00000  Uiso   1.00
C237   C     0.06840   0.32578   0.29199   0.00000  Uiso   1.00
C238   C     0.08526   0.31835   0.17078   0.00000  Uiso   1.00
C239   C     0.08312   0.29869   0.97047   0.00000  Uiso   1.00
C240   C     0.13598   0.40833   0.50333   0.00000  Uiso   1.00
C241   C     0.08425   0.43905   0.55584   0.00000  Uiso   1.00
C242   C     0.10834   0.48342   0.55530   0.00000  Uiso   1.00
C243   C     0.11957   0.55929   0.57756   0.00000  Uiso   1.00
C244   C     0.25635   0.38236   0.39963   0.00000  Uiso   1.00
C245   C     0.26692   0.34911   0.50274   0.00000  Uiso   1.00
C246   C     0.33965   0.33261   0.54474   0.00000  Uiso   1.00
C247   C     0.33658   0.30246   0.63992   0.00000  Uiso   1.00
C248   C     0.20057   0.35993   0.30873   0.00000  Uiso   1.00
C249   C     0.21752   0.35253   0.18759   0.00000  Uiso   1.00
C250   C     0.15859   0.33151   0.11943   0.00000  Uiso   1.00
C251   C     0.20919   0.42146   0.45208   0.00000  Uiso   1.00
C252   C     0.23337   0.46580   0.45145   0.00000  Uiso   1.00
C253   C     0.18168   0.49657   0.50395   0.00000  Uiso   1.00
H254   H     0.06457   0.34796   0.53389   0.00000  Uiso   1.00
H255   H     0.13387   0.29570   0.68877   0.00000  Uiso   1.00
H256   H     0.01175   0.31563   0.33167   0.00000  Uiso   1.00
H257   H     0.02760   0.42887   0.59549   0.00000  Uiso   1.00
H258   H     0.24298   0.24353   0.83785   0.00000  Uiso   1.00
H259   H     0.98548   0.28557   0.08488   0.00000  Uiso   1.00
H260   H     0.01889   0.52437   0.64119   0.00000  Uiso   1.00
H261   H     0.31334   0.39259   0.35973   0.00000  Uiso   1.00
H262   H     0.39630   0.34277   0.50506   0.00000  Uiso   1.00
H263   H     0.27418   0.36270   0.14796   0.00000  Uiso   1.00
H264   H     0.29002   0.47595   0.41178   0.00000  Uiso   1.00
H265   H     0.45597   0.28174   0.68873   0.00000  Uiso   1.00
H266   H     0.19847   0.32378   0.93577   0.00000  Uiso   1.00
H267   H     0.23188   0.56258   0.49208   0.00000  Uiso   1.00
O268   O     0.39955   0.22905   0.86201   0.00000  Uiso   1.00
O269   O     0.06171   0.28422   0.87415   0.00000  Uiso   1.00
O270   O     0.10555   0.59751   0.60402   0.00000  Uiso   1.00
N271   N     0.28173   0.25937   0.78282   0.00000  Uiso   1.00
N272   N     0.04098   0.29867   0.07885   0.00000  Uiso   1.00
N273   N     0.07221   0.52192   0.59893   0.00000  Uiso   1.00
N274   N     0.39634   0.27993   0.70259   0.00000  Uiso   1.00
N275   N     0.15559   0.31923   0.99862   0.00000  Uiso   1.00
N276   N     0.18682   0.54249   0.51869   0.00000  Uiso   1.00
C277   C     0.62157   0.14182   0.50601   0.00000  Uiso   1.00
C278   C     0.69372   0.16402   0.44600   0.00000  Uiso   1.00
C279   C     0.69054   0.19415   0.35087   0.00000  Uiso   1.00
C280   C     0.76324   0.21070   0.30874   0.00000  Uiso   1.00
C281   C     0.86413   0.24719   0.20781   0.00000  Uiso   1.00
C282   C     0.62737   0.15320   0.64002   0.00000  Uiso   1.00
C283   C     0.56840   0.17422   0.70801   0.00000  Uiso   1.00
C284   C     0.58526   0.18165   0.82922   0.00000  Uiso   1.00
C285   C     0.58312   0.20131   0.02953   0.00000  Uiso   1.00
C286   C     0.63598   0.09167   0.49667   0.00000  Uiso   1.00
C287   C     0.58425   0.06095   0.44416   0.00000  Uiso   1.00
C288   C     0.60834   0.01658   0.44470   0.00000  Uiso   1.00
C289   C     0.61957   0.94071   0.42244   0.00000  Uiso   1.00
C290   C     0.75635   0.11764   0.60037   0.00000  Uiso   1.00
C291   C     0.76692   0.15089   0.49726   0.00000  Uiso   1.00
C292   C     0.83965   0.16739   0.45526   0.00000  Uiso   1.00
C293   C     0.83658   0.19754   0.36008   0.00000  Uiso   1.00
C294   C     0.70057   0.14007   0.69127   0.00000  Uiso   1.00
C295   C     0.71752   0.14747   0.81241   0.00000  Uiso   1.00
C296   C     0.65859   0.16849   0.88057   0.00000  Uiso   1.00
C297   C     0.70919   0.07854   0.54792   0.00000  Uiso   1.00
C298   C     0.73337   0.03420   0.54855   0.00000  Uiso   1.00
C299   C     0.68168   0.00343   0.49605   0.00000  Uiso   1.00
H300   H     0.56457   0.15204   0.46611   0.00000  Uiso   1.00
H301   H     0.63387   0.20430   0.31123   0.00000  Uiso   1.00
H302   H     0.51175   0.18437   0.66833   0.00000  Uiso   1.00
H303   H     0.52760   0.07113   0.40451   0.00000  Uiso   1.00
H304   H     0.74298   0.25647   0.16215   0.00000  Uiso   1.00
H305   H     0.48548   0.21443   0.91512   0.00000  Uiso   1.00
H306   H     0.51889   0.97563   0.35881   0.00000  Uiso   1.00
H307   H     0.81334   0.10741   0.64027   0.00000  Uiso   1.00
H308   H     0.89630   0.15723   0.49494   0.00000  Uiso   1.00
H309   H     0.77418   0.13730   0.85204   0.00000  Uiso   1.00
H310   H     0.79002   0.02405   0.58822   0.00000  Uiso   1.00
H311   H     0.95597   0.21826   0.31127   0.00000  Uiso   1.00
H312   H     0.69847   0.17622   0.06423   0.00000  Uiso   1.00
H313   H     0.73188   0.93742   0.50792   0.00000  Uiso   1.00
O314   O     0.89955   0.27095   0.13799   0.00000  Uiso   1.00
O315   O     0.56171   0.21578   0.12585   0.00000  Uiso   1.00
O316   O     0.60555   0.90249   0.39598   0.00000  Uiso   1.00
N317   N     0.78173   0.24063   0.21718   0.00000  Uiso   1.00
N318   N     0.54098   0.20133   0.92115   0.00000  Uiso   1.00
N319   N     0.57221   0.97808   0.40107   0.00000  Uiso   1.00
N320   N     0.89634   0.22007   0.29741   0.00000  Uiso   1.00
N321   N     0.65559   0.18077   0.00138   0.00000  Uiso   1.00
N322   N     0.68682   0.95751   0.48131   0.00000  Uiso   1.00
C323   C     0.87843   0.85818   0.00601   0.00000  Uiso   1.00
C324   C     0.80628   0.83598   0.94600   0.00000  Uiso   1.00
C325   C     0.80946   0.80585   0.85087   0.00000  Uiso   1.00
C326   C     0.73676   0.78930   0.80874   0.00000  Uiso   1.00
C327   C     0.63587   0.75281   0.70781   0.00000  Uiso   1.00
C328   C     0.87263   0.84680   0.14002   0.00000  Uiso   1.00
C329   C     0.93160   0.82578   0.20801   0.00000  Uiso   1.00
C330   C     0.91474   0.81835   0.32922   0.00000  Uiso   1.00
C331   C     0.91688   0.79869   0.52953   0.00000  Uiso   1.00
C332   C     0.86402   0.90833   0.99667   0.00000  Uiso   1.00
C333   C     0.91575   0.93905   0.94416   0.00000  Uiso   1.00
C334   C     0.89166   0.98342   0.94470   0.00000  Uiso   1.00
C335   C     0.88043   0.05929   0.92244   0.00000  Uiso   1.00
C336   C     0.74365   0.88236   0.10037   0.00000  Uiso   1.00
C337   C     0.73308   0.84911   0.99726   0.00000  Uiso   1.00
C338   C     0.66035   0.83261   0.95526   0.00000  Uiso   1.00
C339   C     0.66342   0.80246   0.86008   0.00000  Uiso   1.00
C340   C     0.79943   0.85993   0.19127   0.00000  Uiso   1.00
C341   C     0.78248   0.85253   0.31241   0.00000  Uiso   1.00
C342   C     0.84141   0.83151   0.38057   0.00000  Uiso   1.00
C343   C     0.79081   0.92146   0.04792   0.00000  Uiso   1.00
C344   C     0.76663   0.96580   0.04855   0.00000  Uiso   1.00
C345   C     0.81832   0.99657   0.99605   0.00000  Uiso   1.00
H346   H     0.93543   0.84796   0.96611   0.00000  Uiso   1.00
H347   H     0.86613   0.79570   0.81123   0.00000  Uiso   1.00
H348   H     0.98825   0.81563   0.16833   0.00000  Uiso   1.00
H349   H     0.97240   0.92887   0.90451   0.00000  Uiso   1.00
H350   H     0.75702   0.74353   0.66215   0.00000  Uiso   1.00
H351   H     0.01452   0.78557   0.41512   0.00000  Uiso   1.00
H352   H     0.98111   0.02437   0.85881   0.00000  Uiso   1.00
H353   H     0.68666   0.89259   0.14027   0.00000  Uiso   1.00
H354   H     0.60370   0.84277   0.99494   0.00000  Uiso   1.00
H355   H     0.72582   0.86270   0.35204   0.00000  Uiso   1.00
H356   H     0.70998   0.97595   0.08822   0.00000  Uiso   1.00
H357   H     0.54403   0.78174   0.81127   0.00000  Uiso   1.00
H358   H     0.80153   0.82378   0.56423   0.00000  Uiso   1.00
H359   H     0.76812   0.06258   0.00792   0.00000  Uiso   1.00
O360   O     0.60045   0.72905   0.63799   0.00000  Uiso   1.00
O361   O     0.93829   0.78422   0.62585   0.00000  Uiso   1.00
O362   O     0.89445   0.09751   0.89598   0.00000  Uiso   1.00
N363   N     0.71827   0.75937   0.71718   0.00000  Uiso   1.00
N364   N     0.95902   0.79867   0.42115   0.00000  Uiso   1.00
N365   N     0.92779   0.02192   0.90107   0.00000  Uiso   1.00
N366   N     0.60366   0.77993   0.79741   0.00000  Uiso   1.00
N367   N     0.84441   0.81923   0.50138   0.00000  Uiso   1.00
N368   N     0.81318   0.04249   0.98131   0.00000  Uiso   1.00
