data_job_05382
_audit_creation_date              2018-12-19
_audit_creation_method            'Materials Studio'
_symmetry_space_group_name_H-M    'P1'
_symmetry_Int_Tables_number       1
_symmetry_cell_setting            triclinic
loop_
_symmetry_equiv_pos_as_xyz
  x,y,z
_cell_length_a                    12.1324
_cell_length_b                    23.5278
_cell_length_c                    24.1047
_cell_angle_alpha                 90.0000
_cell_angle_beta                  90.0000
_cell_angle_gamma                 90.0000
loop_
_atom_site_label
_atom_site_type_symbol
_atom_site_fract_x
_atom_site_fract_y
_atom_site_fract_z
_atom_site_U_iso_or_equiv
_atom_site_adp_type
_atom_site_occupancy
C1     C     0.94504   0.65799   0.95177   0.00000  Uiso   1.00
C2     C     0.05652   0.62805   0.95177   0.00000  Uiso   1.00
C3     C     0.07287   0.56967   0.95178   0.00000  Uiso   1.00
C4     C     0.18123   0.55069   0.95179   0.00000  Uiso   1.00
C5     C     0.34082   0.49841   0.95182   0.00000  Uiso   1.00
C6     C     0.94528   0.69698   0.00230   0.00000  Uiso   1.00
C7     C     0.86810   0.69656   0.04480   0.00000  Uiso   1.00
C8     C     0.88281   0.73562   0.08735   0.00000  Uiso   1.00
C9     C     0.86967   0.79038   0.16581   0.00000  Uiso   1.00
C10    C     0.94526   0.69698   0.90124   0.00000  Uiso   1.00
C11    C     0.86805   0.69658   0.85876   0.00000  Uiso   1.00
C12    C     0.88273   0.73564   0.81622   0.00000  Uiso   1.00
C13    C     0.86955   0.79040   0.73776   0.00000  Uiso   1.00
C14    C     0.10838   0.72809   0.95176   0.00000  Uiso   1.00
C15    C     0.14523   0.66613   0.95177   0.00000  Uiso   1.00
C16    C     0.25359   0.64723   0.95177   0.00000  Uiso   1.00
C17    C     0.27011   0.58884   0.95178   0.00000  Uiso   1.00
C18    C     0.03400   0.73506   0.00230   0.00000  Uiso   1.00
C19    C     0.04882   0.77412   0.04479   0.00000  Uiso   1.00
C20    C     0.97169   0.77376   0.08734   0.00000  Uiso   1.00
C21    C     0.03398   0.73506   0.90123   0.00000  Uiso   1.00
C22    C     0.04878   0.77413   0.85875   0.00000  Uiso   1.00
C23    C     0.97161   0.77378   0.81621   0.00000  Uiso   1.00
H24    H     0.87596   0.62835   0.95178   0.00000  Uiso   1.00
H25    H     0.00419   0.54022   0.95179   0.00000  Uiso   1.00
H26    H     0.79945   0.66710   0.04479   0.00000  Uiso   1.00
H27    H     0.79940   0.66710   0.85878   0.00000  Uiso   1.00
H28    H     0.18548   0.45931   0.95182   0.00000  Uiso   1.00
H29    H     0.75374   0.72684   0.14791   0.00000  Uiso   1.00
H30    H     0.75364   0.72686   0.75566   0.00000  Uiso   1.00
H31    H     0.17746   0.75774   0.95176   0.00000  Uiso   1.00
H32    H     0.32223   0.67671   0.95177   0.00000  Uiso   1.00
H33    H     0.11748   0.80358   0.04477   0.00000  Uiso   1.00
H34    H     0.11744   0.80359   0.85876   0.00000  Uiso   1.00
H35    H     0.44362   0.57008   0.95181   0.00000  Uiso   1.00
H36    H     0.01187   0.83762   0.14790   0.00000  Uiso   1.00
H37    H     0.01178   0.83764   0.75565   0.00000  Uiso   1.00
O38    O     0.40435   0.45905   0.95184   0.00000  Uiso   1.00
O39    O     0.83791   0.81006   0.20909   0.00000  Uiso   1.00
O40    O     0.83779   0.81008   0.69448   0.00000  Uiso   1.00
N41    N     0.22636   0.49650   0.95180   0.00000  Uiso   1.00
N42    N     0.82272   0.74662   0.13514   0.00000  Uiso   1.00
N43    N     0.82262   0.74665   0.76843   0.00000  Uiso   1.00
N44    N     0.36527   0.55611   0.95180   0.00000  Uiso   1.00
N45    N     0.96162   0.80623   0.13513   0.00000  Uiso   1.00
N46    N     0.96152   0.80626   0.76843   0.00000  Uiso   1.00
C47    C     0.44504   0.15799   0.45177   0.00000  Uiso   1.00
C48    C     0.55652   0.12805   0.45177   0.00000  Uiso   1.00
C49    C     0.57287   0.06967   0.45178   0.00000  Uiso   1.00
C50    C     0.68123   0.05069   0.45179   0.00000  Uiso   1.00
C51    C     0.84082   0.99841   0.45182   0.00000  Uiso   1.00
C52    C     0.44528   0.19698   0.50230   0.00000  Uiso   1.00
C53    C     0.36810   0.19656   0.54480   0.00000  Uiso   1.00
C54    C     0.38281   0.23562   0.58735   0.00000  Uiso   1.00
C55    C     0.36967   0.29038   0.66581   0.00000  Uiso   1.00
C56    C     0.44526   0.19698   0.40124   0.00000  Uiso   1.00
C57    C     0.36805   0.19658   0.35876   0.00000  Uiso   1.00
C58    C     0.38273   0.23564   0.31622   0.00000  Uiso   1.00
C59    C     0.36955   0.29040   0.23776   0.00000  Uiso   1.00
C60    C     0.60838   0.22809   0.45176   0.00000  Uiso   1.00
C61    C     0.64523   0.16613   0.45177   0.00000  Uiso   1.00
C62    C     0.75359   0.14723   0.45177   0.00000  Uiso   1.00
C63    C     0.77011   0.08884   0.45178   0.00000  Uiso   1.00
C64    C     0.53400   0.23506   0.50230   0.00000  Uiso   1.00
C65    C     0.54882   0.27412   0.54479   0.00000  Uiso   1.00
C66    C     0.47169   0.27376   0.58734   0.00000  Uiso   1.00
C67    C     0.53398   0.23506   0.40123   0.00000  Uiso   1.00
C68    C     0.54878   0.27413   0.35875   0.00000  Uiso   1.00
C69    C     0.47161   0.27378   0.31621   0.00000  Uiso   1.00
H70    H     0.37596   0.12835   0.45178   0.00000  Uiso   1.00
H71    H     0.50419   0.04022   0.45179   0.00000  Uiso   1.00
H72    H     0.29945   0.16710   0.54479   0.00000  Uiso   1.00
H73    H     0.29940   0.16710   0.35878   0.00000  Uiso   1.00
H74    H     0.68548   0.95931   0.45182   0.00000  Uiso   1.00
H75    H     0.25374   0.22684   0.64791   0.00000  Uiso   1.00
H76    H     0.25364   0.22686   0.25566   0.00000  Uiso   1.00
H77    H     0.67746   0.25774   0.45176   0.00000  Uiso   1.00
H78    H     0.82223   0.17671   0.45177   0.00000  Uiso   1.00
H79    H     0.61748   0.30358   0.54477   0.00000  Uiso   1.00
H80    H     0.61744   0.30359   0.35876   0.00000  Uiso   1.00
H81    H     0.94362   0.07008   0.45181   0.00000  Uiso   1.00
H82    H     0.51187   0.33762   0.64790   0.00000  Uiso   1.00
H83    H     0.51178   0.33764   0.25565   0.00000  Uiso   1.00
O84    O     0.90435   0.95905   0.45184   0.00000  Uiso   1.00
O85    O     0.33791   0.31006   0.70909   0.00000  Uiso   1.00
O86    O     0.33779   0.31008   0.19448   0.00000  Uiso   1.00
N87    N     0.72636   0.99650   0.45180   0.00000  Uiso   1.00
N88    N     0.32272   0.24662   0.63514   0.00000  Uiso   1.00
N89    N     0.32262   0.24665   0.26843   0.00000  Uiso   1.00
N90    N     0.86527   0.05611   0.45180   0.00000  Uiso   1.00
N91    N     0.46162   0.30623   0.63513   0.00000  Uiso   1.00
N92    N     0.46152   0.30626   0.26843   0.00000  Uiso   1.00
C93    C     0.05496   0.34201   0.95177   0.00000  Uiso   1.00
C94    C     0.94348   0.37195   0.95177   0.00000  Uiso   1.00
C95    C     0.92713   0.43033   0.95178   0.00000  Uiso   1.00
C96    C     0.81877   0.44931   0.95179   0.00000  Uiso   1.00
C97    C     0.65918   0.50159   0.95182   0.00000  Uiso   1.00
C98    C     0.05472   0.30302   0.00230   0.00000  Uiso   1.00
C99    C     0.13190   0.30344   0.04480   0.00000  Uiso   1.00
C100   C     0.11719   0.26438   0.08735   0.00000  Uiso   1.00
C101   C     0.13033   0.20962   0.16581   0.00000  Uiso   1.00
C102   C     0.05474   0.30302   0.90124   0.00000  Uiso   1.00
C103   C     0.13195   0.30342   0.85876   0.00000  Uiso   1.00
C104   C     0.11727   0.26436   0.81622   0.00000  Uiso   1.00
C105   C     0.13045   0.20960   0.73776   0.00000  Uiso   1.00
C106   C     0.89162   0.27191   0.95176   0.00000  Uiso   1.00
C107   C     0.85477   0.33387   0.95177   0.00000  Uiso   1.00
C108   C     0.74641   0.35277   0.95177   0.00000  Uiso   1.00
C109   C     0.72989   0.41116   0.95178   0.00000  Uiso   1.00
C110   C     0.96600   0.26494   0.00230   0.00000  Uiso   1.00
C111   C     0.95118   0.22588   0.04479   0.00000  Uiso   1.00
C112   C     0.02831   0.22624   0.08734   0.00000  Uiso   1.00
C113   C     0.96602   0.26494   0.90123   0.00000  Uiso   1.00
C114   C     0.95122   0.22587   0.85875   0.00000  Uiso   1.00
C115   C     0.02839   0.22622   0.81621   0.00000  Uiso   1.00
H116   H     0.12404   0.37165   0.95178   0.00000  Uiso   1.00
H117   H     0.99581   0.45978   0.95179   0.00000  Uiso   1.00
H118   H     0.20055   0.33290   0.04479   0.00000  Uiso   1.00
H119   H     0.20060   0.33290   0.85878   0.00000  Uiso   1.00
H120   H     0.81452   0.54069   0.95182   0.00000  Uiso   1.00
H121   H     0.24626   0.27316   0.14791   0.00000  Uiso   1.00
H122   H     0.24636   0.27314   0.75566   0.00000  Uiso   1.00
H123   H     0.82254   0.24226   0.95176   0.00000  Uiso   1.00
H124   H     0.67777   0.32329   0.95177   0.00000  Uiso   1.00
H125   H     0.88252   0.19642   0.04477   0.00000  Uiso   1.00
H126   H     0.88256   0.19641   0.85876   0.00000  Uiso   1.00
H127   H     0.55638   0.42992   0.95181   0.00000  Uiso   1.00
H128   H     0.98813   0.16238   0.14790   0.00000  Uiso   1.00
H129   H     0.98822   0.16236   0.75565   0.00000  Uiso   1.00
O130   O     0.59565   0.54095   0.95184   0.00000  Uiso   1.00
O131   O     0.16209   0.18994   0.20909   0.00000  Uiso   1.00
O132   O     0.16221   0.18992   0.69448   0.00000  Uiso   1.00
N133   N     0.77364   0.50350   0.95180   0.00000  Uiso   1.00
N134   N     0.17728   0.25338   0.13514   0.00000  Uiso   1.00
N135   N     0.17738   0.25335   0.76843   0.00000  Uiso   1.00
N136   N     0.63473   0.44389   0.95180   0.00000  Uiso   1.00
N137   N     0.03838   0.19377   0.13513   0.00000  Uiso   1.00
N138   N     0.03848   0.19374   0.76843   0.00000  Uiso   1.00
C139   C     0.55496   0.84201   0.45177   0.00000  Uiso   1.00
C140   C     0.44348   0.87195   0.45177   0.00000  Uiso   1.00
C141   C     0.42713   0.93033   0.45178   0.00000  Uiso   1.00
C142   C     0.31877   0.94931   0.45179   0.00000  Uiso   1.00
C143   C     0.15918   0.00159   0.45182   0.00000  Uiso   1.00
C144   C     0.55472   0.80302   0.50230   0.00000  Uiso   1.00
C145   C     0.63190   0.80344   0.54480   0.00000  Uiso   1.00
C146   C     0.61719   0.76438   0.58735   0.00000  Uiso   1.00
C147   C     0.63033   0.70962   0.66581   0.00000  Uiso   1.00
C148   C     0.55474   0.80302   0.40124   0.00000  Uiso   1.00
C149   C     0.63195   0.80342   0.35876   0.00000  Uiso   1.00
C150   C     0.61727   0.76436   0.31622   0.00000  Uiso   1.00
C151   C     0.63045   0.70960   0.23776   0.00000  Uiso   1.00
C152   C     0.39162   0.77191   0.45176   0.00000  Uiso   1.00
C153   C     0.35477   0.83387   0.45177   0.00000  Uiso   1.00
C154   C     0.24641   0.85277   0.45177   0.00000  Uiso   1.00
C155   C     0.22989   0.91116   0.45178   0.00000  Uiso   1.00
C156   C     0.46600   0.76494   0.50230   0.00000  Uiso   1.00
C157   C     0.45118   0.72588   0.54479   0.00000  Uiso   1.00
C158   C     0.52831   0.72624   0.58734   0.00000  Uiso   1.00
C159   C     0.46602   0.76494   0.40123   0.00000  Uiso   1.00
C160   C     0.45122   0.72587   0.35875   0.00000  Uiso   1.00
C161   C     0.52839   0.72622   0.31621   0.00000  Uiso   1.00
H162   H     0.62404   0.87165   0.45178   0.00000  Uiso   1.00
H163   H     0.49581   0.95978   0.45179   0.00000  Uiso   1.00
H164   H     0.70055   0.83290   0.54479   0.00000  Uiso   1.00
H165   H     0.70060   0.83290   0.35878   0.00000  Uiso   1.00
H166   H     0.31452   0.04069   0.45182   0.00000  Uiso   1.00
H167   H     0.74626   0.77316   0.64791   0.00000  Uiso   1.00
H168   H     0.74636   0.77314   0.25566   0.00000  Uiso   1.00
H169   H     0.32254   0.74226   0.45176   0.00000  Uiso   1.00
H170   H     0.17777   0.82329   0.45177   0.00000  Uiso   1.00
H171   H     0.38252   0.69642   0.54477   0.00000  Uiso   1.00
H172   H     0.38256   0.69641   0.35876   0.00000  Uiso   1.00
H173   H     0.05638   0.92992   0.45181   0.00000  Uiso   1.00
H174   H     0.48813   0.66238   0.64790   0.00000  Uiso   1.00
H175   H     0.48822   0.66236   0.25565   0.00000  Uiso   1.00
O176   O     0.09565   0.04095   0.45184   0.00000  Uiso   1.00
O177   O     0.66209   0.68994   0.70909   0.00000  Uiso   1.00
O178   O     0.66221   0.68992   0.19448   0.00000  Uiso   1.00
N179   N     0.27364   0.00350   0.45180   0.00000  Uiso   1.00
N180   N     0.67728   0.75338   0.63514   0.00000  Uiso   1.00
N181   N     0.67738   0.75335   0.26843   0.00000  Uiso   1.00
N182   N     0.13473   0.94389   0.45180   0.00000  Uiso   1.00
N183   N     0.53838   0.69377   0.63513   0.00000  Uiso   1.00
N184   N     0.53848   0.69374   0.26843   0.00000  Uiso   1.00
C185   C     0.44504   0.84201   0.95177   0.00000  Uiso   1.00
C186   C     0.55652   0.87195   0.95177   0.00000  Uiso   1.00
C187   C     0.57287   0.93033   0.95178   0.00000  Uiso   1.00
C188   C     0.68123   0.94931   0.95179   0.00000  Uiso   1.00
C189   C     0.84082   0.00159   0.95182   0.00000  Uiso   1.00
C190   C     0.44528   0.80302   0.00230   0.00000  Uiso   1.00
C191   C     0.36810   0.80344   0.04480   0.00000  Uiso   1.00
C192   C     0.38281   0.76438   0.08735   0.00000  Uiso   1.00
C193   C     0.36967   0.70962   0.16581   0.00000  Uiso   1.00
C194   C     0.44526   0.80302   0.90124   0.00000  Uiso   1.00
C195   C     0.36805   0.80342   0.85876   0.00000  Uiso   1.00
C196   C     0.38273   0.76436   0.81622   0.00000  Uiso   1.00
C197   C     0.36955   0.70960   0.73776   0.00000  Uiso   1.00
C198   C     0.60838   0.77191   0.95176   0.00000  Uiso   1.00
C199   C     0.64523   0.83387   0.95177   0.00000  Uiso   1.00
C200   C     0.75359   0.85277   0.95177   0.00000  Uiso   1.00
C201   C     0.77011   0.91116   0.95178   0.00000  Uiso   1.00
C202   C     0.53400   0.76494   0.00230   0.00000  Uiso   1.00
C203   C     0.54882   0.72588   0.04479   0.00000  Uiso   1.00
C204   C     0.47169   0.72624   0.08734   0.00000  Uiso   1.00
C205   C     0.53398   0.76494   0.90123   0.00000  Uiso   1.00
C206   C     0.54878   0.72587   0.85875   0.00000  Uiso   1.00
C207   C     0.47161   0.72622   0.81621   0.00000  Uiso   1.00
H208   H     0.37596   0.87165   0.95178   0.00000  Uiso   1.00
H209   H     0.50419   0.95978   0.95179   0.00000  Uiso   1.00
H210   H     0.29945   0.83290   0.04479   0.00000  Uiso   1.00
H211   H     0.29940   0.83290   0.85878   0.00000  Uiso   1.00
H212   H     0.68548   0.04069   0.95182   0.00000  Uiso   1.00
H213   H     0.25374   0.77316   0.14791   0.00000  Uiso   1.00
H214   H     0.25364   0.77314   0.75566   0.00000  Uiso   1.00
H215   H     0.67746   0.74226   0.95176   0.00000  Uiso   1.00
H216   H     0.82223   0.82329   0.95177   0.00000  Uiso   1.00
H217   H     0.61748   0.69642   0.04477   0.00000  Uiso   1.00
H218   H     0.61744   0.69641   0.85876   0.00000  Uiso   1.00
H219   H     0.94362   0.92992   0.95181   0.00000  Uiso   1.00
H220   H     0.51187   0.66238   0.14790   0.00000  Uiso   1.00
H221   H     0.51178   0.66236   0.75565   0.00000  Uiso   1.00
O222   O     0.90435   0.04095   0.95184   0.00000  Uiso   1.00
O223   O     0.33791   0.68994   0.20909   0.00000  Uiso   1.00
O224   O     0.33779   0.68992   0.69448   0.00000  Uiso   1.00
N225   N     0.72636   0.00350   0.95180   0.00000  Uiso   1.00
N226   N     0.32272   0.75338   0.13514   0.00000  Uiso   1.00
N227   N     0.32262   0.75335   0.76843   0.00000  Uiso   1.00
N228   N     0.86527   0.94389   0.95180   0.00000  Uiso   1.00
N229   N     0.46162   0.69377   0.13513   0.00000  Uiso   1.00
N230   N     0.46152   0.69374   0.76843   0.00000  Uiso   1.00
C231   C     0.94504   0.34201   0.45177   0.00000  Uiso   1.00
C232   C     0.05652   0.37195   0.45177   0.00000  Uiso   1.00
C233   C     0.07287   0.43033   0.45178   0.00000  Uiso   1.00
C234   C     0.18123   0.44931   0.45179   0.00000  Uiso   1.00
C235   C     0.34082   0.50159   0.45182   0.00000  Uiso   1.00
C236   C     0.94528   0.30302   0.50230   0.00000  Uiso   1.00
C237   C     0.86810   0.30344   0.54480   0.00000  Uiso   1.00
C238   C     0.88281   0.26438   0.58735   0.00000  Uiso   1.00
C239   C     0.86967   0.20962   0.66581   0.00000  Uiso   1.00
C240   C     0.94526   0.30302   0.40124   0.00000  Uiso   1.00
C241   C     0.86805   0.30342   0.35876   0.00000  Uiso   1.00
C242   C     0.88273   0.26436   0.31622   0.00000  Uiso   1.00
C243   C     0.86955   0.20960   0.23776   0.00000  Uiso   1.00
C244   C     0.10838   0.27191   0.45176   0.00000  Uiso   1.00
C245   C     0.14523   0.33387   0.45177   0.00000  Uiso   1.00
C246   C     0.25359   0.35277   0.45177   0.00000  Uiso   1.00
C247   C     0.27011   0.41116   0.45178   0.00000  Uiso   1.00
C248   C     0.03400   0.26494   0.50230   0.00000  Uiso   1.00
C249   C     0.04882   0.22588   0.54479   0.00000  Uiso   1.00
C250   C     0.97169   0.22624   0.58734   0.00000  Uiso   1.00
C251   C     0.03398   0.26494   0.40123   0.00000  Uiso   1.00
C252   C     0.04878   0.22587   0.35875   0.00000  Uiso   1.00
C253   C     0.97161   0.22622   0.31621   0.00000  Uiso   1.00
H254   H     0.87596   0.37165   0.45178   0.00000  Uiso   1.00
H255   H     0.00419   0.45978   0.45179   0.00000  Uiso   1.00
H256   H     0.79945   0.33290   0.54479   0.00000  Uiso   1.00
H257   H     0.79940   0.33290   0.35878   0.00000  Uiso   1.00
H258   H     0.18548   0.54069   0.45182   0.00000  Uiso   1.00
H259   H     0.75374   0.27316   0.64791   0.00000  Uiso   1.00
H260   H     0.75364   0.27314   0.25566   0.00000  Uiso   1.00
H261   H     0.17746   0.24226   0.45176   0.00000  Uiso   1.00
H262   H     0.32223   0.32329   0.45177   0.00000  Uiso   1.00
H263   H     0.11748   0.19642   0.54477   0.00000  Uiso   1.00
H264   H     0.11744   0.19641   0.35876   0.00000  Uiso   1.00
H265   H     0.44362   0.42992   0.45181   0.00000  Uiso   1.00
H266   H     0.01187   0.16238   0.64790   0.00000  Uiso   1.00
H267   H     0.01178   0.16236   0.25565   0.00000  Uiso   1.00
O268   O     0.40435   0.54095   0.45184   0.00000  Uiso   1.00
O269   O     0.83791   0.18994   0.70909   0.00000  Uiso   1.00
O270   O     0.83779   0.18992   0.19448   0.00000  Uiso   1.00
N271   N     0.22636   0.50350   0.45180   0.00000  Uiso   1.00
N272   N     0.82272   0.25338   0.63514   0.00000  Uiso   1.00
N273   N     0.82262   0.25335   0.26843   0.00000  Uiso   1.00
N274   N     0.36527   0.44389   0.45180   0.00000  Uiso   1.00
N275   N     0.96162   0.19377   0.63513   0.00000  Uiso   1.00
N276   N     0.96152   0.19374   0.26843   0.00000  Uiso   1.00
C277   C     0.55496   0.15799   0.95177   0.00000  Uiso   1.00
C278   C     0.44348   0.12805   0.95177   0.00000  Uiso   1.00
C279   C     0.42713   0.06967   0.95178   0.00000  Uiso   1.00
C280   C     0.31877   0.05069   0.95179   0.00000  Uiso   1.00
C281   C     0.15918   0.99841   0.95182   0.00000  Uiso   1.00
C282   C     0.55472   0.19698   0.00230   0.00000  Uiso   1.00
C283   C     0.63190   0.19656   0.04480   0.00000  Uiso   1.00
C284   C     0.61719   0.23562   0.08735   0.00000  Uiso   1.00
C285   C     0.63033   0.29038   0.16581   0.00000  Uiso   1.00
C286   C     0.55474   0.19698   0.90124   0.00000  Uiso   1.00
C287   C     0.63195   0.19658   0.85876   0.00000  Uiso   1.00
C288   C     0.61727   0.23564   0.81622   0.00000  Uiso   1.00
C289   C     0.63045   0.29040   0.73776   0.00000  Uiso   1.00
C290   C     0.39162   0.22809   0.95176   0.00000  Uiso   1.00
C291   C     0.35477   0.16613   0.95177   0.00000  Uiso   1.00
C292   C     0.24641   0.14723   0.95177   0.00000  Uiso   1.00
C293   C     0.22989   0.08884   0.95178   0.00000  Uiso   1.00
C294   C     0.46600   0.23506   0.00230   0.00000  Uiso   1.00
C295   C     0.45118   0.27412   0.04479   0.00000  Uiso   1.00
C296   C     0.52831   0.27376   0.08734   0.00000  Uiso   1.00
C297   C     0.46602   0.23506   0.90123   0.00000  Uiso   1.00
C298   C     0.45122   0.27413   0.85875   0.00000  Uiso   1.00
C299   C     0.52839   0.27378   0.81621   0.00000  Uiso   1.00
H300   H     0.62404   0.12835   0.95178   0.00000  Uiso   1.00
H301   H     0.49581   0.04022   0.95179   0.00000  Uiso   1.00
H302   H     0.70055   0.16710   0.04479   0.00000  Uiso   1.00
H303   H     0.70060   0.16710   0.85878   0.00000  Uiso   1.00
H304   H     0.31452   0.95931   0.95182   0.00000  Uiso   1.00
H305   H     0.74626   0.22684   0.14791   0.00000  Uiso   1.00
H306   H     0.74636   0.22686   0.75566   0.00000  Uiso   1.00
H307   H     0.32254   0.25774   0.95176   0.00000  Uiso   1.00
H308   H     0.17777   0.17671   0.95177   0.00000  Uiso   1.00
H309   H     0.38252   0.30358   0.04477   0.00000  Uiso   1.00
H310   H     0.38256   0.30359   0.85876   0.00000  Uiso   1.00
H311   H     0.05638   0.07008   0.95181   0.00000  Uiso   1.00
H312   H     0.48813   0.33762   0.14790   0.00000  Uiso   1.00
H313   H     0.48822   0.33764   0.75565   0.00000  Uiso   1.00
O314   O     0.09565   0.95905   0.95184   0.00000  Uiso   1.00
O315   O     0.66209   0.31006   0.20909   0.00000  Uiso   1.00
O316   O     0.66221   0.31008   0.69448   0.00000  Uiso   1.00
N317   N     0.27364   0.99650   0.95180   0.00000  Uiso   1.00
N318   N     0.67728   0.24662   0.13514   0.00000  Uiso   1.00
N319   N     0.67738   0.24665   0.76843   0.00000  Uiso   1.00
N320   N     0.13473   0.05611   0.95180   0.00000  Uiso   1.00
N321   N     0.53838   0.30623   0.13513   0.00000  Uiso   1.00
N322   N     0.53848   0.30626   0.76843   0.00000  Uiso   1.00
C323   C     0.05496   0.65799   0.45177   0.00000  Uiso   1.00
C324   C     0.94348   0.62805   0.45177   0.00000  Uiso   1.00
C325   C     0.92713   0.56967   0.45178   0.00000  Uiso   1.00
C326   C     0.81877   0.55069   0.45179   0.00000  Uiso   1.00
C327   C     0.65918   0.49841   0.45182   0.00000  Uiso   1.00
C328   C     0.05472   0.69698   0.50230   0.00000  Uiso   1.00
C329   C     0.13190   0.69656   0.54480   0.00000  Uiso   1.00
C330   C     0.11719   0.73562   0.58735   0.00000  Uiso   1.00
C331   C     0.13033   0.79038   0.66581   0.00000  Uiso   1.00
C332   C     0.05474   0.69698   0.40124   0.00000  Uiso   1.00
C333   C     0.13195   0.69658   0.35876   0.00000  Uiso   1.00
C334   C     0.11727   0.73564   0.31622   0.00000  Uiso   1.00
C335   C     0.13045   0.79040   0.23776   0.00000  Uiso   1.00
C336   C     0.89162   0.72809   0.45176   0.00000  Uiso   1.00
C337   C     0.85477   0.66613   0.45177   0.00000  Uiso   1.00
C338   C     0.74641   0.64723   0.45177   0.00000  Uiso   1.00
C339   C     0.72989   0.58884   0.45178   0.00000  Uiso   1.00
C340   C     0.96600   0.73506   0.50230   0.00000  Uiso   1.00
C341   C     0.95118   0.77412   0.54479   0.00000  Uiso   1.00
C342   C     0.02831   0.77376   0.58734   0.00000  Uiso   1.00
C343   C     0.96602   0.73506   0.40123   0.00000  Uiso   1.00
C344   C     0.95122   0.77413   0.35875   0.00000  Uiso   1.00
C345   C     0.02839   0.77378   0.31621   0.00000  Uiso   1.00
H346   H     0.12404   0.62835   0.45178   0.00000  Uiso   1.00
H347   H     0.99581   0.54022   0.45179   0.00000  Uiso   1.00
H348   H     0.20055   0.66710   0.54479   0.00000  Uiso   1.00
H349   H     0.20060   0.66710   0.35878   0.00000  Uiso   1.00
H350   H     0.81452   0.45931   0.45182   0.00000  Uiso   1.00
H351   H     0.24626   0.72684   0.64791   0.00000  Uiso   1.00
H352   H     0.24636   0.72686   0.25566   0.00000  Uiso   1.00
H353   H     0.82254   0.75774   0.45176   0.00000  Uiso   1.00
H354   H     0.67777   0.67671   0.45177   0.00000  Uiso   1.00
H355   H     0.88252   0.80358   0.54477   0.00000  Uiso   1.00
H356   H     0.88256   0.80359   0.35876   0.00000  Uiso   1.00
H357   H     0.55638   0.57008   0.45181   0.00000  Uiso   1.00
H358   H     0.98813   0.83762   0.64790   0.00000  Uiso   1.00
H359   H     0.98822   0.83764   0.25565   0.00000  Uiso   1.00
O360   O     0.59565   0.45905   0.45184   0.00000  Uiso   1.00
O361   O     0.16209   0.81006   0.70909   0.00000  Uiso   1.00
O362   O     0.16221   0.81008   0.19448   0.00000  Uiso   1.00
N363   N     0.77364   0.49650   0.45180   0.00000  Uiso   1.00
N364   N     0.17728   0.74662   0.63514   0.00000  Uiso   1.00
N365   N     0.17738   0.74665   0.26843   0.00000  Uiso   1.00
N366   N     0.63473   0.55611   0.45180   0.00000  Uiso   1.00
N367   N     0.03838   0.80623   0.63513   0.00000  Uiso   1.00
N368   N     0.03848   0.80626   0.26843   0.00000  Uiso   1.00
