data_job_06148
_audit_creation_date              2018-12-19
_audit_creation_method            'Materials Studio'
_symmetry_space_group_name_H-M    'P1'
_symmetry_Int_Tables_number       1
_symmetry_cell_setting            triclinic
loop_
_symmetry_equiv_pos_as_xyz
  x,y,z
_cell_length_a                    13.4020
_cell_length_b                    20.6572
_cell_length_c                    20.7061
_cell_angle_alpha                 64.3160
_cell_angle_beta                  78.2400
_cell_angle_gamma                 101.7034
loop_
_atom_site_label
_atom_site_type_symbol
_atom_site_fract_x
_atom_site_fract_y
_atom_site_fract_z
_atom_site_U_iso_or_equiv
_atom_site_adp_type
_atom_site_occupancy
C1     C     0.71686   0.35479   0.12943   0.00000  Uiso   1.00
C2     C     0.78699   0.31099   0.11187   0.00000  Uiso   1.00
C3     C     0.86379   0.33630   0.04245   0.00000  Uiso   1.00
C4     C     0.91949   0.28777   0.03791   0.00000  Uiso   1.00
C5     C     0.03147   0.23058   0.00109   0.00000  Uiso   1.00
C6     C     0.60028   0.30310   0.15858   0.00000  Uiso   1.00
C7     C     0.52009   0.32179   0.12845   0.00000  Uiso   1.00
C8     C     0.41861   0.26662   0.16324   0.00000  Uiso   1.00
C9     C     0.24069   0.19721   0.19899   0.00000  Uiso   1.00
C10    C     0.73747   0.36036   0.19690   0.00000  Uiso   1.00
C11    C     0.77261   0.42720   0.19899   0.00000  Uiso   1.00
C12    C     0.78660   0.42024   0.26605   0.00000  Uiso   1.00
C13    C     0.82170   0.43974   0.36129   0.00000  Uiso   1.00
C14    C     0.67920   0.22360   0.24480   0.00000  Uiso   1.00
C15    C     0.76653   0.23973   0.17453   0.00000  Uiso   1.00
C16    C     0.82213   0.19115   0.17010   0.00000  Uiso   1.00
C17    C     0.89900   0.21638   0.10068   0.00000  Uiso   1.00
C18    C     0.57982   0.23185   0.22125   0.00000  Uiso   1.00
C19    C     0.47843   0.17664   0.25609   0.00000  Uiso   1.00
C20    C     0.39811   0.19524   0.22602   0.00000  Uiso   1.00
C21    C     0.71702   0.28911   0.25956   0.00000  Uiso   1.00
C22    C     0.73095   0.28205   0.32663   0.00000  Uiso   1.00
C23    C     0.76611   0.34885   0.32883   0.00000  Uiso   1.00
H24    H     0.73277   0.41026   0.08065   0.00000  Uiso   1.00
H25    H     0.87959   0.39144   0.99397   0.00000  Uiso   1.00
H26    H     0.53595   0.37694   0.07996   0.00000  Uiso   1.00
H27    H     0.78843   0.48233   0.15049   0.00000  Uiso   1.00
H28    H     0.03332   0.33914   0.92550   0.00000  Uiso   1.00
H29    H     0.30871   0.30857   0.10684   0.00000  Uiso   1.00
H30    H     0.84112   0.53081   0.25556   0.00000  Uiso   1.00
H31    H     0.66327   0.16812   0.29359   0.00000  Uiso   1.00
H32    H     0.80628   0.13601   0.21860   0.00000  Uiso   1.00
H33    H     0.46263   0.12151   0.30459   0.00000  Uiso   1.00
H34    H     0.71512   0.22689   0.37512   0.00000  Uiso   1.00
H35    H     0.97382   0.13182   0.10781   0.00000  Uiso   1.00
H36    H     0.24920   0.10125   0.28915   0.00000  Uiso   1.00
H37    H     0.78162   0.32348   0.43787   0.00000  Uiso   1.00
O38    O     0.09887   0.21872   0.96347   0.00000  Uiso   1.00
O39    O     0.14822   0.17862   0.20139   0.00000  Uiso   1.00
O40    O     0.84673   0.47018   0.39651   0.00000  Uiso   1.00
N41    N     0.99971   0.29476   0.97870   0.00000  Uiso   1.00
N42    N     0.32224   0.26617   0.14823   0.00000  Uiso   1.00
N43    N     0.81997   0.47395   0.28728   0.00000  Uiso   1.00
N44    N     0.96769   0.18321   0.07680   0.00000  Uiso   1.00
N45    N     0.29023   0.15462   0.24633   0.00000  Uiso   1.00
N46    N     0.78796   0.36239   0.38539   0.00000  Uiso   1.00
C47    C     0.36699   0.51784   0.35203   0.00000  Uiso   1.00
C48    C     0.47869   0.57825   0.30981   0.00000  Uiso   1.00
C49    C     0.53047   0.62206   0.33616   0.00000  Uiso   1.00
C50    C     0.63239   0.67424   0.28902   0.00000  Uiso   1.00
C51    C     0.79845   0.76685   0.23424   0.00000  Uiso   1.00
C52    C     0.30106   0.54082   0.29901   0.00000  Uiso   1.00
C53    C     0.20349   0.55315   0.31628   0.00000  Uiso   1.00
C54    C     0.15588   0.57381   0.26004   0.00000  Uiso   1.00
C55    C     0.04613   0.60826   0.18851   0.00000  Uiso   1.00
C56    C     0.38216   0.44456   0.35778   0.00000  Uiso   1.00
C57    C     0.35276   0.37594   0.42447   0.00000  Uiso   1.00
C58    C     0.37341   0.31555   0.41772   0.00000  Uiso   1.00
C59    C     0.38959   0.20054   0.43744   0.00000  Uiso   1.00
C60    C     0.45591   0.53259   0.22146   0.00000  Uiso   1.00
C61    C     0.52698   0.58626   0.23889   0.00000  Uiso   1.00
C62    C     0.62885   0.63838   0.19170   0.00000  Uiso   1.00
C63    C     0.68078   0.68226   0.21797   0.00000  Uiso   1.00
C64    C     0.34935   0.54883   0.22809   0.00000  Uiso   1.00
C65    C     0.30187   0.56947   0.17182   0.00000  Uiso   1.00
C66    C     0.20426   0.58184   0.18899   0.00000  Uiso   1.00
C67    C     0.43046   0.45257   0.28686   0.00000  Uiso   1.00
C68    C     0.45115   0.39227   0.28001   0.00000  Uiso   1.00
C69    C     0.42179   0.32358   0.34667   0.00000  Uiso   1.00
H70    H     0.32938   0.51160   0.40724   0.00000  Uiso   1.00
H71    H     0.49306   0.61585   0.39104   0.00000  Uiso   1.00
H72    H     0.16613   0.54694   0.37117   0.00000  Uiso   1.00
H73    H     0.31539   0.36976   0.47934   0.00000  Uiso   1.00
H74    H     0.69581   0.73498   0.34180   0.00000  Uiso   1.00
H75    H     0.00644   0.58966   0.29990   0.00000  Uiso   1.00
H76    H     0.32117   0.21605   0.52800   0.00000  Uiso   1.00
H77    H     0.49351   0.53883   0.16624   0.00000  Uiso   1.00
H78    H     0.66620   0.64457   0.13682   0.00000  Uiso   1.00
H79    H     0.33927   0.57566   0.11694   0.00000  Uiso   1.00
H80    H     0.48852   0.39849   0.22512   0.00000  Uiso   1.00
H81    H     0.83634   0.75830   0.13546   0.00000  Uiso   1.00
H82    H     0.14696   0.61297   0.09356   0.00000  Uiso   1.00
H83    H     0.46170   0.23937   0.32166   0.00000  Uiso   1.00
O84    O     0.87670   0.81572   0.22361   0.00000  Uiso   1.00
O85    O     0.97226   0.62505   0.16864   0.00000  Uiso   1.00
O86    O     0.38519   0.13489   0.46792   0.00000  Uiso   1.00
N87    N     0.70520   0.72594   0.29728   0.00000  Uiso   1.00
N88    N     0.06068   0.59009   0.25810   0.00000  Uiso   1.00
N89    N     0.35490   0.24079   0.47136   0.00000  Uiso   1.00
N90    N     0.78081   0.73849   0.18625   0.00000  Uiso   1.00
N91    N     0.13629   0.60263   0.14707   0.00000  Uiso   1.00
N92    N     0.43052   0.25334   0.36033   0.00000  Uiso   1.00
C93    C     0.85028   0.13159   0.51450   0.00000  Uiso   1.00
C94    C     0.90296   0.11309   0.57609   0.00000  Uiso   1.00
C95    C     0.91225   0.04285   0.62023   0.00000  Uiso   1.00
C96    C     0.96315   0.03752   0.67353   0.00000  Uiso   1.00
C97    C     0.03880   0.99924   0.76786   0.00000  Uiso   1.00
C98    C     0.76269   0.16247   0.53627   0.00000  Uiso   1.00
C99    C     0.65405   0.13376   0.54692   0.00000  Uiso   1.00
C100   C     0.58687   0.17001   0.56669   0.00000  Uiso   1.00
C101   C     0.44477   0.20844   0.59914   0.00000  Uiso   1.00
C102   C     0.93580   0.19831   0.44222   0.00000  Uiso   1.00
C103   C     0.97268   0.19975   0.37376   0.00000  Uiso   1.00
C104   C     0.05124   0.26618   0.31434   0.00000  Uiso   1.00
C105   C     0.17791   0.36025   0.20075   0.00000  Uiso   1.00
C106   C     0.92417   0.24702   0.53067   0.00000  Uiso   1.00
C107   C     0.94310   0.17578   0.58488   0.00000  Uiso   1.00
C108   C     0.99400   0.17056   0.63812   0.00000  Uiso   1.00
C109   C     0.00336   0.10033   0.68233   0.00000  Uiso   1.00
C110   C     0.80283   0.22516   0.54506   0.00000  Uiso   1.00
C111   C     0.73580   0.26147   0.56481   0.00000  Uiso   1.00
C112   C     0.62708   0.23282   0.57549   0.00000  Uiso   1.00
C113   C     0.97594   0.26101   0.45100   0.00000  Uiso   1.00
C114   C     0.05444   0.32745   0.39166   0.00000  Uiso   1.00
C115   C     0.09144   0.32899   0.32314   0.00000  Uiso   1.00
H116   H     0.81902   0.08278   0.50766   0.00000  Uiso   1.00
H117   H     0.88116   0.99434   0.61342   0.00000  Uiso   1.00
H118   H     0.62301   0.08525   0.54011   0.00000  Uiso   1.00
H119   H     0.94160   0.15122   0.36699   0.00000  Uiso   1.00
H120   H     0.96773   0.92394   0.73457   0.00000  Uiso   1.00
H121   H     0.42340   0.11563   0.57997   0.00000  Uiso   1.00
H122   H     0.09521   0.25475   0.21490   0.00000  Uiso   1.00
H123   H     0.95542   0.29583   0.53751   0.00000  Uiso   1.00
H124   H     0.02505   0.21909   0.64491   0.00000  Uiso   1.00
H125   H     0.76689   0.30999   0.57160   0.00000  Uiso   1.00
H126   H     0.08548   0.37596   0.39848   0.00000  Uiso   1.00
H127   H     0.08451   0.10635   0.76013   0.00000  Uiso   1.00
H128   H     0.54018   0.29804   0.60552   0.00000  Uiso   1.00
H129   H     0.21199   0.43715   0.24046   0.00000  Uiso   1.00
O130   O     0.06943   0.96081   0.81748   0.00000  Uiso   1.00
O131   O     0.35530   0.21231   0.61463   0.00000  Uiso   1.00
O132   O     0.23670   0.39482   0.13568   0.00000  Uiso   1.00
N133   N     0.98567   0.97741   0.72583   0.00000  Uiso   1.00
N134   N     0.47676   0.15662   0.58130   0.00000  Uiso   1.00
N135   N     0.10482   0.28669   0.23999   0.00000  Uiso   1.00
N136   N     0.04851   0.07556   0.73959   0.00000  Uiso   1.00
N137   N     0.53960   0.25477   0.59505   0.00000  Uiso   1.00
N138   N     0.16766   0.38484   0.25374   0.00000  Uiso   1.00
C139   C     0.28314   0.64521   0.87057   0.00000  Uiso   1.00
C140   C     0.21300   0.68901   0.88813   0.00000  Uiso   1.00
C141   C     0.13621   0.66370   0.95755   0.00000  Uiso   1.00
C142   C     0.08051   0.71223   0.96209   0.00000  Uiso   1.00
C143   C     0.96853   0.76942   0.99891   0.00000  Uiso   1.00
C144   C     0.39972   0.69690   0.84142   0.00000  Uiso   1.00
C145   C     0.47991   0.67821   0.87155   0.00000  Uiso   1.00
C146   C     0.58139   0.73338   0.83676   0.00000  Uiso   1.00
C147   C     0.75930   0.80279   0.80101   0.00000  Uiso   1.00
C148   C     0.26253   0.63964   0.80310   0.00000  Uiso   1.00
C149   C     0.22739   0.57280   0.80101   0.00000  Uiso   1.00
C150   C     0.21339   0.57976   0.73395   0.00000  Uiso   1.00
C151   C     0.17830   0.56026   0.63871   0.00000  Uiso   1.00
C152   C     0.32080   0.77640   0.75520   0.00000  Uiso   1.00
C153   C     0.23347   0.76027   0.82547   0.00000  Uiso   1.00
C154   C     0.17787   0.80885   0.82990   0.00000  Uiso   1.00
C155   C     0.10100   0.78362   0.89932   0.00000  Uiso   1.00
C156   C     0.42017   0.76815   0.77875   0.00000  Uiso   1.00
C157   C     0.52157   0.82336   0.74391   0.00000  Uiso   1.00
C158   C     0.60189   0.80476   0.77398   0.00000  Uiso   1.00
C159   C     0.28298   0.71089   0.74044   0.00000  Uiso   1.00
C160   C     0.26905   0.71795   0.67337   0.00000  Uiso   1.00
C161   C     0.23389   0.65115   0.67117   0.00000  Uiso   1.00
H162   H     0.26723   0.58974   0.91935   0.00000  Uiso   1.00
H163   H     0.12041   0.60856   0.00603   0.00000  Uiso   1.00
H164   H     0.46405   0.62306   0.92004   0.00000  Uiso   1.00
H165   H     0.21157   0.51767   0.84951   0.00000  Uiso   1.00
H166   H     0.96668   0.66086   0.07450   0.00000  Uiso   1.00
H167   H     0.69129   0.69143   0.89317   0.00000  Uiso   1.00
H168   H     0.15888   0.46919   0.74444   0.00000  Uiso   1.00
H169   H     0.33673   0.83188   0.70641   0.00000  Uiso   1.00
H170   H     0.19372   0.86399   0.78140   0.00000  Uiso   1.00
H171   H     0.53737   0.87849   0.69541   0.00000  Uiso   1.00
H172   H     0.28488   0.77310   0.62489   0.00000  Uiso   1.00
H173   H     0.02618   0.86818   0.89219   0.00000  Uiso   1.00
H174   H     0.75080   0.89875   0.71085   0.00000  Uiso   1.00
H175   H     0.21838   0.67652   0.56213   0.00000  Uiso   1.00
O176   O     0.90113   0.78128   0.03653   0.00000  Uiso   1.00
O177   O     0.85178   0.82138   0.79861   0.00000  Uiso   1.00
O178   O     0.15327   0.52982   0.60349   0.00000  Uiso   1.00
N179   N     0.00029   0.70524   0.02130   0.00000  Uiso   1.00
N180   N     0.67776   0.73383   0.85177   0.00000  Uiso   1.00
N181   N     0.18003   0.52605   0.71272   0.00000  Uiso   1.00
N182   N     0.03231   0.81679   0.92320   0.00000  Uiso   1.00
N183   N     0.70977   0.84538   0.75367   0.00000  Uiso   1.00
N184   N     0.21204   0.63761   0.61461   0.00000  Uiso   1.00
C185   C     0.63301   0.48216   0.64797   0.00000  Uiso   1.00
C186   C     0.52131   0.42175   0.69019   0.00000  Uiso   1.00
C187   C     0.46953   0.37794   0.66384   0.00000  Uiso   1.00
C188   C     0.36761   0.32576   0.71098   0.00000  Uiso   1.00
C189   C     0.20155   0.23315   0.76576   0.00000  Uiso   1.00
C190   C     0.69894   0.45918   0.70099   0.00000  Uiso   1.00
C191   C     0.79651   0.44685   0.68372   0.00000  Uiso   1.00
C192   C     0.84412   0.42619   0.73996   0.00000  Uiso   1.00
C193   C     0.95387   0.39174   0.81149   0.00000  Uiso   1.00
C194   C     0.61784   0.55544   0.64222   0.00000  Uiso   1.00
C195   C     0.64724   0.62406   0.57553   0.00000  Uiso   1.00
C196   C     0.62659   0.68445   0.58228   0.00000  Uiso   1.00
C197   C     0.61041   0.79946   0.56256   0.00000  Uiso   1.00
C198   C     0.54409   0.46741   0.77854   0.00000  Uiso   1.00
C199   C     0.47302   0.41374   0.76111   0.00000  Uiso   1.00
C200   C     0.37115   0.36162   0.80830   0.00000  Uiso   1.00
C201   C     0.31922   0.31774   0.78203   0.00000  Uiso   1.00
C202   C     0.65065   0.45117   0.77191   0.00000  Uiso   1.00
C203   C     0.69813   0.43053   0.82818   0.00000  Uiso   1.00
C204   C     0.79574   0.41816   0.81101   0.00000  Uiso   1.00
C205   C     0.56954   0.54743   0.71314   0.00000  Uiso   1.00
C206   C     0.54885   0.60773   0.71999   0.00000  Uiso   1.00
C207   C     0.57821   0.67642   0.65333   0.00000  Uiso   1.00
H208   H     0.67062   0.48840   0.59276   0.00000  Uiso   1.00
H209   H     0.50694   0.38415   0.60896   0.00000  Uiso   1.00
H210   H     0.83387   0.45306   0.62883   0.00000  Uiso   1.00
H211   H     0.68461   0.63024   0.52066   0.00000  Uiso   1.00
H212   H     0.30419   0.26502   0.65820   0.00000  Uiso   1.00
H213   H     0.99356   0.41034   0.70010   0.00000  Uiso   1.00
H214   H     0.67883   0.78395   0.47200   0.00000  Uiso   1.00
H215   H     0.50649   0.46117   0.83376   0.00000  Uiso   1.00
H216   H     0.33380   0.35543   0.86318   0.00000  Uiso   1.00
H217   H     0.66073   0.42434   0.88306   0.00000  Uiso   1.00
H218   H     0.51148   0.60151   0.77488   0.00000  Uiso   1.00
H219   H     0.16366   0.24170   0.86454   0.00000  Uiso   1.00
H220   H     0.85304   0.38703   0.90644   0.00000  Uiso   1.00
H221   H     0.53830   0.76063   0.67834   0.00000  Uiso   1.00
O222   O     0.12330   0.18428   0.77639   0.00000  Uiso   1.00
O223   O     0.02774   0.37495   0.83136   0.00000  Uiso   1.00
O224   O     0.61481   0.86511   0.53208   0.00000  Uiso   1.00
N225   N     0.29480   0.27406   0.70272   0.00000  Uiso   1.00
N226   N     0.93932   0.40991   0.74190   0.00000  Uiso   1.00
N227   N     0.64510   0.75921   0.52864   0.00000  Uiso   1.00
N228   N     0.21919   0.26151   0.81375   0.00000  Uiso   1.00
N229   N     0.86371   0.39737   0.85293   0.00000  Uiso   1.00
N230   N     0.56948   0.74666   0.63967   0.00000  Uiso   1.00
C231   C     0.14972   0.86841   0.48550   0.00000  Uiso   1.00
C232   C     0.09704   0.88691   0.42391   0.00000  Uiso   1.00
C233   C     0.08775   0.95715   0.37977   0.00000  Uiso   1.00
C234   C     0.03685   0.96248   0.32647   0.00000  Uiso   1.00
C235   C     0.96120   0.00076   0.23214   0.00000  Uiso   1.00
C236   C     0.23731   0.83753   0.46373   0.00000  Uiso   1.00
C237   C     0.34595   0.86624   0.45308   0.00000  Uiso   1.00
C238   C     0.41313   0.82999   0.43331   0.00000  Uiso   1.00
C239   C     0.55523   0.79156   0.40086   0.00000  Uiso   1.00
C240   C     0.06420   0.80169   0.55778   0.00000  Uiso   1.00
C241   C     0.02732   0.80025   0.62624   0.00000  Uiso   1.00
C242   C     0.94876   0.73382   0.68566   0.00000  Uiso   1.00
C243   C     0.82209   0.63975   0.79925   0.00000  Uiso   1.00
C244   C     0.07583   0.75298   0.46933   0.00000  Uiso   1.00
C245   C     0.05690   0.82422   0.41512   0.00000  Uiso   1.00
C246   C     0.00600   0.82944   0.36188   0.00000  Uiso   1.00
C247   C     0.99664   0.89967   0.31767   0.00000  Uiso   1.00
C248   C     0.19717   0.77484   0.45494   0.00000  Uiso   1.00
C249   C     0.26420   0.73853   0.43519   0.00000  Uiso   1.00
C250   C     0.37292   0.76718   0.42451   0.00000  Uiso   1.00
C251   C     0.02406   0.73899   0.54900   0.00000  Uiso   1.00
C252   C     0.94556   0.67255   0.60834   0.00000  Uiso   1.00
C253   C     0.90856   0.67101   0.67686   0.00000  Uiso   1.00
H254   H     0.18098   0.91722   0.49234   0.00000  Uiso   1.00
H255   H     0.11884   0.00566   0.38658   0.00000  Uiso   1.00
H256   H     0.37699   0.91475   0.45989   0.00000  Uiso   1.00
H257   H     0.05840   0.84878   0.63301   0.00000  Uiso   1.00
H258   H     0.03227   0.07606   0.26543   0.00000  Uiso   1.00
H259   H     0.57660   0.88437   0.42003   0.00000  Uiso   1.00
H260   H     0.90479   0.74525   0.78510   0.00000  Uiso   1.00
H261   H     0.04458   0.70417   0.46249   0.00000  Uiso   1.00
H262   H     0.97495   0.78091   0.35509   0.00000  Uiso   1.00
H263   H     0.23311   0.69001   0.42840   0.00000  Uiso   1.00
H264   H     0.91452   0.62404   0.60152   0.00000  Uiso   1.00
H265   H     0.91549   0.89365   0.23987   0.00000  Uiso   1.00
H266   H     0.45982   0.70196   0.39448   0.00000  Uiso   1.00
H267   H     0.78801   0.56284   0.75954   0.00000  Uiso   1.00
O268   O     0.93057   0.03919   0.18252   0.00000  Uiso   1.00
O269   O     0.64470   0.78769   0.38537   0.00000  Uiso   1.00
O270   O     0.76330   0.60518   0.86432   0.00000  Uiso   1.00
N271   N     0.01433   0.02259   0.27417   0.00000  Uiso   1.00
N272   N     0.52324   0.84338   0.41870   0.00000  Uiso   1.00
N273   N     0.89518   0.71331   0.76001   0.00000  Uiso   1.00
N274   N     0.95149   0.92444   0.26041   0.00000  Uiso   1.00
N275   N     0.46040   0.74523   0.40495   0.00000  Uiso   1.00
N276   N     0.83234   0.61516   0.74626   0.00000  Uiso   1.00
