data_job_00329
_audit_creation_date              2018-12-19
_audit_creation_method            'Materials Studio'
_symmetry_space_group_name_H-M    'P1'
_symmetry_Int_Tables_number       1
_symmetry_cell_setting            triclinic
loop_
_symmetry_equiv_pos_as_xyz
  x,y,z
_cell_length_a                    19.5805
_cell_length_b                    10.7875
_cell_length_c                    21.4445
_cell_angle_alpha                 90.0000
_cell_angle_beta                  106.1570
_cell_angle_gamma                 90.0000
loop_
_atom_site_label
_atom_site_type_symbol
_atom_site_fract_x
_atom_site_fract_y
_atom_site_fract_z
_atom_site_U_iso_or_equiv
_atom_site_adp_type
_atom_site_occupancy
C1     C     0.28412   0.04848   0.23343   0.00000  Uiso   1.00
C2     C     0.24664   0.12711   0.17480   0.00000  Uiso   1.00
C3     C     0.17403   0.12870   0.14489   0.00000  Uiso   1.00
C4     C     0.15018   0.20698   0.09188   0.00000  Uiso   1.00
C5     C     0.08482   0.31777   0.00420   0.00000  Uiso   1.00
C6     C     0.33976   0.97266   0.21263   0.00000  Uiso   1.00
C7     C     0.34544   0.84439   0.21454   0.00000  Uiso   1.00
C8     C     0.39999   0.79265   0.19339   0.00000  Uiso   1.00
C9     C     0.47923   0.66365   0.16449   0.00000  Uiso   1.00
C10    C     0.32544   0.13899   0.28480   0.00000  Uiso   1.00
C11    C     0.31909   0.15056   0.34740   0.00000  Uiso   1.00
C12    C     0.36159   0.23884   0.38702   0.00000  Uiso   1.00
C13    C     0.41858   0.36810   0.47017   0.00000  Uiso   1.00
C14    C     0.37091   0.18466   0.19248   0.00000  Uiso   1.00
C15    C     0.29379   0.20108   0.15255   0.00000  Uiso   1.00
C16    C     0.27005   0.27937   0.09958   0.00000  Uiso   1.00
C17    C     0.19741   0.28108   0.06960   0.00000  Uiso   1.00
C18    C     0.38690   0.04662   0.19039   0.00000  Uiso   1.00
C19    C     0.44146   0.99506   0.16923   0.00000  Uiso   1.00
C20    C     0.44722   0.86675   0.17111   0.00000  Uiso   1.00
C21    C     0.37258   0.21296   0.26256   0.00000  Uiso   1.00
C22    C     0.41510   0.30123   0.30209   0.00000  Uiso   1.00
C23    C     0.40882   0.31294   0.36473   0.00000  Uiso   1.00
H24    H     0.24743   0.99089   0.25075   0.00000  Uiso   1.00
H25    H     0.13756   0.07144   0.16211   0.00000  Uiso   1.00
H26    H     0.30896   0.78717   0.23176   0.00000  Uiso   1.00
H27    H     0.28260   0.09330   0.36459   0.00000  Uiso   1.00
H28    H     0.03655   0.19333   0.05402   0.00000  Uiso   1.00
H29    H     0.39796   0.59394   0.20089   0.00000  Uiso   1.00
H30    H     0.34239   0.23947   0.48101   0.00000  Uiso   1.00
H31    H     0.40761   0.24225   0.17516   0.00000  Uiso   1.00
H32    H     0.30654   0.33660   0.08238   0.00000  Uiso   1.00
H33    H     0.47793   0.05233   0.15203   0.00000  Uiso   1.00
H34    H     0.45158   0.35846   0.28486   0.00000  Uiso   1.00
H35    H     0.17370   0.40854   0.98931   0.00000  Uiso   1.00
H36    H     0.53511   0.80915   0.13618   0.00000  Uiso   1.00
H37    H     0.47953   0.45468   0.41629   0.00000  Uiso   1.00
O38    O     0.03575   0.35843   0.96198   0.00000  Uiso   1.00
O39    O     0.50990   0.57206   0.15468   0.00000  Uiso   1.00
O40    O     0.43699   0.41898   0.52218   0.00000  Uiso   1.00
N41    N     0.08270   0.23105   0.05153   0.00000  Uiso   1.00
N42    N     0.42058   0.67066   0.18884   0.00000  Uiso   1.00
N43    N     0.36864   0.27415   0.45073   0.00000  Uiso   1.00
N44    N     0.15650   0.34686   0.01671   0.00000  Uiso   1.00
N45    N     0.49438   0.78646   0.15402   0.00000  Uiso   1.00
N46    N     0.44244   0.38995   0.41590   0.00000  Uiso   1.00
C47    C     0.78412   0.54848   0.23343   0.00000  Uiso   1.00
C48    C     0.74664   0.62711   0.17480   0.00000  Uiso   1.00
C49    C     0.67403   0.62870   0.14489   0.00000  Uiso   1.00
C50    C     0.65018   0.70698   0.09188   0.00000  Uiso   1.00
C51    C     0.58482   0.81777   0.00420   0.00000  Uiso   1.00
C52    C     0.83976   0.47266   0.21263   0.00000  Uiso   1.00
C53    C     0.84544   0.34439   0.21454   0.00000  Uiso   1.00
C54    C     0.89999   0.29265   0.19339   0.00000  Uiso   1.00
C55    C     0.97923   0.16365   0.16449   0.00000  Uiso   1.00
C56    C     0.82544   0.63899   0.28480   0.00000  Uiso   1.00
C57    C     0.81909   0.65056   0.34740   0.00000  Uiso   1.00
C58    C     0.86159   0.73884   0.38702   0.00000  Uiso   1.00
C59    C     0.91858   0.86810   0.47017   0.00000  Uiso   1.00
C60    C     0.87091   0.68466   0.19248   0.00000  Uiso   1.00
C61    C     0.79379   0.70108   0.15255   0.00000  Uiso   1.00
C62    C     0.77005   0.77937   0.09958   0.00000  Uiso   1.00
C63    C     0.69741   0.78108   0.06960   0.00000  Uiso   1.00
C64    C     0.88690   0.54662   0.19039   0.00000  Uiso   1.00
C65    C     0.94146   0.49506   0.16923   0.00000  Uiso   1.00
C66    C     0.94722   0.36675   0.17111   0.00000  Uiso   1.00
C67    C     0.87258   0.71296   0.26256   0.00000  Uiso   1.00
C68    C     0.91510   0.80123   0.30209   0.00000  Uiso   1.00
C69    C     0.90882   0.81294   0.36473   0.00000  Uiso   1.00
H70    H     0.74743   0.49089   0.25075   0.00000  Uiso   1.00
H71    H     0.63756   0.57144   0.16211   0.00000  Uiso   1.00
H72    H     0.80896   0.28717   0.23176   0.00000  Uiso   1.00
H73    H     0.78260   0.59330   0.36459   0.00000  Uiso   1.00
H74    H     0.53655   0.69333   0.05402   0.00000  Uiso   1.00
H75    H     0.89796   0.09394   0.20089   0.00000  Uiso   1.00
H76    H     0.84239   0.73947   0.48101   0.00000  Uiso   1.00
H77    H     0.90761   0.74225   0.17516   0.00000  Uiso   1.00
H78    H     0.80654   0.83660   0.08238   0.00000  Uiso   1.00
H79    H     0.97793   0.55233   0.15203   0.00000  Uiso   1.00
H80    H     0.95158   0.85846   0.28486   0.00000  Uiso   1.00
H81    H     0.67370   0.90854   0.98931   0.00000  Uiso   1.00
H82    H     0.03511   0.30915   0.13618   0.00000  Uiso   1.00
H83    H     0.97953   0.95468   0.41629   0.00000  Uiso   1.00
O84    O     0.53575   0.85843   0.96198   0.00000  Uiso   1.00
O85    O     0.00990   0.07206   0.15468   0.00000  Uiso   1.00
O86    O     0.93699   0.91898   0.52218   0.00000  Uiso   1.00
N87    N     0.58270   0.73105   0.05153   0.00000  Uiso   1.00
N88    N     0.92058   0.17066   0.18884   0.00000  Uiso   1.00
N89    N     0.86864   0.77415   0.45073   0.00000  Uiso   1.00
N90    N     0.65650   0.84686   0.01671   0.00000  Uiso   1.00
N91    N     0.99438   0.28646   0.15402   0.00000  Uiso   1.00
N92    N     0.94244   0.88995   0.41590   0.00000  Uiso   1.00
C93    C     0.71588   0.04848   0.26657   0.00000  Uiso   1.00
C94    C     0.75336   0.12711   0.32520   0.00000  Uiso   1.00
C95    C     0.82597   0.12870   0.35511   0.00000  Uiso   1.00
C96    C     0.84982   0.20698   0.40812   0.00000  Uiso   1.00
C97    C     0.91518   0.31777   0.49580   0.00000  Uiso   1.00
C98    C     0.66024   0.97266   0.28737   0.00000  Uiso   1.00
C99    C     0.65456   0.84439   0.28546   0.00000  Uiso   1.00
C100   C     0.60001   0.79265   0.30661   0.00000  Uiso   1.00
C101   C     0.52077   0.66365   0.33551   0.00000  Uiso   1.00
C102   C     0.67456   0.13899   0.21520   0.00000  Uiso   1.00
C103   C     0.68091   0.15056   0.15260   0.00000  Uiso   1.00
C104   C     0.63841   0.23884   0.11298   0.00000  Uiso   1.00
C105   C     0.58142   0.36810   0.02983   0.00000  Uiso   1.00
C106   C     0.62909   0.18466   0.30752   0.00000  Uiso   1.00
C107   C     0.70621   0.20108   0.34745   0.00000  Uiso   1.00
C108   C     0.72995   0.27937   0.40042   0.00000  Uiso   1.00
C109   C     0.80259   0.28108   0.43040   0.00000  Uiso   1.00
C110   C     0.61310   0.04662   0.30961   0.00000  Uiso   1.00
C111   C     0.55854   0.99506   0.33077   0.00000  Uiso   1.00
C112   C     0.55278   0.86675   0.32889   0.00000  Uiso   1.00
C113   C     0.62742   0.21296   0.23744   0.00000  Uiso   1.00
C114   C     0.58490   0.30123   0.19791   0.00000  Uiso   1.00
C115   C     0.59118   0.31294   0.13527   0.00000  Uiso   1.00
H116   H     0.75257   0.99089   0.24925   0.00000  Uiso   1.00
H117   H     0.86244   0.07144   0.33789   0.00000  Uiso   1.00
H118   H     0.69104   0.78717   0.26824   0.00000  Uiso   1.00
H119   H     0.71740   0.09330   0.13541   0.00000  Uiso   1.00
H120   H     0.96345   0.19333   0.44598   0.00000  Uiso   1.00
H121   H     0.60204   0.59394   0.29911   0.00000  Uiso   1.00
H122   H     0.65761   0.23947   0.01899   0.00000  Uiso   1.00
H123   H     0.59239   0.24225   0.32484   0.00000  Uiso   1.00
H124   H     0.69346   0.33660   0.41762   0.00000  Uiso   1.00
H125   H     0.52207   0.05233   0.34797   0.00000  Uiso   1.00
H126   H     0.54842   0.35846   0.21514   0.00000  Uiso   1.00
H127   H     0.82630   0.40854   0.51069   0.00000  Uiso   1.00
H128   H     0.46489   0.80915   0.36382   0.00000  Uiso   1.00
H129   H     0.52047   0.45468   0.08371   0.00000  Uiso   1.00
O130   O     0.96425   0.35843   0.53802   0.00000  Uiso   1.00
O131   O     0.49010   0.57206   0.34532   0.00000  Uiso   1.00
O132   O     0.56301   0.41898   0.97782   0.00000  Uiso   1.00
N133   N     0.91730   0.23105   0.44847   0.00000  Uiso   1.00
N134   N     0.57942   0.67066   0.31116   0.00000  Uiso   1.00
N135   N     0.63136   0.27415   0.04927   0.00000  Uiso   1.00
N136   N     0.84350   0.34686   0.48329   0.00000  Uiso   1.00
N137   N     0.50562   0.78646   0.34598   0.00000  Uiso   1.00
N138   N     0.55756   0.38995   0.08410   0.00000  Uiso   1.00
C139   C     0.21588   0.54848   0.26657   0.00000  Uiso   1.00
C140   C     0.25336   0.62711   0.32520   0.00000  Uiso   1.00
C141   C     0.32597   0.62870   0.35511   0.00000  Uiso   1.00
C142   C     0.34982   0.70698   0.40812   0.00000  Uiso   1.00
C143   C     0.41518   0.81777   0.49580   0.00000  Uiso   1.00
C144   C     0.16024   0.47266   0.28737   0.00000  Uiso   1.00
C145   C     0.15456   0.34439   0.28546   0.00000  Uiso   1.00
C146   C     0.10001   0.29265   0.30661   0.00000  Uiso   1.00
C147   C     0.02077   0.16365   0.33551   0.00000  Uiso   1.00
C148   C     0.17456   0.63899   0.21520   0.00000  Uiso   1.00
C149   C     0.18091   0.65056   0.15260   0.00000  Uiso   1.00
C150   C     0.13841   0.73884   0.11298   0.00000  Uiso   1.00
C151   C     0.08142   0.86810   0.02983   0.00000  Uiso   1.00
C152   C     0.12909   0.68466   0.30752   0.00000  Uiso   1.00
C153   C     0.20621   0.70108   0.34745   0.00000  Uiso   1.00
C154   C     0.22995   0.77937   0.40042   0.00000  Uiso   1.00
C155   C     0.30259   0.78108   0.43040   0.00000  Uiso   1.00
C156   C     0.11310   0.54662   0.30961   0.00000  Uiso   1.00
C157   C     0.05854   0.49506   0.33077   0.00000  Uiso   1.00
C158   C     0.05278   0.36675   0.32889   0.00000  Uiso   1.00
C159   C     0.12742   0.71296   0.23744   0.00000  Uiso   1.00
C160   C     0.08490   0.80123   0.19791   0.00000  Uiso   1.00
C161   C     0.09118   0.81294   0.13527   0.00000  Uiso   1.00
H162   H     0.25257   0.49089   0.24925   0.00000  Uiso   1.00
H163   H     0.36244   0.57144   0.33789   0.00000  Uiso   1.00
H164   H     0.19104   0.28717   0.26824   0.00000  Uiso   1.00
H165   H     0.21740   0.59330   0.13541   0.00000  Uiso   1.00
H166   H     0.46345   0.69333   0.44598   0.00000  Uiso   1.00
H167   H     0.10204   0.09394   0.29911   0.00000  Uiso   1.00
H168   H     0.15761   0.73947   0.01899   0.00000  Uiso   1.00
H169   H     0.09239   0.74225   0.32484   0.00000  Uiso   1.00
H170   H     0.19346   0.83660   0.41762   0.00000  Uiso   1.00
H171   H     0.02207   0.55233   0.34797   0.00000  Uiso   1.00
H172   H     0.04842   0.85846   0.21514   0.00000  Uiso   1.00
H173   H     0.32630   0.90854   0.51069   0.00000  Uiso   1.00
H174   H     0.96489   0.30915   0.36382   0.00000  Uiso   1.00
H175   H     0.02047   0.95468   0.08371   0.00000  Uiso   1.00
O176   O     0.46425   0.85843   0.53802   0.00000  Uiso   1.00
O177   O     0.99010   0.07206   0.34532   0.00000  Uiso   1.00
O178   O     0.06301   0.91898   0.97782   0.00000  Uiso   1.00
N179   N     0.41730   0.73105   0.44847   0.00000  Uiso   1.00
N180   N     0.07942   0.17066   0.31116   0.00000  Uiso   1.00
N181   N     0.13136   0.77415   0.04927   0.00000  Uiso   1.00
N182   N     0.34350   0.84686   0.48329   0.00000  Uiso   1.00
N183   N     0.00562   0.28646   0.34598   0.00000  Uiso   1.00
N184   N     0.05756   0.88995   0.08410   0.00000  Uiso   1.00
C185   C     0.71588   0.95152   0.76657   0.00000  Uiso   1.00
C186   C     0.75336   0.87289   0.82520   0.00000  Uiso   1.00
C187   C     0.82597   0.87130   0.85511   0.00000  Uiso   1.00
C188   C     0.84982   0.79302   0.90812   0.00000  Uiso   1.00
C189   C     0.91518   0.68223   0.99580   0.00000  Uiso   1.00
C190   C     0.66024   0.02734   0.78737   0.00000  Uiso   1.00
C191   C     0.65456   0.15561   0.78546   0.00000  Uiso   1.00
C192   C     0.60001   0.20735   0.80661   0.00000  Uiso   1.00
C193   C     0.52077   0.33635   0.83551   0.00000  Uiso   1.00
C194   C     0.67456   0.86101   0.71520   0.00000  Uiso   1.00
C195   C     0.68091   0.84944   0.65260   0.00000  Uiso   1.00
C196   C     0.63841   0.76116   0.61298   0.00000  Uiso   1.00
C197   C     0.58142   0.63190   0.52983   0.00000  Uiso   1.00
C198   C     0.62909   0.81534   0.80752   0.00000  Uiso   1.00
C199   C     0.70621   0.79892   0.84745   0.00000  Uiso   1.00
C200   C     0.72995   0.72063   0.90042   0.00000  Uiso   1.00
C201   C     0.80259   0.71892   0.93040   0.00000  Uiso   1.00
C202   C     0.61310   0.95338   0.80961   0.00000  Uiso   1.00
C203   C     0.55854   0.00494   0.83077   0.00000  Uiso   1.00
C204   C     0.55278   0.13325   0.82889   0.00000  Uiso   1.00
C205   C     0.62742   0.78704   0.73744   0.00000  Uiso   1.00
C206   C     0.58490   0.69877   0.69791   0.00000  Uiso   1.00
C207   C     0.59118   0.68706   0.63527   0.00000  Uiso   1.00
H208   H     0.75257   0.00911   0.74925   0.00000  Uiso   1.00
H209   H     0.86244   0.92856   0.83789   0.00000  Uiso   1.00
H210   H     0.69104   0.21283   0.76824   0.00000  Uiso   1.00
H211   H     0.71740   0.90670   0.63541   0.00000  Uiso   1.00
H212   H     0.96345   0.80667   0.94598   0.00000  Uiso   1.00
H213   H     0.60204   0.40606   0.79911   0.00000  Uiso   1.00
H214   H     0.65761   0.76053   0.51899   0.00000  Uiso   1.00
H215   H     0.59239   0.75775   0.82484   0.00000  Uiso   1.00
H216   H     0.69346   0.66340   0.91762   0.00000  Uiso   1.00
H217   H     0.52207   0.94767   0.84797   0.00000  Uiso   1.00
H218   H     0.54842   0.64154   0.71514   0.00000  Uiso   1.00
H219   H     0.82630   0.59146   0.01069   0.00000  Uiso   1.00
H220   H     0.46489   0.19085   0.86382   0.00000  Uiso   1.00
H221   H     0.52047   0.54532   0.58371   0.00000  Uiso   1.00
O222   O     0.96425   0.64157   0.03802   0.00000  Uiso   1.00
O223   O     0.49010   0.42794   0.84532   0.00000  Uiso   1.00
O224   O     0.56301   0.58102   0.47782   0.00000  Uiso   1.00
N225   N     0.91730   0.76895   0.94847   0.00000  Uiso   1.00
N226   N     0.57942   0.32934   0.81116   0.00000  Uiso   1.00
N227   N     0.63136   0.72585   0.54927   0.00000  Uiso   1.00
N228   N     0.84350   0.65314   0.98329   0.00000  Uiso   1.00
N229   N     0.50562   0.21354   0.84598   0.00000  Uiso   1.00
N230   N     0.55756   0.61005   0.58410   0.00000  Uiso   1.00
C231   C     0.21588   0.45152   0.76657   0.00000  Uiso   1.00
C232   C     0.25336   0.37289   0.82520   0.00000  Uiso   1.00
C233   C     0.32597   0.37130   0.85511   0.00000  Uiso   1.00
C234   C     0.34982   0.29302   0.90812   0.00000  Uiso   1.00
C235   C     0.41518   0.18223   0.99580   0.00000  Uiso   1.00
C236   C     0.16024   0.52734   0.78737   0.00000  Uiso   1.00
C237   C     0.15456   0.65561   0.78546   0.00000  Uiso   1.00
C238   C     0.10001   0.70735   0.80661   0.00000  Uiso   1.00
C239   C     0.02077   0.83635   0.83551   0.00000  Uiso   1.00
C240   C     0.17456   0.36101   0.71520   0.00000  Uiso   1.00
C241   C     0.18091   0.34944   0.65260   0.00000  Uiso   1.00
C242   C     0.13841   0.26116   0.61298   0.00000  Uiso   1.00
C243   C     0.08142   0.13190   0.52983   0.00000  Uiso   1.00
C244   C     0.12909   0.31534   0.80752   0.00000  Uiso   1.00
C245   C     0.20621   0.29892   0.84745   0.00000  Uiso   1.00
C246   C     0.22995   0.22063   0.90042   0.00000  Uiso   1.00
C247   C     0.30259   0.21892   0.93040   0.00000  Uiso   1.00
C248   C     0.11310   0.45338   0.80961   0.00000  Uiso   1.00
C249   C     0.05854   0.50494   0.83077   0.00000  Uiso   1.00
C250   C     0.05278   0.63325   0.82889   0.00000  Uiso   1.00
C251   C     0.12742   0.28704   0.73744   0.00000  Uiso   1.00
C252   C     0.08490   0.19877   0.69791   0.00000  Uiso   1.00
C253   C     0.09118   0.18706   0.63527   0.00000  Uiso   1.00
H254   H     0.25257   0.50911   0.74925   0.00000  Uiso   1.00
H255   H     0.36244   0.42856   0.83789   0.00000  Uiso   1.00
H256   H     0.19104   0.71283   0.76824   0.00000  Uiso   1.00
H257   H     0.21740   0.40670   0.63541   0.00000  Uiso   1.00
H258   H     0.46345   0.30667   0.94598   0.00000  Uiso   1.00
H259   H     0.10204   0.90606   0.79911   0.00000  Uiso   1.00
H260   H     0.15761   0.26053   0.51899   0.00000  Uiso   1.00
H261   H     0.09239   0.25775   0.82484   0.00000  Uiso   1.00
H262   H     0.19346   0.16340   0.91762   0.00000  Uiso   1.00
H263   H     0.02207   0.44767   0.84797   0.00000  Uiso   1.00
H264   H     0.04842   0.14154   0.71514   0.00000  Uiso   1.00
H265   H     0.32630   0.09146   0.01069   0.00000  Uiso   1.00
H266   H     0.96489   0.69085   0.86382   0.00000  Uiso   1.00
H267   H     0.02047   0.04532   0.58371   0.00000  Uiso   1.00
O268   O     0.46425   0.14157   0.03802   0.00000  Uiso   1.00
O269   O     0.99010   0.92794   0.84532   0.00000  Uiso   1.00
O270   O     0.06301   0.08102   0.47782   0.00000  Uiso   1.00
N271   N     0.41730   0.26895   0.94847   0.00000  Uiso   1.00
N272   N     0.07942   0.82934   0.81116   0.00000  Uiso   1.00
N273   N     0.13136   0.22585   0.54927   0.00000  Uiso   1.00
N274   N     0.34350   0.15314   0.98329   0.00000  Uiso   1.00
N275   N     0.00562   0.71354   0.84598   0.00000  Uiso   1.00
N276   N     0.05756   0.11005   0.58410   0.00000  Uiso   1.00
C277   C     0.28412   0.95152   0.73343   0.00000  Uiso   1.00
C278   C     0.24664   0.87289   0.67480   0.00000  Uiso   1.00
C279   C     0.17403   0.87130   0.64489   0.00000  Uiso   1.00
C280   C     0.15018   0.79302   0.59188   0.00000  Uiso   1.00
C281   C     0.08482   0.68223   0.50420   0.00000  Uiso   1.00
C282   C     0.33976   0.02734   0.71263   0.00000  Uiso   1.00
C283   C     0.34544   0.15561   0.71454   0.00000  Uiso   1.00
C284   C     0.39999   0.20735   0.69339   0.00000  Uiso   1.00
C285   C     0.47923   0.33635   0.66449   0.00000  Uiso   1.00
C286   C     0.32544   0.86101   0.78480   0.00000  Uiso   1.00
C287   C     0.31909   0.84944   0.84740   0.00000  Uiso   1.00
C288   C     0.36159   0.76116   0.88702   0.00000  Uiso   1.00
C289   C     0.41858   0.63190   0.97017   0.00000  Uiso   1.00
C290   C     0.37091   0.81534   0.69248   0.00000  Uiso   1.00
C291   C     0.29379   0.79892   0.65255   0.00000  Uiso   1.00
C292   C     0.27005   0.72063   0.59958   0.00000  Uiso   1.00
C293   C     0.19741   0.71892   0.56960   0.00000  Uiso   1.00
C294   C     0.38690   0.95338   0.69039   0.00000  Uiso   1.00
C295   C     0.44146   0.00494   0.66923   0.00000  Uiso   1.00
C296   C     0.44722   0.13325   0.67111   0.00000  Uiso   1.00
C297   C     0.37258   0.78704   0.76256   0.00000  Uiso   1.00
C298   C     0.41510   0.69877   0.80209   0.00000  Uiso   1.00
C299   C     0.40882   0.68706   0.86473   0.00000  Uiso   1.00
H300   H     0.24743   0.00911   0.75075   0.00000  Uiso   1.00
H301   H     0.13756   0.92856   0.66211   0.00000  Uiso   1.00
H302   H     0.30896   0.21283   0.73176   0.00000  Uiso   1.00
H303   H     0.28260   0.90670   0.86459   0.00000  Uiso   1.00
H304   H     0.03655   0.80667   0.55402   0.00000  Uiso   1.00
H305   H     0.39796   0.40606   0.70089   0.00000  Uiso   1.00
H306   H     0.34239   0.76053   0.98101   0.00000  Uiso   1.00
H307   H     0.40761   0.75775   0.67516   0.00000  Uiso   1.00
H308   H     0.30654   0.66340   0.58238   0.00000  Uiso   1.00
H309   H     0.47793   0.94767   0.65203   0.00000  Uiso   1.00
H310   H     0.45158   0.64154   0.78486   0.00000  Uiso   1.00
H311   H     0.17370   0.59146   0.48931   0.00000  Uiso   1.00
H312   H     0.53511   0.19085   0.63618   0.00000  Uiso   1.00
H313   H     0.47953   0.54532   0.91629   0.00000  Uiso   1.00
O314   O     0.03575   0.64157   0.46198   0.00000  Uiso   1.00
O315   O     0.50990   0.42794   0.65468   0.00000  Uiso   1.00
O316   O     0.43699   0.58102   0.02218   0.00000  Uiso   1.00
N317   N     0.08270   0.76895   0.55153   0.00000  Uiso   1.00
N318   N     0.42058   0.32934   0.68884   0.00000  Uiso   1.00
N319   N     0.36864   0.72585   0.95073   0.00000  Uiso   1.00
N320   N     0.15650   0.65314   0.51671   0.00000  Uiso   1.00
N321   N     0.49438   0.21354   0.65402   0.00000  Uiso   1.00
N322   N     0.44244   0.61005   0.91590   0.00000  Uiso   1.00
C323   C     0.78412   0.45152   0.73343   0.00000  Uiso   1.00
C324   C     0.74664   0.37289   0.67480   0.00000  Uiso   1.00
C325   C     0.67403   0.37130   0.64489   0.00000  Uiso   1.00
C326   C     0.65018   0.29302   0.59188   0.00000  Uiso   1.00
C327   C     0.58482   0.18223   0.50420   0.00000  Uiso   1.00
C328   C     0.83976   0.52734   0.71263   0.00000  Uiso   1.00
C329   C     0.84544   0.65561   0.71454   0.00000  Uiso   1.00
C330   C     0.89999   0.70735   0.69339   0.00000  Uiso   1.00
C331   C     0.97923   0.83635   0.66449   0.00000  Uiso   1.00
C332   C     0.82544   0.36101   0.78480   0.00000  Uiso   1.00
C333   C     0.81909   0.34944   0.84740   0.00000  Uiso   1.00
C334   C     0.86159   0.26116   0.88702   0.00000  Uiso   1.00
C335   C     0.91858   0.13190   0.97017   0.00000  Uiso   1.00
C336   C     0.87091   0.31534   0.69248   0.00000  Uiso   1.00
C337   C     0.79379   0.29892   0.65255   0.00000  Uiso   1.00
C338   C     0.77005   0.22063   0.59958   0.00000  Uiso   1.00
C339   C     0.69741   0.21892   0.56960   0.00000  Uiso   1.00
C340   C     0.88690   0.45338   0.69039   0.00000  Uiso   1.00
C341   C     0.94146   0.50494   0.66923   0.00000  Uiso   1.00
C342   C     0.94722   0.63325   0.67111   0.00000  Uiso   1.00
C343   C     0.87258   0.28704   0.76256   0.00000  Uiso   1.00
C344   C     0.91510   0.19877   0.80209   0.00000  Uiso   1.00
C345   C     0.90882   0.18706   0.86473   0.00000  Uiso   1.00
H346   H     0.74743   0.50911   0.75075   0.00000  Uiso   1.00
H347   H     0.63756   0.42856   0.66211   0.00000  Uiso   1.00
H348   H     0.80896   0.71283   0.73176   0.00000  Uiso   1.00
H349   H     0.78260   0.40670   0.86459   0.00000  Uiso   1.00
H350   H     0.53655   0.30667   0.55402   0.00000  Uiso   1.00
H351   H     0.89796   0.90606   0.70089   0.00000  Uiso   1.00
H352   H     0.84239   0.26053   0.98101   0.00000  Uiso   1.00
H353   H     0.90761   0.25775   0.67516   0.00000  Uiso   1.00
H354   H     0.80654   0.16340   0.58238   0.00000  Uiso   1.00
H355   H     0.97793   0.44767   0.65203   0.00000  Uiso   1.00
H356   H     0.95158   0.14154   0.78486   0.00000  Uiso   1.00
H357   H     0.67370   0.09146   0.48931   0.00000  Uiso   1.00
H358   H     0.03511   0.69085   0.63618   0.00000  Uiso   1.00
H359   H     0.97953   0.04532   0.91629   0.00000  Uiso   1.00
O360   O     0.53575   0.14157   0.46198   0.00000  Uiso   1.00
O361   O     0.00990   0.92794   0.65468   0.00000  Uiso   1.00
O362   O     0.93699   0.08102   0.02218   0.00000  Uiso   1.00
N363   N     0.58270   0.26895   0.55153   0.00000  Uiso   1.00
N364   N     0.92058   0.82934   0.68884   0.00000  Uiso   1.00
N365   N     0.86864   0.22585   0.95073   0.00000  Uiso   1.00
N366   N     0.65650   0.15314   0.51671   0.00000  Uiso   1.00
N367   N     0.99438   0.71354   0.65402   0.00000  Uiso   1.00
N368   N     0.94244   0.11005   0.91590   0.00000  Uiso   1.00
