data_job_03552
_audit_creation_date              2018-12-19
_audit_creation_method            'Materials Studio'
_symmetry_space_group_name_H-M    'P1'
_symmetry_Int_Tables_number       1
_symmetry_cell_setting            triclinic
loop_
_symmetry_equiv_pos_as_xyz
  x,y,z
_cell_length_a                    9.8841
_cell_length_b                    9.8841
_cell_length_c                    52.6138
_cell_angle_alpha                 90.0000
_cell_angle_beta                  90.0000
_cell_angle_gamma                 90.0000
loop_
_atom_site_label
_atom_site_type_symbol
_atom_site_fract_x
_atom_site_fract_y
_atom_site_fract_z
_atom_site_U_iso_or_equiv
_atom_site_adp_type
_atom_site_occupancy
C1     C     0.59542   0.82282   0.30912   0.00000  Uiso   1.00
C2     C     0.57941   0.92098   0.28696   0.00000  Uiso   1.00
C3     C     0.67728   0.94997   0.26885   0.00000  Uiso   1.00
C4     C     0.64295   0.04267   0.25010   0.00000  Uiso   1.00
C5     C     0.63754   0.18580   0.21579   0.00000  Uiso   1.00
C6     C     0.56529   0.90420   0.33308   0.00000  Uiso   1.00
C7     C     0.65127   0.91906   0.35375   0.00000  Uiso   1.00
C8     C     0.60503   0.99762   0.37383   0.00000  Uiso   1.00
C9     C     0.57765   0.11461   0.41113   0.00000  Uiso   1.00
C10    C     0.48051   0.72077   0.30657   0.00000  Uiso   1.00
C11    C     0.49520   0.58140   0.30495   0.00000  Uiso   1.00
C12    C     0.37758   0.50552   0.30271   0.00000  Uiso   1.00
C13    C     0.21857   0.33772   0.29885   0.00000  Uiso   1.00
C14    C     0.36041   0.93589   0.30803   0.00000  Uiso   1.00
C15    C     0.45177   0.98240   0.28637   0.00000  Uiso   1.00
C16    C     0.41728   0.07507   0.26764   0.00000  Uiso   1.00
C17    C     0.51508   0.10419   0.24951   0.00000  Uiso   1.00
C18    C     0.43765   0.96562   0.33249   0.00000  Uiso   1.00
C19    C     0.39127   0.04417   0.35254   0.00000  Uiso   1.00
C20    C     0.47716   0.05915   0.37323   0.00000  Uiso   1.00
C21    C     0.35286   0.78219   0.30598   0.00000  Uiso   1.00
C22    C     0.23520   0.70651   0.30374   0.00000  Uiso   1.00
C23    C     0.24971   0.56705   0.30212   0.00000  Uiso   1.00
H24    H     0.69479   0.77500   0.30958   0.00000  Uiso   1.00
H25    H     0.77605   0.90242   0.26931   0.00000  Uiso   1.00
H26    H     0.75003   0.87151   0.35420   0.00000  Uiso   1.00
H27    H     0.59399   0.53391   0.30541   0.00000  Uiso   1.00
H28    H     0.80987   0.07082   0.22441   0.00000  Uiso   1.00
H29    H     0.75500   0.00559   0.40341   0.00000  Uiso   1.00
H30    H     0.42594   0.29369   0.30052   0.00000  Uiso   1.00
H31    H     0.26104   0.98371   0.30757   0.00000  Uiso   1.00
H32    H     0.31849   0.12259   0.26719   0.00000  Uiso   1.00
H33    H     0.29248   0.09167   0.35208   0.00000  Uiso   1.00
H34    H     0.13644   0.75407   0.30329   0.00000  Uiso   1.00
H35    H     0.43851   0.24952   0.22269   0.00000  Uiso   1.00
H36    H     0.38363   0.18428   0.40169   0.00000  Uiso   1.00
H37    H     0.05458   0.47239   0.29880   0.00000  Uiso   1.00
O38    O     0.66983   0.24779   0.19703   0.00000  Uiso   1.00
O39    O     0.59783   0.16219   0.43187   0.00000  Uiso   1.00
O40    O     0.16612   0.22820   0.29688   0.00000  Uiso   1.00
N41    N     0.71458   0.09379   0.22955   0.00000  Uiso   1.00
N42    N     0.66328   0.03283   0.39690   0.00000  Uiso   1.00
N43    N     0.35564   0.36726   0.30071   0.00000  Uiso   1.00
N44    N     0.51475   0.18995   0.22862   0.00000  Uiso   1.00
N45    N     0.46345   0.12898   0.39597   0.00000  Uiso   1.00
N46    N     0.15581   0.46341   0.29978   0.00000  Uiso   1.00
C47    C     0.40458   0.17718   0.80912   0.00000  Uiso   1.00
C48    C     0.42059   0.07902   0.78696   0.00000  Uiso   1.00
C49    C     0.32272   0.05003   0.76885   0.00000  Uiso   1.00
C50    C     0.35705   0.95733   0.75010   0.00000  Uiso   1.00
C51    C     0.36246   0.81420   0.71579   0.00000  Uiso   1.00
C52    C     0.43471   0.09580   0.83308   0.00000  Uiso   1.00
C53    C     0.34873   0.08094   0.85375   0.00000  Uiso   1.00
C54    C     0.39497   0.00238   0.87383   0.00000  Uiso   1.00
C55    C     0.42235   0.88539   0.91113   0.00000  Uiso   1.00
C56    C     0.51949   0.27923   0.80657   0.00000  Uiso   1.00
C57    C     0.50480   0.41860   0.80495   0.00000  Uiso   1.00
C58    C     0.62242   0.49448   0.80271   0.00000  Uiso   1.00
C59    C     0.78143   0.66228   0.79885   0.00000  Uiso   1.00
C60    C     0.63959   0.06411   0.80803   0.00000  Uiso   1.00
C61    C     0.54823   0.01760   0.78637   0.00000  Uiso   1.00
C62    C     0.58272   0.92493   0.76764   0.00000  Uiso   1.00
C63    C     0.48492   0.89581   0.74951   0.00000  Uiso   1.00
C64    C     0.56235   0.03438   0.83249   0.00000  Uiso   1.00
C65    C     0.60873   0.95583   0.85254   0.00000  Uiso   1.00
C66    C     0.52284   0.94085   0.87323   0.00000  Uiso   1.00
C67    C     0.64714   0.21781   0.80598   0.00000  Uiso   1.00
C68    C     0.76480   0.29349   0.80374   0.00000  Uiso   1.00
C69    C     0.75029   0.43295   0.80212   0.00000  Uiso   1.00
H70    H     0.30521   0.22500   0.80958   0.00000  Uiso   1.00
H71    H     0.22395   0.09758   0.76931   0.00000  Uiso   1.00
H72    H     0.24997   0.12849   0.85420   0.00000  Uiso   1.00
H73    H     0.40601   0.46609   0.80541   0.00000  Uiso   1.00
H74    H     0.19013   0.92918   0.72441   0.00000  Uiso   1.00
H75    H     0.24500   0.99441   0.90341   0.00000  Uiso   1.00
H76    H     0.57406   0.70631   0.80052   0.00000  Uiso   1.00
H77    H     0.73896   0.01629   0.80757   0.00000  Uiso   1.00
H78    H     0.68151   0.87741   0.76719   0.00000  Uiso   1.00
H79    H     0.70752   0.90833   0.85208   0.00000  Uiso   1.00
H80    H     0.86356   0.24593   0.80329   0.00000  Uiso   1.00
H81    H     0.56149   0.75048   0.72269   0.00000  Uiso   1.00
H82    H     0.61637   0.81572   0.90169   0.00000  Uiso   1.00
H83    H     0.94542   0.52761   0.79880   0.00000  Uiso   1.00
O84    O     0.33017   0.75221   0.69703   0.00000  Uiso   1.00
O85    O     0.40217   0.83781   0.93187   0.00000  Uiso   1.00
O86    O     0.83388   0.77180   0.79688   0.00000  Uiso   1.00
N87    N     0.28542   0.90621   0.72955   0.00000  Uiso   1.00
N88    N     0.33672   0.96717   0.89690   0.00000  Uiso   1.00
N89    N     0.64436   0.63274   0.80071   0.00000  Uiso   1.00
N90    N     0.48525   0.81005   0.72862   0.00000  Uiso   1.00
N91    N     0.53655   0.87102   0.89597   0.00000  Uiso   1.00
N92    N     0.84419   0.53659   0.79978   0.00000  Uiso   1.00
C93    C     0.67718   0.09542   0.05912   0.00000  Uiso   1.00
C94    C     0.57902   0.07941   0.03696   0.00000  Uiso   1.00
C95    C     0.55003   0.17728   0.01885   0.00000  Uiso   1.00
C96    C     0.45733   0.14295   0.00010   0.00000  Uiso   1.00
C97    C     0.31420   0.13754   0.96579   0.00000  Uiso   1.00
C98    C     0.59580   0.06529   0.08308   0.00000  Uiso   1.00
C99    C     0.58094   0.15127   0.10375   0.00000  Uiso   1.00
C100   C     0.50238   0.10503   0.12383   0.00000  Uiso   1.00
C101   C     0.38539   0.07765   0.16113   0.00000  Uiso   1.00
C102   C     0.77923   0.98051   0.05657   0.00000  Uiso   1.00
C103   C     0.91860   0.99520   0.05495   0.00000  Uiso   1.00
C104   C     0.99448   0.87758   0.05271   0.00000  Uiso   1.00
C105   C     0.16228   0.71857   0.04885   0.00000  Uiso   1.00
C106   C     0.56411   0.86041   0.05803   0.00000  Uiso   1.00
C107   C     0.51760   0.95177   0.03637   0.00000  Uiso   1.00
C108   C     0.42493   0.91728   0.01764   0.00000  Uiso   1.00
C109   C     0.39581   0.01508   0.99951   0.00000  Uiso   1.00
C110   C     0.53438   0.93765   0.08249   0.00000  Uiso   1.00
C111   C     0.45583   0.89127   0.10254   0.00000  Uiso   1.00
C112   C     0.44085   0.97716   0.12323   0.00000  Uiso   1.00
C113   C     0.71781   0.85286   0.05598   0.00000  Uiso   1.00
C114   C     0.79349   0.73520   0.05374   0.00000  Uiso   1.00
C115   C     0.93295   0.74971   0.05212   0.00000  Uiso   1.00
H116   H     0.72500   0.19479   0.05958   0.00000  Uiso   1.00
H117   H     0.59758   0.27605   0.01931   0.00000  Uiso   1.00
H118   H     0.62849   0.25003   0.10420   0.00000  Uiso   1.00
H119   H     0.96609   0.09399   0.05541   0.00000  Uiso   1.00
H120   H     0.42918   0.30987   0.97441   0.00000  Uiso   1.00
H121   H     0.49441   0.25500   0.15341   0.00000  Uiso   1.00
H122   H     0.20631   0.92594   0.05052   0.00000  Uiso   1.00
H123   H     0.51629   0.76104   0.05757   0.00000  Uiso   1.00
H124   H     0.37741   0.81849   0.01719   0.00000  Uiso   1.00
H125   H     0.40833   0.79248   0.10208   0.00000  Uiso   1.00
H126   H     0.74593   0.63644   0.05329   0.00000  Uiso   1.00
H127   H     0.25048   0.93851   0.97269   0.00000  Uiso   1.00
H128   H     0.31572   0.88363   0.15169   0.00000  Uiso   1.00
H129   H     0.02761   0.55458   0.04880   0.00000  Uiso   1.00
O130   O     0.25221   0.16983   0.94703   0.00000  Uiso   1.00
O131   O     0.33781   0.09783   0.18187   0.00000  Uiso   1.00
O132   O     0.27180   0.66612   0.04688   0.00000  Uiso   1.00
N133   N     0.40621   0.21458   0.97955   0.00000  Uiso   1.00
N134   N     0.46717   0.16328   0.14690   0.00000  Uiso   1.00
N135   N     0.13274   0.85564   0.05071   0.00000  Uiso   1.00
N136   N     0.31005   0.01475   0.97862   0.00000  Uiso   1.00
N137   N     0.37102   0.96345   0.14597   0.00000  Uiso   1.00
N138   N     0.03659   0.65581   0.04978   0.00000  Uiso   1.00
C139   C     0.32282   0.90458   0.55912   0.00000  Uiso   1.00
C140   C     0.42098   0.92059   0.53696   0.00000  Uiso   1.00
C141   C     0.44997   0.82272   0.51885   0.00000  Uiso   1.00
C142   C     0.54267   0.85705   0.50010   0.00000  Uiso   1.00
C143   C     0.68580   0.86246   0.46579   0.00000  Uiso   1.00
C144   C     0.40420   0.93471   0.58308   0.00000  Uiso   1.00
C145   C     0.41906   0.84873   0.60375   0.00000  Uiso   1.00
C146   C     0.49762   0.89497   0.62383   0.00000  Uiso   1.00
C147   C     0.61461   0.92235   0.66113   0.00000  Uiso   1.00
C148   C     0.22077   0.01949   0.55657   0.00000  Uiso   1.00
C149   C     0.08140   0.00480   0.55495   0.00000  Uiso   1.00
C150   C     0.00552   0.12242   0.55271   0.00000  Uiso   1.00
C151   C     0.83772   0.28143   0.54885   0.00000  Uiso   1.00
C152   C     0.43589   0.13959   0.55803   0.00000  Uiso   1.00
C153   C     0.48240   0.04823   0.53637   0.00000  Uiso   1.00
C154   C     0.57507   0.08272   0.51764   0.00000  Uiso   1.00
C155   C     0.60419   0.98492   0.49951   0.00000  Uiso   1.00
C156   C     0.46562   0.06235   0.58249   0.00000  Uiso   1.00
C157   C     0.54417   0.10873   0.60254   0.00000  Uiso   1.00
C158   C     0.55915   0.02284   0.62323   0.00000  Uiso   1.00
C159   C     0.28219   0.14714   0.55598   0.00000  Uiso   1.00
C160   C     0.20651   0.26480   0.55374   0.00000  Uiso   1.00
C161   C     0.06705   0.25029   0.55212   0.00000  Uiso   1.00
H162   H     0.27500   0.80521   0.55958   0.00000  Uiso   1.00
H163   H     0.40242   0.72395   0.51931   0.00000  Uiso   1.00
H164   H     0.37151   0.74997   0.60420   0.00000  Uiso   1.00
H165   H     0.03391   0.90601   0.55541   0.00000  Uiso   1.00
H166   H     0.57082   0.69013   0.47441   0.00000  Uiso   1.00
H167   H     0.50559   0.74500   0.65341   0.00000  Uiso   1.00
H168   H     0.79369   0.07406   0.55052   0.00000  Uiso   1.00
H169   H     0.48371   0.23896   0.55757   0.00000  Uiso   1.00
H170   H     0.62259   0.18151   0.51719   0.00000  Uiso   1.00
H171   H     0.59167   0.20752   0.60208   0.00000  Uiso   1.00
H172   H     0.25407   0.36356   0.55329   0.00000  Uiso   1.00
H173   H     0.74952   0.06149   0.47269   0.00000  Uiso   1.00
H174   H     0.68428   0.11637   0.65169   0.00000  Uiso   1.00
H175   H     0.97239   0.44542   0.54880   0.00000  Uiso   1.00
O176   O     0.74779   0.83017   0.44703   0.00000  Uiso   1.00
O177   O     0.66219   0.90217   0.68187   0.00000  Uiso   1.00
O178   O     0.72820   0.33388   0.54688   0.00000  Uiso   1.00
N179   N     0.59379   0.78542   0.47955   0.00000  Uiso   1.00
N180   N     0.53283   0.83672   0.64690   0.00000  Uiso   1.00
N181   N     0.86726   0.14436   0.55071   0.00000  Uiso   1.00
N182   N     0.68995   0.98525   0.47862   0.00000  Uiso   1.00
N183   N     0.62898   0.03655   0.64597   0.00000  Uiso   1.00
N184   N     0.96341   0.34419   0.54978   0.00000  Uiso   1.00
C185   C     0.90458   0.32282   0.44088   0.00000  Uiso   1.00
C186   C     0.92059   0.42098   0.46304   0.00000  Uiso   1.00
C187   C     0.82272   0.44997   0.48115   0.00000  Uiso   1.00
C188   C     0.85705   0.54267   0.49990   0.00000  Uiso   1.00
C189   C     0.86246   0.68580   0.53421   0.00000  Uiso   1.00
C190   C     0.93471   0.40420   0.41692   0.00000  Uiso   1.00
C191   C     0.84873   0.41906   0.39625   0.00000  Uiso   1.00
C192   C     0.89497   0.49762   0.37617   0.00000  Uiso   1.00
C193   C     0.92235   0.61461   0.33887   0.00000  Uiso   1.00
C194   C     0.01949   0.22077   0.44343   0.00000  Uiso   1.00
C195   C     0.00480   0.08140   0.44505   0.00000  Uiso   1.00
C196   C     0.12242   0.00552   0.44729   0.00000  Uiso   1.00
C197   C     0.28143   0.83772   0.45115   0.00000  Uiso   1.00
C198   C     0.13959   0.43589   0.44197   0.00000  Uiso   1.00
C199   C     0.04823   0.48240   0.46363   0.00000  Uiso   1.00
C200   C     0.08272   0.57507   0.48236   0.00000  Uiso   1.00
C201   C     0.98492   0.60419   0.50049   0.00000  Uiso   1.00
C202   C     0.06235   0.46562   0.41751   0.00000  Uiso   1.00
C203   C     0.10873   0.54417   0.39746   0.00000  Uiso   1.00
C204   C     0.02284   0.55915   0.37677   0.00000  Uiso   1.00
C205   C     0.14714   0.28219   0.44402   0.00000  Uiso   1.00
C206   C     0.26480   0.20651   0.44626   0.00000  Uiso   1.00
C207   C     0.25029   0.06705   0.44788   0.00000  Uiso   1.00
H208   H     0.80521   0.27500   0.44042   0.00000  Uiso   1.00
H209   H     0.72395   0.40242   0.48069   0.00000  Uiso   1.00
H210   H     0.74997   0.37151   0.39580   0.00000  Uiso   1.00
H211   H     0.90601   0.03391   0.44459   0.00000  Uiso   1.00
H212   H     0.69013   0.57082   0.52559   0.00000  Uiso   1.00
H213   H     0.74500   0.50559   0.34659   0.00000  Uiso   1.00
H214   H     0.07406   0.79369   0.44948   0.00000  Uiso   1.00
H215   H     0.23896   0.48371   0.44243   0.00000  Uiso   1.00
H216   H     0.18151   0.62259   0.48281   0.00000  Uiso   1.00
H217   H     0.20752   0.59167   0.39792   0.00000  Uiso   1.00
H218   H     0.36356   0.25407   0.44671   0.00000  Uiso   1.00
H219   H     0.06149   0.74952   0.52731   0.00000  Uiso   1.00
H220   H     0.11637   0.68428   0.34831   0.00000  Uiso   1.00
H221   H     0.44542   0.97239   0.45120   0.00000  Uiso   1.00
O222   O     0.83017   0.74779   0.55297   0.00000  Uiso   1.00
O223   O     0.90217   0.66219   0.31813   0.00000  Uiso   1.00
O224   O     0.33388   0.72820   0.45312   0.00000  Uiso   1.00
N225   N     0.78542   0.59379   0.52045   0.00000  Uiso   1.00
N226   N     0.83672   0.53283   0.35310   0.00000  Uiso   1.00
N227   N     0.14436   0.86726   0.44929   0.00000  Uiso   1.00
N228   N     0.98525   0.68995   0.52138   0.00000  Uiso   1.00
N229   N     0.03655   0.62898   0.35403   0.00000  Uiso   1.00
N230   N     0.34419   0.96341   0.45022   0.00000  Uiso   1.00
C231   C     0.09542   0.67718   0.94088   0.00000  Uiso   1.00
C232   C     0.07941   0.57902   0.96304   0.00000  Uiso   1.00
C233   C     0.17728   0.55003   0.98115   0.00000  Uiso   1.00
C234   C     0.14295   0.45733   0.99990   0.00000  Uiso   1.00
C235   C     0.13754   0.31420   0.03421   0.00000  Uiso   1.00
C236   C     0.06529   0.59580   0.91692   0.00000  Uiso   1.00
C237   C     0.15127   0.58094   0.89625   0.00000  Uiso   1.00
C238   C     0.10503   0.50238   0.87617   0.00000  Uiso   1.00
C239   C     0.07765   0.38539   0.83887   0.00000  Uiso   1.00
C240   C     0.98051   0.77923   0.94343   0.00000  Uiso   1.00
C241   C     0.99520   0.91860   0.94505   0.00000  Uiso   1.00
C242   C     0.87758   0.99448   0.94729   0.00000  Uiso   1.00
C243   C     0.71857   0.16228   0.95115   0.00000  Uiso   1.00
C244   C     0.86041   0.56411   0.94197   0.00000  Uiso   1.00
C245   C     0.95177   0.51760   0.96363   0.00000  Uiso   1.00
C246   C     0.91728   0.42493   0.98236   0.00000  Uiso   1.00
C247   C     0.01508   0.39581   0.00049   0.00000  Uiso   1.00
C248   C     0.93765   0.53438   0.91751   0.00000  Uiso   1.00
C249   C     0.89127   0.45583   0.89746   0.00000  Uiso   1.00
C250   C     0.97716   0.44085   0.87677   0.00000  Uiso   1.00
C251   C     0.85286   0.71781   0.94402   0.00000  Uiso   1.00
C252   C     0.73520   0.79349   0.94626   0.00000  Uiso   1.00
C253   C     0.74971   0.93295   0.94788   0.00000  Uiso   1.00
H254   H     0.19479   0.72500   0.94042   0.00000  Uiso   1.00
H255   H     0.27605   0.59758   0.98069   0.00000  Uiso   1.00
H256   H     0.25003   0.62849   0.89580   0.00000  Uiso   1.00
H257   H     0.09399   0.96609   0.94459   0.00000  Uiso   1.00
H258   H     0.30987   0.42918   0.02559   0.00000  Uiso   1.00
H259   H     0.25500   0.49441   0.84659   0.00000  Uiso   1.00
H260   H     0.92594   0.20631   0.94948   0.00000  Uiso   1.00
H261   H     0.76104   0.51629   0.94243   0.00000  Uiso   1.00
H262   H     0.81849   0.37741   0.98281   0.00000  Uiso   1.00
H263   H     0.79248   0.40833   0.89792   0.00000  Uiso   1.00
H264   H     0.63644   0.74593   0.94671   0.00000  Uiso   1.00
H265   H     0.93851   0.25048   0.02731   0.00000  Uiso   1.00
H266   H     0.88363   0.31572   0.84831   0.00000  Uiso   1.00
H267   H     0.55458   0.02761   0.95120   0.00000  Uiso   1.00
O268   O     0.16983   0.25221   0.05297   0.00000  Uiso   1.00
O269   O     0.09783   0.33781   0.81813   0.00000  Uiso   1.00
O270   O     0.66612   0.27180   0.95312   0.00000  Uiso   1.00
N271   N     0.21458   0.40621   0.02045   0.00000  Uiso   1.00
N272   N     0.16328   0.46717   0.85310   0.00000  Uiso   1.00
N273   N     0.85564   0.13274   0.94929   0.00000  Uiso   1.00
N274   N     0.01475   0.31005   0.02138   0.00000  Uiso   1.00
N275   N     0.96345   0.37102   0.85403   0.00000  Uiso   1.00
N276   N     0.65581   0.03659   0.95022   0.00000  Uiso   1.00
C277   C     0.82282   0.59542   0.69088   0.00000  Uiso   1.00
C278   C     0.92098   0.57941   0.71304   0.00000  Uiso   1.00
C279   C     0.94997   0.67728   0.73115   0.00000  Uiso   1.00
C280   C     0.04267   0.64295   0.74990   0.00000  Uiso   1.00
C281   C     0.18580   0.63754   0.78421   0.00000  Uiso   1.00
C282   C     0.90420   0.56529   0.66692   0.00000  Uiso   1.00
C283   C     0.91906   0.65127   0.64625   0.00000  Uiso   1.00
C284   C     0.99762   0.60503   0.62617   0.00000  Uiso   1.00
C285   C     0.11461   0.57765   0.58887   0.00000  Uiso   1.00
C286   C     0.72077   0.48051   0.69343   0.00000  Uiso   1.00
C287   C     0.58140   0.49520   0.69505   0.00000  Uiso   1.00
C288   C     0.50552   0.37758   0.69729   0.00000  Uiso   1.00
C289   C     0.33772   0.21857   0.70115   0.00000  Uiso   1.00
C290   C     0.93589   0.36041   0.69197   0.00000  Uiso   1.00
C291   C     0.98240   0.45177   0.71363   0.00000  Uiso   1.00
C292   C     0.07507   0.41728   0.73236   0.00000  Uiso   1.00
C293   C     0.10419   0.51508   0.75049   0.00000  Uiso   1.00
C294   C     0.96562   0.43765   0.66751   0.00000  Uiso   1.00
C295   C     0.04417   0.39127   0.64746   0.00000  Uiso   1.00
C296   C     0.05915   0.47716   0.62677   0.00000  Uiso   1.00
C297   C     0.78219   0.35286   0.69402   0.00000  Uiso   1.00
C298   C     0.70651   0.23520   0.69626   0.00000  Uiso   1.00
C299   C     0.56705   0.24971   0.69788   0.00000  Uiso   1.00
H300   H     0.77500   0.69479   0.69042   0.00000  Uiso   1.00
H301   H     0.90242   0.77605   0.73069   0.00000  Uiso   1.00
H302   H     0.87151   0.75003   0.64580   0.00000  Uiso   1.00
H303   H     0.53391   0.59399   0.69459   0.00000  Uiso   1.00
H304   H     0.07082   0.80987   0.77559   0.00000  Uiso   1.00
H305   H     0.00559   0.75500   0.59659   0.00000  Uiso   1.00
H306   H     0.29369   0.42594   0.69948   0.00000  Uiso   1.00
H307   H     0.98371   0.26104   0.69243   0.00000  Uiso   1.00
H308   H     0.12259   0.31849   0.73281   0.00000  Uiso   1.00
H309   H     0.09167   0.29248   0.64792   0.00000  Uiso   1.00
H310   H     0.75407   0.13644   0.69671   0.00000  Uiso   1.00
H311   H     0.24952   0.43851   0.77731   0.00000  Uiso   1.00
H312   H     0.18428   0.38363   0.59831   0.00000  Uiso   1.00
H313   H     0.47239   0.05458   0.70120   0.00000  Uiso   1.00
O314   O     0.24779   0.66983   0.80297   0.00000  Uiso   1.00
O315   O     0.16219   0.59783   0.56813   0.00000  Uiso   1.00
O316   O     0.22820   0.16612   0.70312   0.00000  Uiso   1.00
N317   N     0.09379   0.71458   0.77045   0.00000  Uiso   1.00
N318   N     0.03283   0.66328   0.60310   0.00000  Uiso   1.00
N319   N     0.36726   0.35564   0.69929   0.00000  Uiso   1.00
N320   N     0.18995   0.51475   0.77138   0.00000  Uiso   1.00
N321   N     0.12898   0.46345   0.60403   0.00000  Uiso   1.00
N322   N     0.46341   0.15581   0.70022   0.00000  Uiso   1.00
C323   C     0.17718   0.40458   0.19088   0.00000  Uiso   1.00
C324   C     0.07902   0.42059   0.21304   0.00000  Uiso   1.00
C325   C     0.05003   0.32272   0.23115   0.00000  Uiso   1.00
C326   C     0.95733   0.35705   0.24990   0.00000  Uiso   1.00
C327   C     0.81420   0.36246   0.28421   0.00000  Uiso   1.00
C328   C     0.09580   0.43471   0.16692   0.00000  Uiso   1.00
C329   C     0.08094   0.34873   0.14625   0.00000  Uiso   1.00
C330   C     0.00238   0.39497   0.12617   0.00000  Uiso   1.00
C331   C     0.88539   0.42235   0.08887   0.00000  Uiso   1.00
C332   C     0.27923   0.51949   0.19343   0.00000  Uiso   1.00
C333   C     0.41860   0.50480   0.19505   0.00000  Uiso   1.00
C334   C     0.49448   0.62242   0.19729   0.00000  Uiso   1.00
C335   C     0.66228   0.78143   0.20115   0.00000  Uiso   1.00
C336   C     0.06411   0.63959   0.19197   0.00000  Uiso   1.00
C337   C     0.01760   0.54823   0.21363   0.00000  Uiso   1.00
C338   C     0.92493   0.58272   0.23236   0.00000  Uiso   1.00
C339   C     0.89581   0.48492   0.25049   0.00000  Uiso   1.00
C340   C     0.03438   0.56235   0.16751   0.00000  Uiso   1.00
C341   C     0.95583   0.60873   0.14746   0.00000  Uiso   1.00
C342   C     0.94085   0.52284   0.12677   0.00000  Uiso   1.00
C343   C     0.21781   0.64714   0.19402   0.00000  Uiso   1.00
C344   C     0.29349   0.76480   0.19626   0.00000  Uiso   1.00
C345   C     0.43295   0.75029   0.19788   0.00000  Uiso   1.00
H346   H     0.22500   0.30521   0.19042   0.00000  Uiso   1.00
H347   H     0.09758   0.22395   0.23069   0.00000  Uiso   1.00
H348   H     0.12849   0.24997   0.14580   0.00000  Uiso   1.00
H349   H     0.46609   0.40601   0.19459   0.00000  Uiso   1.00
H350   H     0.92918   0.19013   0.27559   0.00000  Uiso   1.00
H351   H     0.99441   0.24500   0.09659   0.00000  Uiso   1.00
H352   H     0.70631   0.57406   0.19948   0.00000  Uiso   1.00
H353   H     0.01629   0.73896   0.19243   0.00000  Uiso   1.00
H354   H     0.87741   0.68151   0.23281   0.00000  Uiso   1.00
H355   H     0.90833   0.70752   0.14792   0.00000  Uiso   1.00
H356   H     0.24593   0.86356   0.19671   0.00000  Uiso   1.00
H357   H     0.75048   0.56149   0.27731   0.00000  Uiso   1.00
H358   H     0.81572   0.61637   0.09831   0.00000  Uiso   1.00
H359   H     0.52761   0.94542   0.20120   0.00000  Uiso   1.00
O360   O     0.75221   0.33017   0.30297   0.00000  Uiso   1.00
O361   O     0.83781   0.40217   0.06813   0.00000  Uiso   1.00
O362   O     0.77180   0.83388   0.20312   0.00000  Uiso   1.00
N363   N     0.90621   0.28542   0.27045   0.00000  Uiso   1.00
N364   N     0.96717   0.33672   0.10310   0.00000  Uiso   1.00
N365   N     0.63274   0.64436   0.19929   0.00000  Uiso   1.00
N366   N     0.81005   0.48525   0.27138   0.00000  Uiso   1.00
N367   N     0.87102   0.53655   0.10403   0.00000  Uiso   1.00
N368   N     0.53659   0.84419   0.20022   0.00000  Uiso   1.00
