data_job_02784
_audit_creation_date              2018-12-19
_audit_creation_method            'Materials Studio'
_symmetry_space_group_name_H-M    'P1'
_symmetry_Int_Tables_number       1
_symmetry_cell_setting            triclinic
loop_
_symmetry_equiv_pos_as_xyz
  x,y,z
_cell_length_a                    32.0282
_cell_length_b                    9.5121
_cell_length_c                    19.9708
_cell_angle_alpha                 90.0000
_cell_angle_beta                  90.0000
_cell_angle_gamma                 90.0000
loop_
_atom_site_label
_atom_site_type_symbol
_atom_site_fract_x
_atom_site_fract_y
_atom_site_fract_z
_atom_site_U_iso_or_equiv
_atom_site_adp_type
_atom_site_occupancy
C1     C     0.62375   0.19786   0.27348   0.00000  Uiso   1.00
C2     C     0.65851   0.29448   0.24888   0.00000  Uiso   1.00
C3     C     0.67002   0.31449   0.18257   0.00000  Uiso   1.00
C4     C     0.70261   0.40729   0.17041   0.00000  Uiso   1.00
C5     C     0.75350   0.54658   0.12425   0.00000  Uiso   1.00
C6     C     0.64407   0.09742   0.32329   0.00000  Uiso   1.00
C7     C     0.64343   0.95175   0.31953   0.00000  Uiso   1.00
C8     C     0.66385   0.87867   0.37002   0.00000  Uiso   1.00
C9     C     0.69230   0.71202   0.43940   0.00000  Uiso   1.00
C10    C     0.59431   0.29023   0.31430   0.00000  Uiso   1.00
C11    C     0.55184   0.30665   0.30301   0.00000  Uiso   1.00
C12    C     0.53037   0.39587   0.34593   0.00000  Uiso   1.00
C13    C     0.48157   0.52859   0.40136   0.00000  Uiso   1.00
C14    C     0.66116   0.32709   0.36981   0.00000  Uiso   1.00
C15    C     0.67883   0.36467   0.30121   0.00000  Uiso   1.00
C16    C     0.71141   0.45747   0.28915   0.00000  Uiso   1.00
C17    C     0.72296   0.47761   0.22283   0.00000  Uiso   1.00
C18    C     0.66438   0.16761   0.37561   0.00000  Uiso   1.00
C19    C     0.68482   0.09473   0.42611   0.00000  Uiso   1.00
C20    C     0.68421   0.94898   0.42243   0.00000  Uiso   1.00
C21    C     0.61463   0.36043   0.36662   0.00000  Uiso   1.00
C22    C     0.59323   0.44963   0.40958   0.00000  Uiso   1.00
C23    C     0.55073   0.46619   0.39835   0.00000  Uiso   1.00
H24    H     0.60793   0.14321   0.23275   0.00000  Uiso   1.00
H25    H     0.65429   0.26014   0.14209   0.00000  Uiso   1.00
H26    H     0.62769   0.89746   0.27904   0.00000  Uiso   1.00
H27    H     0.53612   0.25231   0.26251   0.00000  Uiso   1.00
H28    H     0.71465   0.42070   0.06466   0.00000  Uiso   1.00
H29    H     0.65857   0.65596   0.35343   0.00000  Uiso   1.00
H30    H     0.46547   0.40423   0.31858   0.00000  Uiso   1.00
H31    H     0.67698   0.38174   0.41055   0.00000  Uiso   1.00
H32    H     0.72713   0.51177   0.32965   0.00000  Uiso   1.00
H33    H     0.70054   0.14908   0.46659   0.00000  Uiso   1.00
H34    H     0.60896   0.50393   0.45006   0.00000  Uiso   1.00
H35    H     0.77377   0.62492   0.21688   0.00000  Uiso   1.00
H36    H     0.71769   0.86018   0.50566   0.00000  Uiso   1.00
H37    H     0.52459   0.60846   0.47080   0.00000  Uiso   1.00
O38    O     0.77596   0.60401   0.08434   0.00000  Uiso   1.00
O39    O     0.70238   0.60071   0.46321   0.00000  Uiso   1.00
O40    O     0.44904   0.58243   0.41748   0.00000  Uiso   1.00
N41    N     0.72168   0.45094   0.11159   0.00000  Uiso   1.00
N42    N     0.66925   0.73596   0.38157   0.00000  Uiso   1.00
N43    N     0.48872   0.43550   0.34899   0.00000  Uiso   1.00
N44    N     0.75349   0.56083   0.19350   0.00000  Uiso   1.00
N45    N     0.70106   0.84585   0.46348   0.00000  Uiso   1.00
N46    N     0.52053   0.54539   0.43090   0.00000  Uiso   1.00
C47    C     0.87625   0.30214   0.77348   0.00000  Uiso   1.00
C48    C     0.84149   0.20552   0.74888   0.00000  Uiso   1.00
C49    C     0.82998   0.18551   0.68257   0.00000  Uiso   1.00
C50    C     0.79739   0.09271   0.67041   0.00000  Uiso   1.00
C51    C     0.74650   0.95342   0.62425   0.00000  Uiso   1.00
C52    C     0.85593   0.40258   0.82329   0.00000  Uiso   1.00
C53    C     0.85657   0.54825   0.81953   0.00000  Uiso   1.00
C54    C     0.83615   0.62133   0.87002   0.00000  Uiso   1.00
C55    C     0.80770   0.78798   0.93940   0.00000  Uiso   1.00
C56    C     0.90569   0.20977   0.81430   0.00000  Uiso   1.00
C57    C     0.94816   0.19335   0.80301   0.00000  Uiso   1.00
C58    C     0.96963   0.10413   0.84593   0.00000  Uiso   1.00
C59    C     0.01843   0.97141   0.90136   0.00000  Uiso   1.00
C60    C     0.83884   0.17291   0.86981   0.00000  Uiso   1.00
C61    C     0.82117   0.13533   0.80121   0.00000  Uiso   1.00
C62    C     0.78859   0.04253   0.78915   0.00000  Uiso   1.00
C63    C     0.77704   0.02239   0.72283   0.00000  Uiso   1.00
C64    C     0.83562   0.33239   0.87561   0.00000  Uiso   1.00
C65    C     0.81518   0.40527   0.92611   0.00000  Uiso   1.00
C66    C     0.81579   0.55102   0.92243   0.00000  Uiso   1.00
C67    C     0.88537   0.13957   0.86662   0.00000  Uiso   1.00
C68    C     0.90677   0.05037   0.90958   0.00000  Uiso   1.00
C69    C     0.94927   0.03381   0.89835   0.00000  Uiso   1.00
H70    H     0.89207   0.35679   0.73275   0.00000  Uiso   1.00
H71    H     0.84571   0.23986   0.64209   0.00000  Uiso   1.00
H72    H     0.87231   0.60254   0.77904   0.00000  Uiso   1.00
H73    H     0.96388   0.24769   0.76251   0.00000  Uiso   1.00
H74    H     0.78535   0.07930   0.56466   0.00000  Uiso   1.00
H75    H     0.84143   0.84404   0.85343   0.00000  Uiso   1.00
H76    H     0.03453   0.09577   0.81858   0.00000  Uiso   1.00
H77    H     0.82302   0.11826   0.91055   0.00000  Uiso   1.00
H78    H     0.77287   0.98823   0.82965   0.00000  Uiso   1.00
H79    H     0.79946   0.35092   0.96659   0.00000  Uiso   1.00
H80    H     0.89104   0.99607   0.95006   0.00000  Uiso   1.00
H81    H     0.72623   0.87508   0.71688   0.00000  Uiso   1.00
H82    H     0.78231   0.63982   0.00566   0.00000  Uiso   1.00
H83    H     0.97541   0.89154   0.97080   0.00000  Uiso   1.00
O84    O     0.72404   0.89599   0.58434   0.00000  Uiso   1.00
O85    O     0.79762   0.89929   0.96321   0.00000  Uiso   1.00
O86    O     0.05096   0.91757   0.91748   0.00000  Uiso   1.00
N87    N     0.77832   0.04906   0.61159   0.00000  Uiso   1.00
N88    N     0.83075   0.76404   0.88157   0.00000  Uiso   1.00
N89    N     0.01128   0.06450   0.84899   0.00000  Uiso   1.00
N90    N     0.74651   0.93917   0.69350   0.00000  Uiso   1.00
N91    N     0.79894   0.65415   0.96348   0.00000  Uiso   1.00
N92    N     0.97947   0.95461   0.93090   0.00000  Uiso   1.00
C93    C     0.37625   0.19786   0.22652   0.00000  Uiso   1.00
C94    C     0.34149   0.29448   0.25112   0.00000  Uiso   1.00
C95    C     0.32998   0.31449   0.31743   0.00000  Uiso   1.00
C96    C     0.29739   0.40729   0.32959   0.00000  Uiso   1.00
C97    C     0.24650   0.54658   0.37575   0.00000  Uiso   1.00
C98    C     0.35593   0.09742   0.17671   0.00000  Uiso   1.00
C99    C     0.35657   0.95175   0.18047   0.00000  Uiso   1.00
C100   C     0.33615   0.87867   0.12998   0.00000  Uiso   1.00
C101   C     0.30770   0.71202   0.06060   0.00000  Uiso   1.00
C102   C     0.40569   0.29023   0.18570   0.00000  Uiso   1.00
C103   C     0.44816   0.30665   0.19699   0.00000  Uiso   1.00
C104   C     0.46963   0.39587   0.15407   0.00000  Uiso   1.00
C105   C     0.51843   0.52859   0.09864   0.00000  Uiso   1.00
C106   C     0.33884   0.32709   0.13019   0.00000  Uiso   1.00
C107   C     0.32117   0.36467   0.19879   0.00000  Uiso   1.00
C108   C     0.28859   0.45747   0.21085   0.00000  Uiso   1.00
C109   C     0.27704   0.47761   0.27717   0.00000  Uiso   1.00
C110   C     0.33562   0.16761   0.12439   0.00000  Uiso   1.00
C111   C     0.31518   0.09473   0.07389   0.00000  Uiso   1.00
C112   C     0.31579   0.94898   0.07757   0.00000  Uiso   1.00
C113   C     0.38537   0.36043   0.13338   0.00000  Uiso   1.00
C114   C     0.40677   0.44963   0.09042   0.00000  Uiso   1.00
C115   C     0.44927   0.46619   0.10165   0.00000  Uiso   1.00
H116   H     0.39207   0.14321   0.26725   0.00000  Uiso   1.00
H117   H     0.34571   0.26014   0.35791   0.00000  Uiso   1.00
H118   H     0.37231   0.89746   0.22096   0.00000  Uiso   1.00
H119   H     0.46388   0.25231   0.23749   0.00000  Uiso   1.00
H120   H     0.28535   0.42070   0.43534   0.00000  Uiso   1.00
H121   H     0.34143   0.65596   0.14657   0.00000  Uiso   1.00
H122   H     0.53453   0.40423   0.18142   0.00000  Uiso   1.00
H123   H     0.32302   0.38174   0.08945   0.00000  Uiso   1.00
H124   H     0.27287   0.51177   0.17035   0.00000  Uiso   1.00
H125   H     0.29946   0.14908   0.03341   0.00000  Uiso   1.00
H126   H     0.39104   0.50393   0.04994   0.00000  Uiso   1.00
H127   H     0.22623   0.62492   0.28312   0.00000  Uiso   1.00
H128   H     0.28231   0.86018   0.99434   0.00000  Uiso   1.00
H129   H     0.47541   0.60846   0.02920   0.00000  Uiso   1.00
O130   O     0.22404   0.60401   0.41566   0.00000  Uiso   1.00
O131   O     0.29762   0.60071   0.03679   0.00000  Uiso   1.00
O132   O     0.55096   0.58243   0.08252   0.00000  Uiso   1.00
N133   N     0.27832   0.45094   0.38841   0.00000  Uiso   1.00
N134   N     0.33075   0.73596   0.11843   0.00000  Uiso   1.00
N135   N     0.51128   0.43550   0.15101   0.00000  Uiso   1.00
N136   N     0.24651   0.56083   0.30650   0.00000  Uiso   1.00
N137   N     0.29894   0.84585   0.03652   0.00000  Uiso   1.00
N138   N     0.47947   0.54539   0.06910   0.00000  Uiso   1.00
C139   C     0.12375   0.30214   0.72652   0.00000  Uiso   1.00
C140   C     0.15851   0.20552   0.75112   0.00000  Uiso   1.00
C141   C     0.17002   0.18551   0.81743   0.00000  Uiso   1.00
C142   C     0.20261   0.09271   0.82959   0.00000  Uiso   1.00
C143   C     0.25350   0.95342   0.87575   0.00000  Uiso   1.00
C144   C     0.14407   0.40258   0.67671   0.00000  Uiso   1.00
C145   C     0.14343   0.54825   0.68047   0.00000  Uiso   1.00
C146   C     0.16385   0.62133   0.62998   0.00000  Uiso   1.00
C147   C     0.19230   0.78798   0.56060   0.00000  Uiso   1.00
C148   C     0.09431   0.20977   0.68570   0.00000  Uiso   1.00
C149   C     0.05184   0.19335   0.69699   0.00000  Uiso   1.00
C150   C     0.03037   0.10413   0.65407   0.00000  Uiso   1.00
C151   C     0.98157   0.97141   0.59864   0.00000  Uiso   1.00
C152   C     0.16116   0.17291   0.63019   0.00000  Uiso   1.00
C153   C     0.17883   0.13533   0.69879   0.00000  Uiso   1.00
C154   C     0.21141   0.04253   0.71085   0.00000  Uiso   1.00
C155   C     0.22296   0.02239   0.77717   0.00000  Uiso   1.00
C156   C     0.16438   0.33239   0.62439   0.00000  Uiso   1.00
C157   C     0.18482   0.40527   0.57389   0.00000  Uiso   1.00
C158   C     0.18421   0.55102   0.57757   0.00000  Uiso   1.00
C159   C     0.11463   0.13957   0.63338   0.00000  Uiso   1.00
C160   C     0.09323   0.05037   0.59042   0.00000  Uiso   1.00
C161   C     0.05073   0.03381   0.60165   0.00000  Uiso   1.00
H162   H     0.10793   0.35679   0.76725   0.00000  Uiso   1.00
H163   H     0.15429   0.23986   0.85791   0.00000  Uiso   1.00
H164   H     0.12769   0.60254   0.72096   0.00000  Uiso   1.00
H165   H     0.03612   0.24769   0.73749   0.00000  Uiso   1.00
H166   H     0.21465   0.07930   0.93534   0.00000  Uiso   1.00
H167   H     0.15857   0.84404   0.64657   0.00000  Uiso   1.00
H168   H     0.96547   0.09577   0.68142   0.00000  Uiso   1.00
H169   H     0.17698   0.11826   0.58945   0.00000  Uiso   1.00
H170   H     0.22713   0.98823   0.67035   0.00000  Uiso   1.00
H171   H     0.20054   0.35092   0.53341   0.00000  Uiso   1.00
H172   H     0.10896   0.99607   0.54994   0.00000  Uiso   1.00
H173   H     0.27377   0.87508   0.78312   0.00000  Uiso   1.00
H174   H     0.21769   0.63982   0.49434   0.00000  Uiso   1.00
H175   H     0.02459   0.89154   0.52920   0.00000  Uiso   1.00
O176   O     0.27596   0.89599   0.91566   0.00000  Uiso   1.00
O177   O     0.20238   0.89929   0.53679   0.00000  Uiso   1.00
O178   O     0.94904   0.91757   0.58252   0.00000  Uiso   1.00
N179   N     0.22168   0.04906   0.88841   0.00000  Uiso   1.00
N180   N     0.16925   0.76404   0.61843   0.00000  Uiso   1.00
N181   N     0.98872   0.06450   0.65101   0.00000  Uiso   1.00
N182   N     0.25349   0.93917   0.80650   0.00000  Uiso   1.00
N183   N     0.20106   0.65415   0.53652   0.00000  Uiso   1.00
N184   N     0.02053   0.95461   0.56910   0.00000  Uiso   1.00
C185   C     0.37625   0.80214   0.72652   0.00000  Uiso   1.00
C186   C     0.34149   0.70552   0.75112   0.00000  Uiso   1.00
C187   C     0.32998   0.68551   0.81743   0.00000  Uiso   1.00
C188   C     0.29739   0.59271   0.82959   0.00000  Uiso   1.00
C189   C     0.24650   0.45342   0.87575   0.00000  Uiso   1.00
C190   C     0.35593   0.90258   0.67671   0.00000  Uiso   1.00
C191   C     0.35657   0.04825   0.68047   0.00000  Uiso   1.00
C192   C     0.33615   0.12133   0.62998   0.00000  Uiso   1.00
C193   C     0.30770   0.28798   0.56060   0.00000  Uiso   1.00
C194   C     0.40569   0.70977   0.68570   0.00000  Uiso   1.00
C195   C     0.44816   0.69335   0.69699   0.00000  Uiso   1.00
C196   C     0.46963   0.60413   0.65407   0.00000  Uiso   1.00
C197   C     0.51843   0.47141   0.59864   0.00000  Uiso   1.00
C198   C     0.33884   0.67291   0.63019   0.00000  Uiso   1.00
C199   C     0.32117   0.63533   0.69879   0.00000  Uiso   1.00
C200   C     0.28859   0.54253   0.71085   0.00000  Uiso   1.00
C201   C     0.27704   0.52239   0.77717   0.00000  Uiso   1.00
C202   C     0.33562   0.83239   0.62439   0.00000  Uiso   1.00
C203   C     0.31518   0.90527   0.57389   0.00000  Uiso   1.00
C204   C     0.31579   0.05102   0.57757   0.00000  Uiso   1.00
C205   C     0.38537   0.63957   0.63338   0.00000  Uiso   1.00
C206   C     0.40677   0.55037   0.59042   0.00000  Uiso   1.00
C207   C     0.44927   0.53381   0.60165   0.00000  Uiso   1.00
H208   H     0.39207   0.85679   0.76725   0.00000  Uiso   1.00
H209   H     0.34571   0.73986   0.85791   0.00000  Uiso   1.00
H210   H     0.37231   0.10254   0.72096   0.00000  Uiso   1.00
H211   H     0.46388   0.74769   0.73749   0.00000  Uiso   1.00
H212   H     0.28535   0.57930   0.93534   0.00000  Uiso   1.00
H213   H     0.34143   0.34404   0.64657   0.00000  Uiso   1.00
H214   H     0.53453   0.59577   0.68142   0.00000  Uiso   1.00
H215   H     0.32302   0.61826   0.58945   0.00000  Uiso   1.00
H216   H     0.27287   0.48823   0.67035   0.00000  Uiso   1.00
H217   H     0.29946   0.85092   0.53341   0.00000  Uiso   1.00
H218   H     0.39104   0.49607   0.54994   0.00000  Uiso   1.00
H219   H     0.22623   0.37508   0.78312   0.00000  Uiso   1.00
H220   H     0.28231   0.13982   0.49434   0.00000  Uiso   1.00
H221   H     0.47541   0.39154   0.52920   0.00000  Uiso   1.00
O222   O     0.22404   0.39599   0.91566   0.00000  Uiso   1.00
O223   O     0.29762   0.39929   0.53679   0.00000  Uiso   1.00
O224   O     0.55096   0.41757   0.58252   0.00000  Uiso   1.00
N225   N     0.27832   0.54906   0.88841   0.00000  Uiso   1.00
N226   N     0.33075   0.26404   0.61843   0.00000  Uiso   1.00
N227   N     0.51128   0.56450   0.65101   0.00000  Uiso   1.00
N228   N     0.24651   0.43917   0.80650   0.00000  Uiso   1.00
N229   N     0.29894   0.15415   0.53652   0.00000  Uiso   1.00
N230   N     0.47947   0.45461   0.56910   0.00000  Uiso   1.00
C231   C     0.12375   0.69786   0.22652   0.00000  Uiso   1.00
C232   C     0.15851   0.79448   0.25112   0.00000  Uiso   1.00
C233   C     0.17002   0.81449   0.31743   0.00000  Uiso   1.00
C234   C     0.20261   0.90729   0.32959   0.00000  Uiso   1.00
C235   C     0.25350   0.04658   0.37575   0.00000  Uiso   1.00
C236   C     0.14407   0.59742   0.17671   0.00000  Uiso   1.00
C237   C     0.14343   0.45175   0.18047   0.00000  Uiso   1.00
C238   C     0.16385   0.37867   0.12998   0.00000  Uiso   1.00
C239   C     0.19230   0.21202   0.06060   0.00000  Uiso   1.00
C240   C     0.09431   0.79023   0.18570   0.00000  Uiso   1.00
C241   C     0.05184   0.80665   0.19699   0.00000  Uiso   1.00
C242   C     0.03037   0.89587   0.15407   0.00000  Uiso   1.00
C243   C     0.98157   0.02859   0.09864   0.00000  Uiso   1.00
C244   C     0.16116   0.82709   0.13019   0.00000  Uiso   1.00
C245   C     0.17883   0.86467   0.19879   0.00000  Uiso   1.00
C246   C     0.21141   0.95747   0.21085   0.00000  Uiso   1.00
C247   C     0.22296   0.97761   0.27717   0.00000  Uiso   1.00
C248   C     0.16438   0.66761   0.12439   0.00000  Uiso   1.00
C249   C     0.18482   0.59473   0.07389   0.00000  Uiso   1.00
C250   C     0.18421   0.44898   0.07757   0.00000  Uiso   1.00
C251   C     0.11463   0.86043   0.13338   0.00000  Uiso   1.00
C252   C     0.09323   0.94963   0.09042   0.00000  Uiso   1.00
C253   C     0.05073   0.96619   0.10165   0.00000  Uiso   1.00
H254   H     0.10793   0.64321   0.26725   0.00000  Uiso   1.00
H255   H     0.15429   0.76014   0.35791   0.00000  Uiso   1.00
H256   H     0.12769   0.39746   0.22096   0.00000  Uiso   1.00
H257   H     0.03612   0.75231   0.23749   0.00000  Uiso   1.00
H258   H     0.21465   0.92070   0.43534   0.00000  Uiso   1.00
H259   H     0.15857   0.15596   0.14657   0.00000  Uiso   1.00
H260   H     0.96547   0.90423   0.18142   0.00000  Uiso   1.00
H261   H     0.17698   0.88174   0.08945   0.00000  Uiso   1.00
H262   H     0.22713   0.01177   0.17035   0.00000  Uiso   1.00
H263   H     0.20054   0.64908   0.03341   0.00000  Uiso   1.00
H264   H     0.10896   0.00393   0.04994   0.00000  Uiso   1.00
H265   H     0.27377   0.12492   0.28312   0.00000  Uiso   1.00
H266   H     0.21769   0.36018   0.99434   0.00000  Uiso   1.00
H267   H     0.02459   0.10846   0.02920   0.00000  Uiso   1.00
O268   O     0.27596   0.10401   0.41566   0.00000  Uiso   1.00
O269   O     0.20238   0.10071   0.03679   0.00000  Uiso   1.00
O270   O     0.94904   0.08243   0.08252   0.00000  Uiso   1.00
N271   N     0.22168   0.95094   0.38841   0.00000  Uiso   1.00
N272   N     0.16925   0.23596   0.11843   0.00000  Uiso   1.00
N273   N     0.98872   0.93550   0.15101   0.00000  Uiso   1.00
N274   N     0.25349   0.06083   0.30650   0.00000  Uiso   1.00
N275   N     0.20106   0.34585   0.03652   0.00000  Uiso   1.00
N276   N     0.02053   0.04539   0.06910   0.00000  Uiso   1.00
C277   C     0.62375   0.80214   0.77348   0.00000  Uiso   1.00
C278   C     0.65851   0.70552   0.74888   0.00000  Uiso   1.00
C279   C     0.67002   0.68551   0.68257   0.00000  Uiso   1.00
C280   C     0.70261   0.59271   0.67041   0.00000  Uiso   1.00
C281   C     0.75350   0.45342   0.62425   0.00000  Uiso   1.00
C282   C     0.64407   0.90258   0.82329   0.00000  Uiso   1.00
C283   C     0.64343   0.04825   0.81953   0.00000  Uiso   1.00
C284   C     0.66385   0.12133   0.87002   0.00000  Uiso   1.00
C285   C     0.69230   0.28798   0.93940   0.00000  Uiso   1.00
C286   C     0.59431   0.70977   0.81430   0.00000  Uiso   1.00
C287   C     0.55184   0.69335   0.80301   0.00000  Uiso   1.00
C288   C     0.53037   0.60413   0.84593   0.00000  Uiso   1.00
C289   C     0.48157   0.47141   0.90136   0.00000  Uiso   1.00
C290   C     0.66116   0.67291   0.86981   0.00000  Uiso   1.00
C291   C     0.67883   0.63533   0.80121   0.00000  Uiso   1.00
C292   C     0.71141   0.54253   0.78915   0.00000  Uiso   1.00
C293   C     0.72296   0.52239   0.72283   0.00000  Uiso   1.00
C294   C     0.66438   0.83239   0.87561   0.00000  Uiso   1.00
C295   C     0.68482   0.90527   0.92611   0.00000  Uiso   1.00
C296   C     0.68421   0.05102   0.92243   0.00000  Uiso   1.00
C297   C     0.61463   0.63957   0.86662   0.00000  Uiso   1.00
C298   C     0.59323   0.55037   0.90958   0.00000  Uiso   1.00
C299   C     0.55073   0.53381   0.89835   0.00000  Uiso   1.00
H300   H     0.60793   0.85679   0.73275   0.00000  Uiso   1.00
H301   H     0.65429   0.73986   0.64209   0.00000  Uiso   1.00
H302   H     0.62769   0.10254   0.77904   0.00000  Uiso   1.00
H303   H     0.53612   0.74769   0.76251   0.00000  Uiso   1.00
H304   H     0.71465   0.57930   0.56466   0.00000  Uiso   1.00
H305   H     0.65857   0.34404   0.85343   0.00000  Uiso   1.00
H306   H     0.46547   0.59577   0.81858   0.00000  Uiso   1.00
H307   H     0.67698   0.61826   0.91055   0.00000  Uiso   1.00
H308   H     0.72713   0.48823   0.82965   0.00000  Uiso   1.00
H309   H     0.70054   0.85092   0.96659   0.00000  Uiso   1.00
H310   H     0.60896   0.49607   0.95006   0.00000  Uiso   1.00
H311   H     0.77377   0.37508   0.71688   0.00000  Uiso   1.00
H312   H     0.71769   0.13982   0.00566   0.00000  Uiso   1.00
H313   H     0.52459   0.39154   0.97080   0.00000  Uiso   1.00
O314   O     0.77596   0.39599   0.58434   0.00000  Uiso   1.00
O315   O     0.70238   0.39929   0.96321   0.00000  Uiso   1.00
O316   O     0.44904   0.41757   0.91748   0.00000  Uiso   1.00
N317   N     0.72168   0.54906   0.61159   0.00000  Uiso   1.00
N318   N     0.66925   0.26404   0.88157   0.00000  Uiso   1.00
N319   N     0.48872   0.56450   0.84899   0.00000  Uiso   1.00
N320   N     0.75349   0.43917   0.69350   0.00000  Uiso   1.00
N321   N     0.70106   0.15415   0.96348   0.00000  Uiso   1.00
N322   N     0.52053   0.45461   0.93090   0.00000  Uiso   1.00
C323   C     0.87625   0.69786   0.27348   0.00000  Uiso   1.00
C324   C     0.84149   0.79448   0.24888   0.00000  Uiso   1.00
C325   C     0.82998   0.81449   0.18257   0.00000  Uiso   1.00
C326   C     0.79739   0.90729   0.17041   0.00000  Uiso   1.00
C327   C     0.74650   0.04658   0.12425   0.00000  Uiso   1.00
C328   C     0.85593   0.59742   0.32329   0.00000  Uiso   1.00
C329   C     0.85657   0.45175   0.31953   0.00000  Uiso   1.00
C330   C     0.83615   0.37867   0.37002   0.00000  Uiso   1.00
C331   C     0.80770   0.21202   0.43940   0.00000  Uiso   1.00
C332   C     0.90569   0.79023   0.31430   0.00000  Uiso   1.00
C333   C     0.94816   0.80665   0.30301   0.00000  Uiso   1.00
C334   C     0.96963   0.89587   0.34593   0.00000  Uiso   1.00
C335   C     0.01843   0.02859   0.40136   0.00000  Uiso   1.00
C336   C     0.83884   0.82709   0.36981   0.00000  Uiso   1.00
C337   C     0.82117   0.86467   0.30121   0.00000  Uiso   1.00
C338   C     0.78859   0.95747   0.28915   0.00000  Uiso   1.00
C339   C     0.77704   0.97761   0.22283   0.00000  Uiso   1.00
C340   C     0.83562   0.66761   0.37561   0.00000  Uiso   1.00
C341   C     0.81518   0.59473   0.42611   0.00000  Uiso   1.00
C342   C     0.81579   0.44898   0.42243   0.00000  Uiso   1.00
C343   C     0.88537   0.86043   0.36662   0.00000  Uiso   1.00
C344   C     0.90677   0.94963   0.40958   0.00000  Uiso   1.00
C345   C     0.94927   0.96619   0.39835   0.00000  Uiso   1.00
H346   H     0.89207   0.64321   0.23275   0.00000  Uiso   1.00
H347   H     0.84571   0.76014   0.14209   0.00000  Uiso   1.00
H348   H     0.87231   0.39746   0.27904   0.00000  Uiso   1.00
H349   H     0.96388   0.75231   0.26251   0.00000  Uiso   1.00
H350   H     0.78535   0.92070   0.06466   0.00000  Uiso   1.00
H351   H     0.84143   0.15596   0.35343   0.00000  Uiso   1.00
H352   H     0.03453   0.90423   0.31858   0.00000  Uiso   1.00
H353   H     0.82302   0.88174   0.41055   0.00000  Uiso   1.00
H354   H     0.77287   0.01177   0.32965   0.00000  Uiso   1.00
H355   H     0.79946   0.64908   0.46659   0.00000  Uiso   1.00
H356   H     0.89104   0.00393   0.45006   0.00000  Uiso   1.00
H357   H     0.72623   0.12492   0.21688   0.00000  Uiso   1.00
H358   H     0.78231   0.36018   0.50566   0.00000  Uiso   1.00
H359   H     0.97541   0.10846   0.47080   0.00000  Uiso   1.00
O360   O     0.72404   0.10401   0.08434   0.00000  Uiso   1.00
O361   O     0.79762   0.10071   0.46321   0.00000  Uiso   1.00
O362   O     0.05096   0.08243   0.41748   0.00000  Uiso   1.00
N363   N     0.77832   0.95094   0.11159   0.00000  Uiso   1.00
N364   N     0.83075   0.23596   0.38157   0.00000  Uiso   1.00
N365   N     0.01128   0.93550   0.34899   0.00000  Uiso   1.00
N366   N     0.74651   0.06083   0.19350   0.00000  Uiso   1.00
N367   N     0.79894   0.34585   0.46348   0.00000  Uiso   1.00
N368   N     0.97947   0.04539   0.43090   0.00000  Uiso   1.00
