data_job_05671
_audit_creation_date              2018-12-19
_audit_creation_method            'Materials Studio'
_symmetry_space_group_name_H-M    'P1'
_symmetry_Int_Tables_number       1
_symmetry_cell_setting            triclinic
loop_
_symmetry_equiv_pos_as_xyz
  x,y,z
_cell_length_a                    30.6861
_cell_length_b                    9.3402
_cell_length_c                    17.0307
_cell_angle_alpha                 90.0000
_cell_angle_beta                  90.0000
_cell_angle_gamma                 90.0000
loop_
_atom_site_label
_atom_site_type_symbol
_atom_site_fract_x
_atom_site_fract_y
_atom_site_fract_z
_atom_site_U_iso_or_equiv
_atom_site_adp_type
_atom_site_occupancy
C1     C     0.37187   0.95875   0.93329   0.00000  Uiso   1.00
C2     C     0.38255   0.01548   0.01502   0.00000  Uiso   1.00
C3     C     0.39935   0.14993   0.03196   0.00000  Uiso   1.00
C4     C     0.40689   0.18142   0.11047   0.00000  Uiso   1.00
C5     C     0.42486   0.28462   0.22833   0.00000  Uiso   1.00
C6     C     0.39774   0.82036   0.92411   0.00000  Uiso   1.00
C7     C     0.42730   0.79076   0.86461   0.00000  Uiso   1.00
C8     C     0.44762   0.65798   0.86659   0.00000  Uiso   1.00
C9     C     0.48915   0.45822   0.84329   0.00000  Uiso   1.00
C10    C     0.32402   0.91487   0.93565   0.00000  Uiso   1.00
C11    C     0.29160   0.96470   0.88584   0.00000  Uiso   1.00
C12    C     0.24986   0.91147   0.89752   0.00000  Uiso   1.00
C13    C     0.17692   0.85845   0.89214   0.00000  Uiso   1.00
C14    C     0.35539   0.77558   0.04259   0.00000  Uiso   1.00
C15    C     0.37360   0.91599   0.07438   0.00000  Uiso   1.00
C16    C     0.38111   0.94728   0.15289   0.00000  Uiso   1.00
C17    C     0.39792   0.08176   0.16994   0.00000  Uiso   1.00
C18    C     0.38879   0.72087   0.98348   0.00000  Uiso   1.00
C19    C     0.40907   0.58811   0.98554   0.00000  Uiso   1.00
C20    C     0.43865   0.55831   0.92606   0.00000  Uiso   1.00
C21    C     0.31507   0.81539   0.99502   0.00000  Uiso   1.00
C22    C     0.27337   0.76206   0.00677   0.00000  Uiso   1.00
C23    C     0.24089   0.81180   0.95700   0.00000  Uiso   1.00
H24    H     0.37884   0.03619   0.88707   0.00000  Uiso   1.00
H25    H     0.40628   0.22689   0.98600   0.00000  Uiso   1.00
H26    H     0.43422   0.86776   0.81868   0.00000  Uiso   1.00
H27    H     0.29854   0.04169   0.83991   0.00000  Uiso   1.00
H28    H     0.43276   0.39441   0.12185   0.00000  Uiso   1.00
H29    H     0.49168   0.63716   0.76903   0.00000  Uiso   1.00
H30    H     0.20557   0.00392   0.81380   0.00000  Uiso   1.00
H31    H     0.34842   0.69812   0.08881   0.00000  Uiso   1.00
H32    H     0.37418   0.87027   0.19882   0.00000  Uiso   1.00
H33    H     0.40213   0.51114   0.03149   0.00000  Uiso   1.00
H34    H     0.26645   0.68507   0.05272   0.00000  Uiso   1.00
H35    H     0.40671   0.10497   0.29458   0.00000  Uiso   1.00
H36    H     0.46563   0.34771   0.94175   0.00000  Uiso   1.00
H37    H     0.17952   0.71447   0.98653   0.00000  Uiso   1.00
O38    O     0.43725   0.36902   0.27694   0.00000  Uiso   1.00
O39    O     0.51453   0.37552   0.81404   0.00000  Uiso   1.00
O40    O     0.13917   0.85671   0.87277   0.00000  Uiso   1.00
N41    N     0.42309   0.30268   0.14741   0.00000  Uiso   1.00
N42    N     0.47817   0.59470   0.81755   0.00000  Uiso   1.00
N43    N     0.21069   0.93756   0.85939   0.00000  Uiso   1.00
N44    N     0.40907   0.14693   0.24036   0.00000  Uiso   1.00
N45    N     0.46416   0.43895   0.91049   0.00000  Uiso   1.00
N46    N     0.19667   0.78181   0.95233   0.00000  Uiso   1.00
C47    C     0.12813   0.04125   0.43329   0.00000  Uiso   1.00
C48    C     0.11745   0.98452   0.51502   0.00000  Uiso   1.00
C49    C     0.10065   0.85007   0.53196   0.00000  Uiso   1.00
C50    C     0.09311   0.81858   0.61047   0.00000  Uiso   1.00
C51    C     0.07514   0.71538   0.72833   0.00000  Uiso   1.00
C52    C     0.10226   0.17964   0.42411   0.00000  Uiso   1.00
C53    C     0.07270   0.20924   0.36461   0.00000  Uiso   1.00
C54    C     0.05238   0.34202   0.36659   0.00000  Uiso   1.00
C55    C     0.01085   0.54178   0.34329   0.00000  Uiso   1.00
C56    C     0.17598   0.08513   0.43565   0.00000  Uiso   1.00
C57    C     0.20840   0.03530   0.38584   0.00000  Uiso   1.00
C58    C     0.25014   0.08853   0.39752   0.00000  Uiso   1.00
C59    C     0.32308   0.14155   0.39214   0.00000  Uiso   1.00
C60    C     0.14461   0.22442   0.54259   0.00000  Uiso   1.00
C61    C     0.12640   0.08401   0.57438   0.00000  Uiso   1.00
C62    C     0.11889   0.05272   0.65289   0.00000  Uiso   1.00
C63    C     0.10208   0.91824   0.66994   0.00000  Uiso   1.00
C64    C     0.11121   0.27913   0.48348   0.00000  Uiso   1.00
C65    C     0.09093   0.41189   0.48554   0.00000  Uiso   1.00
C66    C     0.06135   0.44169   0.42606   0.00000  Uiso   1.00
C67    C     0.18493   0.18461   0.49502   0.00000  Uiso   1.00
C68    C     0.22663   0.23794   0.50677   0.00000  Uiso   1.00
C69    C     0.25911   0.18820   0.45700   0.00000  Uiso   1.00
H70    H     0.12116   0.96381   0.38707   0.00000  Uiso   1.00
H71    H     0.09372   0.77311   0.48600   0.00000  Uiso   1.00
H72    H     0.06578   0.13224   0.31868   0.00000  Uiso   1.00
H73    H     0.20146   0.95831   0.33991   0.00000  Uiso   1.00
H74    H     0.06724   0.60559   0.62185   0.00000  Uiso   1.00
H75    H     0.00832   0.36284   0.26903   0.00000  Uiso   1.00
H76    H     0.29443   0.99608   0.31380   0.00000  Uiso   1.00
H77    H     0.15158   0.30188   0.58881   0.00000  Uiso   1.00
H78    H     0.12582   0.12973   0.69882   0.00000  Uiso   1.00
H79    H     0.09787   0.48886   0.53149   0.00000  Uiso   1.00
H80    H     0.23355   0.31493   0.55272   0.00000  Uiso   1.00
H81    H     0.09329   0.89503   0.79458   0.00000  Uiso   1.00
H82    H     0.03437   0.65229   0.44175   0.00000  Uiso   1.00
H83    H     0.32048   0.28553   0.48653   0.00000  Uiso   1.00
O84    O     0.06275   0.63098   0.77694   0.00000  Uiso   1.00
O85    O     0.98547   0.62448   0.31404   0.00000  Uiso   1.00
O86    O     0.36083   0.14329   0.37277   0.00000  Uiso   1.00
N87    N     0.07691   0.69732   0.64741   0.00000  Uiso   1.00
N88    N     0.02183   0.40530   0.31755   0.00000  Uiso   1.00
N89    N     0.28931   0.06244   0.35939   0.00000  Uiso   1.00
N90    N     0.09093   0.85307   0.74036   0.00000  Uiso   1.00
N91    N     0.03584   0.56105   0.41049   0.00000  Uiso   1.00
N92    N     0.30333   0.21819   0.45233   0.00000  Uiso   1.00
C93    C     0.62813   0.45875   0.56671   0.00000  Uiso   1.00
C94    C     0.61745   0.51548   0.48498   0.00000  Uiso   1.00
C95    C     0.60065   0.64993   0.46804   0.00000  Uiso   1.00
C96    C     0.59311   0.68142   0.38953   0.00000  Uiso   1.00
C97    C     0.57514   0.78462   0.27167   0.00000  Uiso   1.00
C98    C     0.60226   0.32036   0.57589   0.00000  Uiso   1.00
C99    C     0.57270   0.29076   0.63539   0.00000  Uiso   1.00
C100   C     0.55238   0.15798   0.63341   0.00000  Uiso   1.00
C101   C     0.51085   0.95822   0.65671   0.00000  Uiso   1.00
C102   C     0.67598   0.41487   0.56435   0.00000  Uiso   1.00
C103   C     0.70840   0.46470   0.61416   0.00000  Uiso   1.00
C104   C     0.75014   0.41147   0.60248   0.00000  Uiso   1.00
C105   C     0.82308   0.35845   0.60786   0.00000  Uiso   1.00
C106   C     0.64461   0.27558   0.45741   0.00000  Uiso   1.00
C107   C     0.62640   0.41599   0.42562   0.00000  Uiso   1.00
C108   C     0.61889   0.44728   0.34711   0.00000  Uiso   1.00
C109   C     0.60208   0.58176   0.33006   0.00000  Uiso   1.00
C110   C     0.61121   0.22087   0.51652   0.00000  Uiso   1.00
C111   C     0.59093   0.08811   0.51446   0.00000  Uiso   1.00
C112   C     0.56135   0.05831   0.57394   0.00000  Uiso   1.00
C113   C     0.68493   0.31539   0.50498   0.00000  Uiso   1.00
C114   C     0.72663   0.26206   0.49323   0.00000  Uiso   1.00
C115   C     0.75911   0.31180   0.54300   0.00000  Uiso   1.00
H116   H     0.62116   0.53619   0.61293   0.00000  Uiso   1.00
H117   H     0.59372   0.72689   0.51400   0.00000  Uiso   1.00
H118   H     0.56578   0.36776   0.68132   0.00000  Uiso   1.00
H119   H     0.70146   0.54169   0.66009   0.00000  Uiso   1.00
H120   H     0.56724   0.89441   0.37815   0.00000  Uiso   1.00
H121   H     0.50832   0.13716   0.73097   0.00000  Uiso   1.00
H122   H     0.79443   0.50392   0.68620   0.00000  Uiso   1.00
H123   H     0.65158   0.19812   0.41119   0.00000  Uiso   1.00
H124   H     0.62582   0.37027   0.30118   0.00000  Uiso   1.00
H125   H     0.59787   0.01114   0.46851   0.00000  Uiso   1.00
H126   H     0.73355   0.18507   0.44728   0.00000  Uiso   1.00
H127   H     0.59329   0.60497   0.20542   0.00000  Uiso   1.00
H128   H     0.53437   0.84771   0.55825   0.00000  Uiso   1.00
H129   H     0.82048   0.21447   0.51347   0.00000  Uiso   1.00
O130   O     0.56275   0.86902   0.22306   0.00000  Uiso   1.00
O131   O     0.48547   0.87552   0.68596   0.00000  Uiso   1.00
O132   O     0.86083   0.35671   0.62723   0.00000  Uiso   1.00
N133   N     0.57691   0.80268   0.35259   0.00000  Uiso   1.00
N134   N     0.52183   0.09470   0.68245   0.00000  Uiso   1.00
N135   N     0.78931   0.43756   0.64061   0.00000  Uiso   1.00
N136   N     0.59093   0.64693   0.25964   0.00000  Uiso   1.00
N137   N     0.53584   0.93895   0.58951   0.00000  Uiso   1.00
N138   N     0.80333   0.28181   0.54767   0.00000  Uiso   1.00
C139   C     0.87187   0.54125   0.06671   0.00000  Uiso   1.00
C140   C     0.88255   0.48452   0.98498   0.00000  Uiso   1.00
C141   C     0.89935   0.35007   0.96804   0.00000  Uiso   1.00
C142   C     0.90689   0.31858   0.88953   0.00000  Uiso   1.00
C143   C     0.92486   0.21538   0.77167   0.00000  Uiso   1.00
C144   C     0.89774   0.67964   0.07589   0.00000  Uiso   1.00
C145   C     0.92730   0.70924   0.13539   0.00000  Uiso   1.00
C146   C     0.94762   0.84202   0.13341   0.00000  Uiso   1.00
C147   C     0.98915   0.04178   0.15671   0.00000  Uiso   1.00
C148   C     0.82402   0.58513   0.06435   0.00000  Uiso   1.00
C149   C     0.79160   0.53530   0.11416   0.00000  Uiso   1.00
C150   C     0.74986   0.58853   0.10248   0.00000  Uiso   1.00
C151   C     0.67692   0.64155   0.10786   0.00000  Uiso   1.00
C152   C     0.85539   0.72442   0.95741   0.00000  Uiso   1.00
C153   C     0.87360   0.58401   0.92562   0.00000  Uiso   1.00
C154   C     0.88111   0.55272   0.84711   0.00000  Uiso   1.00
C155   C     0.89792   0.41824   0.83006   0.00000  Uiso   1.00
C156   C     0.88879   0.77913   0.01652   0.00000  Uiso   1.00
C157   C     0.90907   0.91189   0.01446   0.00000  Uiso   1.00
C158   C     0.93865   0.94169   0.07394   0.00000  Uiso   1.00
C159   C     0.81507   0.68461   0.00498   0.00000  Uiso   1.00
C160   C     0.77337   0.73794   0.99323   0.00000  Uiso   1.00
C161   C     0.74089   0.68820   0.04300   0.00000  Uiso   1.00
H162   H     0.87884   0.46381   0.11293   0.00000  Uiso   1.00
H163   H     0.90628   0.27311   0.01400   0.00000  Uiso   1.00
H164   H     0.93422   0.63224   0.18132   0.00000  Uiso   1.00
H165   H     0.79854   0.45831   0.16009   0.00000  Uiso   1.00
H166   H     0.93276   0.10559   0.87815   0.00000  Uiso   1.00
H167   H     0.99168   0.86284   0.23097   0.00000  Uiso   1.00
H168   H     0.70557   0.49608   0.18620   0.00000  Uiso   1.00
H169   H     0.84842   0.80188   0.91119   0.00000  Uiso   1.00
H170   H     0.87418   0.62973   0.80118   0.00000  Uiso   1.00
H171   H     0.90213   0.98886   0.96851   0.00000  Uiso   1.00
H172   H     0.76645   0.81493   0.94728   0.00000  Uiso   1.00
H173   H     0.90671   0.39503   0.70542   0.00000  Uiso   1.00
H174   H     0.96563   0.15229   0.05825   0.00000  Uiso   1.00
H175   H     0.67952   0.78553   0.01347   0.00000  Uiso   1.00
O176   O     0.93725   0.13098   0.72306   0.00000  Uiso   1.00
O177   O     0.01453   0.12448   0.18596   0.00000  Uiso   1.00
O178   O     0.63917   0.64329   0.12723   0.00000  Uiso   1.00
N179   N     0.92309   0.19732   0.85259   0.00000  Uiso   1.00
N180   N     0.97817   0.90530   0.18245   0.00000  Uiso   1.00
N181   N     0.71069   0.56244   0.14061   0.00000  Uiso   1.00
N182   N     0.90907   0.35307   0.75964   0.00000  Uiso   1.00
N183   N     0.96416   0.06105   0.08951   0.00000  Uiso   1.00
N184   N     0.69667   0.71819   0.04767   0.00000  Uiso   1.00
C185   C     0.62813   0.04125   0.06671   0.00000  Uiso   1.00
C186   C     0.61745   0.98452   0.98498   0.00000  Uiso   1.00
C187   C     0.60065   0.85007   0.96804   0.00000  Uiso   1.00
C188   C     0.59311   0.81858   0.88953   0.00000  Uiso   1.00
C189   C     0.57514   0.71538   0.77167   0.00000  Uiso   1.00
C190   C     0.60226   0.17964   0.07589   0.00000  Uiso   1.00
C191   C     0.57270   0.20924   0.13539   0.00000  Uiso   1.00
C192   C     0.55238   0.34202   0.13341   0.00000  Uiso   1.00
C193   C     0.51085   0.54178   0.15671   0.00000  Uiso   1.00
C194   C     0.67598   0.08513   0.06435   0.00000  Uiso   1.00
C195   C     0.70840   0.03530   0.11416   0.00000  Uiso   1.00
C196   C     0.75014   0.08853   0.10248   0.00000  Uiso   1.00
C197   C     0.82308   0.14155   0.10786   0.00000  Uiso   1.00
C198   C     0.64461   0.22442   0.95741   0.00000  Uiso   1.00
C199   C     0.62640   0.08401   0.92562   0.00000  Uiso   1.00
C200   C     0.61889   0.05272   0.84711   0.00000  Uiso   1.00
C201   C     0.60208   0.91824   0.83006   0.00000  Uiso   1.00
C202   C     0.61121   0.27913   0.01652   0.00000  Uiso   1.00
C203   C     0.59093   0.41189   0.01446   0.00000  Uiso   1.00
C204   C     0.56135   0.44169   0.07394   0.00000  Uiso   1.00
C205   C     0.68493   0.18461   0.00498   0.00000  Uiso   1.00
C206   C     0.72663   0.23794   0.99323   0.00000  Uiso   1.00
C207   C     0.75911   0.18820   0.04300   0.00000  Uiso   1.00
H208   H     0.62116   0.96381   0.11293   0.00000  Uiso   1.00
H209   H     0.59372   0.77311   0.01400   0.00000  Uiso   1.00
H210   H     0.56578   0.13224   0.18132   0.00000  Uiso   1.00
H211   H     0.70146   0.95831   0.16009   0.00000  Uiso   1.00
H212   H     0.56724   0.60559   0.87815   0.00000  Uiso   1.00
H213   H     0.50832   0.36284   0.23097   0.00000  Uiso   1.00
H214   H     0.79443   0.99608   0.18620   0.00000  Uiso   1.00
H215   H     0.65158   0.30188   0.91119   0.00000  Uiso   1.00
H216   H     0.62582   0.12973   0.80118   0.00000  Uiso   1.00
H217   H     0.59787   0.48886   0.96851   0.00000  Uiso   1.00
H218   H     0.73355   0.31493   0.94728   0.00000  Uiso   1.00
H219   H     0.59329   0.89503   0.70542   0.00000  Uiso   1.00
H220   H     0.53437   0.65229   0.05825   0.00000  Uiso   1.00
H221   H     0.82048   0.28553   0.01347   0.00000  Uiso   1.00
O222   O     0.56275   0.63098   0.72306   0.00000  Uiso   1.00
O223   O     0.48547   0.62448   0.18596   0.00000  Uiso   1.00
O224   O     0.86083   0.14329   0.12723   0.00000  Uiso   1.00
N225   N     0.57691   0.69732   0.85259   0.00000  Uiso   1.00
N226   N     0.52183   0.40530   0.18245   0.00000  Uiso   1.00
N227   N     0.78931   0.06244   0.14061   0.00000  Uiso   1.00
N228   N     0.59093   0.85307   0.75964   0.00000  Uiso   1.00
N229   N     0.53584   0.56105   0.08951   0.00000  Uiso   1.00
N230   N     0.80333   0.21819   0.04767   0.00000  Uiso   1.00
C231   C     0.87187   0.95875   0.56671   0.00000  Uiso   1.00
C232   C     0.88255   0.01548   0.48498   0.00000  Uiso   1.00
C233   C     0.89935   0.14993   0.46804   0.00000  Uiso   1.00
C234   C     0.90689   0.18142   0.38953   0.00000  Uiso   1.00
C235   C     0.92486   0.28462   0.27167   0.00000  Uiso   1.00
C236   C     0.89774   0.82036   0.57589   0.00000  Uiso   1.00
C237   C     0.92730   0.79076   0.63539   0.00000  Uiso   1.00
C238   C     0.94762   0.65798   0.63341   0.00000  Uiso   1.00
C239   C     0.98915   0.45822   0.65671   0.00000  Uiso   1.00
C240   C     0.82402   0.91487   0.56435   0.00000  Uiso   1.00
C241   C     0.79160   0.96470   0.61416   0.00000  Uiso   1.00
C242   C     0.74986   0.91147   0.60248   0.00000  Uiso   1.00
C243   C     0.67692   0.85845   0.60786   0.00000  Uiso   1.00
C244   C     0.85539   0.77558   0.45741   0.00000  Uiso   1.00
C245   C     0.87360   0.91599   0.42562   0.00000  Uiso   1.00
C246   C     0.88111   0.94728   0.34711   0.00000  Uiso   1.00
C247   C     0.89792   0.08176   0.33006   0.00000  Uiso   1.00
C248   C     0.88879   0.72087   0.51652   0.00000  Uiso   1.00
C249   C     0.90907   0.58811   0.51446   0.00000  Uiso   1.00
C250   C     0.93865   0.55831   0.57394   0.00000  Uiso   1.00
C251   C     0.81507   0.81539   0.50498   0.00000  Uiso   1.00
C252   C     0.77337   0.76206   0.49323   0.00000  Uiso   1.00
C253   C     0.74089   0.81180   0.54300   0.00000  Uiso   1.00
H254   H     0.87884   0.03619   0.61293   0.00000  Uiso   1.00
H255   H     0.90628   0.22689   0.51400   0.00000  Uiso   1.00
H256   H     0.93422   0.86776   0.68132   0.00000  Uiso   1.00
H257   H     0.79854   0.04169   0.66009   0.00000  Uiso   1.00
H258   H     0.93276   0.39441   0.37815   0.00000  Uiso   1.00
H259   H     0.99168   0.63716   0.73097   0.00000  Uiso   1.00
H260   H     0.70557   0.00392   0.68620   0.00000  Uiso   1.00
H261   H     0.84842   0.69812   0.41119   0.00000  Uiso   1.00
H262   H     0.87418   0.87027   0.30118   0.00000  Uiso   1.00
H263   H     0.90213   0.51114   0.46851   0.00000  Uiso   1.00
H264   H     0.76645   0.68507   0.44728   0.00000  Uiso   1.00
H265   H     0.90671   0.10497   0.20542   0.00000  Uiso   1.00
H266   H     0.96563   0.34771   0.55825   0.00000  Uiso   1.00
H267   H     0.67952   0.71447   0.51347   0.00000  Uiso   1.00
O268   O     0.93725   0.36902   0.22306   0.00000  Uiso   1.00
O269   O     0.01453   0.37552   0.68596   0.00000  Uiso   1.00
O270   O     0.63917   0.85671   0.62723   0.00000  Uiso   1.00
N271   N     0.92309   0.30268   0.35259   0.00000  Uiso   1.00
N272   N     0.97817   0.59470   0.68245   0.00000  Uiso   1.00
N273   N     0.71069   0.93756   0.64061   0.00000  Uiso   1.00
N274   N     0.90907   0.14693   0.25964   0.00000  Uiso   1.00
N275   N     0.96416   0.43895   0.58951   0.00000  Uiso   1.00
N276   N     0.69667   0.78181   0.54767   0.00000  Uiso   1.00
C277   C     0.37187   0.54125   0.43329   0.00000  Uiso   1.00
C278   C     0.38255   0.48452   0.51502   0.00000  Uiso   1.00
C279   C     0.39935   0.35007   0.53196   0.00000  Uiso   1.00
C280   C     0.40689   0.31858   0.61047   0.00000  Uiso   1.00
C281   C     0.42486   0.21538   0.72833   0.00000  Uiso   1.00
C282   C     0.39774   0.67964   0.42411   0.00000  Uiso   1.00
C283   C     0.42730   0.70924   0.36461   0.00000  Uiso   1.00
C284   C     0.44762   0.84202   0.36659   0.00000  Uiso   1.00
C285   C     0.48915   0.04178   0.34329   0.00000  Uiso   1.00
C286   C     0.32402   0.58513   0.43565   0.00000  Uiso   1.00
C287   C     0.29160   0.53530   0.38584   0.00000  Uiso   1.00
C288   C     0.24986   0.58853   0.39752   0.00000  Uiso   1.00
C289   C     0.17692   0.64155   0.39214   0.00000  Uiso   1.00
C290   C     0.35539   0.72442   0.54259   0.00000  Uiso   1.00
C291   C     0.37360   0.58401   0.57438   0.00000  Uiso   1.00
C292   C     0.38111   0.55272   0.65289   0.00000  Uiso   1.00
C293   C     0.39792   0.41824   0.66994   0.00000  Uiso   1.00
C294   C     0.38879   0.77913   0.48348   0.00000  Uiso   1.00
C295   C     0.40907   0.91189   0.48554   0.00000  Uiso   1.00
C296   C     0.43865   0.94169   0.42606   0.00000  Uiso   1.00
C297   C     0.31507   0.68461   0.49502   0.00000  Uiso   1.00
C298   C     0.27337   0.73794   0.50677   0.00000  Uiso   1.00
C299   C     0.24089   0.68820   0.45700   0.00000  Uiso   1.00
H300   H     0.37884   0.46381   0.38707   0.00000  Uiso   1.00
H301   H     0.40628   0.27311   0.48600   0.00000  Uiso   1.00
H302   H     0.43422   0.63224   0.31868   0.00000  Uiso   1.00
H303   H     0.29854   0.45831   0.33991   0.00000  Uiso   1.00
H304   H     0.43276   0.10559   0.62185   0.00000  Uiso   1.00
H305   H     0.49168   0.86284   0.26903   0.00000  Uiso   1.00
H306   H     0.20557   0.49608   0.31380   0.00000  Uiso   1.00
H307   H     0.34842   0.80188   0.58881   0.00000  Uiso   1.00
H308   H     0.37418   0.62973   0.69882   0.00000  Uiso   1.00
H309   H     0.40213   0.98886   0.53149   0.00000  Uiso   1.00
H310   H     0.26645   0.81493   0.55272   0.00000  Uiso   1.00
H311   H     0.40671   0.39503   0.79458   0.00000  Uiso   1.00
H312   H     0.46563   0.15229   0.44175   0.00000  Uiso   1.00
H313   H     0.17952   0.78553   0.48653   0.00000  Uiso   1.00
O314   O     0.43725   0.13098   0.77694   0.00000  Uiso   1.00
O315   O     0.51453   0.12448   0.31404   0.00000  Uiso   1.00
O316   O     0.13917   0.64329   0.37277   0.00000  Uiso   1.00
N317   N     0.42309   0.19732   0.64741   0.00000  Uiso   1.00
N318   N     0.47817   0.90530   0.31755   0.00000  Uiso   1.00
N319   N     0.21069   0.56244   0.35939   0.00000  Uiso   1.00
N320   N     0.40907   0.35307   0.74036   0.00000  Uiso   1.00
N321   N     0.46416   0.06105   0.41049   0.00000  Uiso   1.00
N322   N     0.19667   0.71819   0.45233   0.00000  Uiso   1.00
C323   C     0.12813   0.45875   0.93329   0.00000  Uiso   1.00
C324   C     0.11745   0.51548   0.01502   0.00000  Uiso   1.00
C325   C     0.10065   0.64993   0.03196   0.00000  Uiso   1.00
C326   C     0.09311   0.68142   0.11047   0.00000  Uiso   1.00
C327   C     0.07514   0.78462   0.22833   0.00000  Uiso   1.00
C328   C     0.10226   0.32036   0.92411   0.00000  Uiso   1.00
C329   C     0.07270   0.29076   0.86461   0.00000  Uiso   1.00
C330   C     0.05238   0.15798   0.86659   0.00000  Uiso   1.00
C331   C     0.01085   0.95822   0.84329   0.00000  Uiso   1.00
C332   C     0.17598   0.41487   0.93565   0.00000  Uiso   1.00
C333   C     0.20840   0.46470   0.88584   0.00000  Uiso   1.00
C334   C     0.25014   0.41147   0.89752   0.00000  Uiso   1.00
C335   C     0.32308   0.35845   0.89214   0.00000  Uiso   1.00
C336   C     0.14461   0.27558   0.04259   0.00000  Uiso   1.00
C337   C     0.12640   0.41599   0.07438   0.00000  Uiso   1.00
C338   C     0.11889   0.44728   0.15289   0.00000  Uiso   1.00
C339   C     0.10208   0.58176   0.16994   0.00000  Uiso   1.00
C340   C     0.11121   0.22087   0.98348   0.00000  Uiso   1.00
C341   C     0.09093   0.08811   0.98554   0.00000  Uiso   1.00
C342   C     0.06135   0.05831   0.92606   0.00000  Uiso   1.00
C343   C     0.18493   0.31539   0.99502   0.00000  Uiso   1.00
C344   C     0.22663   0.26206   0.00677   0.00000  Uiso   1.00
C345   C     0.25911   0.31180   0.95700   0.00000  Uiso   1.00
H346   H     0.12116   0.53619   0.88707   0.00000  Uiso   1.00
H347   H     0.09372   0.72689   0.98600   0.00000  Uiso   1.00
H348   H     0.06578   0.36776   0.81868   0.00000  Uiso   1.00
H349   H     0.20146   0.54169   0.83991   0.00000  Uiso   1.00
H350   H     0.06724   0.89441   0.12185   0.00000  Uiso   1.00
H351   H     0.00832   0.13716   0.76903   0.00000  Uiso   1.00
H352   H     0.29443   0.50392   0.81380   0.00000  Uiso   1.00
H353   H     0.15158   0.19812   0.08881   0.00000  Uiso   1.00
H354   H     0.12582   0.37027   0.19882   0.00000  Uiso   1.00
H355   H     0.09787   0.01114   0.03149   0.00000  Uiso   1.00
H356   H     0.23355   0.18507   0.05272   0.00000  Uiso   1.00
H357   H     0.09329   0.60497   0.29458   0.00000  Uiso   1.00
H358   H     0.03437   0.84771   0.94175   0.00000  Uiso   1.00
H359   H     0.32048   0.21447   0.98653   0.00000  Uiso   1.00
O360   O     0.06275   0.86902   0.27694   0.00000  Uiso   1.00
O361   O     0.98547   0.87552   0.81404   0.00000  Uiso   1.00
O362   O     0.36083   0.35671   0.87277   0.00000  Uiso   1.00
N363   N     0.07691   0.80268   0.14741   0.00000  Uiso   1.00
N364   N     0.02183   0.09470   0.81755   0.00000  Uiso   1.00
N365   N     0.28931   0.43756   0.85939   0.00000  Uiso   1.00
N366   N     0.09093   0.64693   0.24036   0.00000  Uiso   1.00
N367   N     0.03584   0.93895   0.91049   0.00000  Uiso   1.00
N368   N     0.30333   0.28181   0.95233   0.00000  Uiso   1.00
