data_job_05308
_audit_creation_date              2018-12-19
_audit_creation_method            'Materials Studio'
_symmetry_space_group_name_H-M    'P1'
_symmetry_Int_Tables_number       1
_symmetry_cell_setting            triclinic
loop_
_symmetry_equiv_pos_as_xyz
  x,y,z
_cell_length_a                    20.4859
_cell_length_b                    12.3520
_cell_length_c                    14.1568
_cell_angle_alpha                 90.0000
_cell_angle_beta                  88.6601
_cell_angle_gamma                 90.0000
loop_
_atom_site_label
_atom_site_type_symbol
_atom_site_fract_x
_atom_site_fract_y
_atom_site_fract_z
_atom_site_U_iso_or_equiv
_atom_site_adp_type
_atom_site_occupancy
C1     C     0.67490   0.44455   0.44348   0.00000  Uiso   1.00
C2     C     0.63428   0.54546   0.42490   0.00000  Uiso   1.00
C3     C     0.59764   0.60231   0.49201   0.00000  Uiso   1.00
C4     C     0.56391   0.69250   0.46085   0.00000  Uiso   1.00
C5     C     0.50038   0.84428   0.44641   0.00000  Uiso   1.00
C6     C     0.64988   0.35764   0.37693   0.00000  Uiso   1.00
C7     C     0.62636   0.25656   0.40371   0.00000  Uiso   1.00
C8     C     0.60576   0.18864   0.33216   0.00000  Uiso   1.00
C9     C     0.56649   0.04879   0.24325   0.00000  Uiso   1.00
C10    C     0.74412   0.47103   0.40891   0.00000  Uiso   1.00
C11    C     0.79985   0.46527   0.46258   0.00000  Uiso   1.00
C12    C     0.85860   0.49279   0.41795   0.00000  Uiso   1.00
C13    C     0.96566   0.52900   0.37870   0.00000  Uiso   1.00
C14    C     0.68015   0.50364   0.26880   0.00000  Uiso   1.00
C15    C     0.63714   0.57755   0.33001   0.00000  Uiso   1.00
C16    C     0.60345   0.66769   0.29874   0.00000  Uiso   1.00
C17    C     0.56677   0.72466   0.36580   0.00000  Uiso   1.00
C18    C     0.65273   0.38973   0.28205   0.00000  Uiso   1.00
C19    C     0.63217   0.32194   0.21044   0.00000  Uiso   1.00
C20    C     0.60862   0.22079   0.23711   0.00000  Uiso   1.00
C21    C     0.74698   0.50313   0.31403   0.00000  Uiso   1.00
C22    C     0.80566   0.53066   0.26931   0.00000  Uiso   1.00
C23    C     0.86146   0.52495   0.32290   0.00000  Uiso   1.00
H24    H     0.67267   0.41955   0.51735   0.00000  Uiso   1.00
H25    H     0.59544   0.57744   0.56543   0.00000  Uiso   1.00
H26    H     0.62416   0.23174   0.47714   0.00000  Uiso   1.00
H27    H     0.79762   0.44043   0.53600   0.00000  Uiso   1.00
H28    H     0.51105   0.76661   0.57688   0.00000  Uiso   1.00
H29    H     0.57163   0.03768   0.39073   0.00000  Uiso   1.00
H30    H     0.93741   0.47773   0.51484   0.00000  Uiso   1.00
H31    H     0.68237   0.52863   0.19492   0.00000  Uiso   1.00
H32    H     0.60567   0.69251   0.22531   0.00000  Uiso   1.00
H33    H     0.63439   0.34680   0.13702   0.00000  Uiso   1.00
H34    H     0.80785   0.55549   0.19588   0.00000  Uiso   1.00
H35    H     0.51935   0.86000   0.30083   0.00000  Uiso   1.00
H36    H     0.57993   0.13107   0.11467   0.00000  Uiso   1.00
H37    H     0.94570   0.57112   0.23878   0.00000  Uiso   1.00
O38    O     0.46455   0.91912   0.46466   0.00000  Uiso   1.00
O39    O     0.54404   0.96279   0.22043   0.00000  Uiso   1.00
O40    O     0.02393   0.54012   0.38326   0.00000  Uiso   1.00
N41    N     0.52354   0.76612   0.50775   0.00000  Uiso   1.00
N42    N     0.58017   0.08461   0.33370   0.00000  Uiso   1.00
N43    N     0.92214   0.49599   0.44973   0.00000  Uiso   1.00
N44    N     0.52801   0.81637   0.35921   0.00000  Uiso   1.00
N45    N     0.58463   0.13487   0.18516   0.00000  Uiso   1.00
N46    N     0.92661   0.54625   0.30119   0.00000  Uiso   1.00
C47    C     0.32510   0.94455   0.05652   0.00000  Uiso   1.00
C48    C     0.36572   0.04546   0.07510   0.00000  Uiso   1.00
C49    C     0.40236   0.10231   0.00799   0.00000  Uiso   1.00
C50    C     0.43609   0.19250   0.03915   0.00000  Uiso   1.00
C51    C     0.49962   0.34428   0.05359   0.00000  Uiso   1.00
C52    C     0.35012   0.85764   0.12307   0.00000  Uiso   1.00
C53    C     0.37364   0.75656   0.09629   0.00000  Uiso   1.00
C54    C     0.39424   0.68864   0.16784   0.00000  Uiso   1.00
C55    C     0.43351   0.54879   0.25675   0.00000  Uiso   1.00
C56    C     0.25588   0.97103   0.09109   0.00000  Uiso   1.00
C57    C     0.20015   0.96527   0.03742   0.00000  Uiso   1.00
C58    C     0.14140   0.99279   0.08205   0.00000  Uiso   1.00
C59    C     0.03434   0.02900   0.12130   0.00000  Uiso   1.00
C60    C     0.31985   0.00364   0.23120   0.00000  Uiso   1.00
C61    C     0.36286   0.07755   0.16999   0.00000  Uiso   1.00
C62    C     0.39655   0.16769   0.20126   0.00000  Uiso   1.00
C63    C     0.43323   0.22466   0.13420   0.00000  Uiso   1.00
C64    C     0.34727   0.88973   0.21795   0.00000  Uiso   1.00
C65    C     0.36783   0.82194   0.28956   0.00000  Uiso   1.00
C66    C     0.39138   0.72079   0.26289   0.00000  Uiso   1.00
C67    C     0.25302   0.00313   0.18597   0.00000  Uiso   1.00
C68    C     0.19434   0.03066   0.23069   0.00000  Uiso   1.00
C69    C     0.13854   0.02495   0.17710   0.00000  Uiso   1.00
H70    H     0.32733   0.91955   0.98265   0.00000  Uiso   1.00
H71    H     0.40456   0.07744   0.93457   0.00000  Uiso   1.00
H72    H     0.37584   0.73174   0.02286   0.00000  Uiso   1.00
H73    H     0.20238   0.94043   0.96400   0.00000  Uiso   1.00
H74    H     0.48895   0.26661   0.92312   0.00000  Uiso   1.00
H75    H     0.42837   0.53768   0.10927   0.00000  Uiso   1.00
H76    H     0.06259   0.97773   0.98516   0.00000  Uiso   1.00
H77    H     0.31763   0.02863   0.30508   0.00000  Uiso   1.00
H78    H     0.39433   0.19251   0.27469   0.00000  Uiso   1.00
H79    H     0.36561   0.84680   0.36298   0.00000  Uiso   1.00
H80    H     0.19215   0.05549   0.30412   0.00000  Uiso   1.00
H81    H     0.48065   0.36000   0.19917   0.00000  Uiso   1.00
H82    H     0.42007   0.63107   0.38533   0.00000  Uiso   1.00
H83    H     0.05430   0.07112   0.26122   0.00000  Uiso   1.00
O84    O     0.53545   0.41912   0.03534   0.00000  Uiso   1.00
O85    O     0.45596   0.46279   0.27957   0.00000  Uiso   1.00
O86    O     0.97607   0.04012   0.11674   0.00000  Uiso   1.00
N87    N     0.47646   0.26612   0.99225   0.00000  Uiso   1.00
N88    N     0.41983   0.58461   0.16630   0.00000  Uiso   1.00
N89    N     0.07786   0.99599   0.05027   0.00000  Uiso   1.00
N90    N     0.47199   0.31637   0.14079   0.00000  Uiso   1.00
N91    N     0.41537   0.63487   0.31484   0.00000  Uiso   1.00
N92    N     0.07339   0.04625   0.19881   0.00000  Uiso   1.00
C93    C     0.32510   0.55545   0.55652   0.00000  Uiso   1.00
C94    C     0.36572   0.45454   0.57510   0.00000  Uiso   1.00
C95    C     0.40236   0.39769   0.50799   0.00000  Uiso   1.00
C96    C     0.43609   0.30750   0.53915   0.00000  Uiso   1.00
C97    C     0.49962   0.15572   0.55359   0.00000  Uiso   1.00
C98    C     0.35012   0.64236   0.62307   0.00000  Uiso   1.00
C99    C     0.37364   0.74344   0.59629   0.00000  Uiso   1.00
C100   C     0.39424   0.81136   0.66784   0.00000  Uiso   1.00
C101   C     0.43351   0.95121   0.75675   0.00000  Uiso   1.00
C102   C     0.25588   0.52897   0.59109   0.00000  Uiso   1.00
C103   C     0.20015   0.53473   0.53742   0.00000  Uiso   1.00
C104   C     0.14140   0.50721   0.58205   0.00000  Uiso   1.00
C105   C     0.03434   0.47100   0.62130   0.00000  Uiso   1.00
C106   C     0.31985   0.49636   0.73120   0.00000  Uiso   1.00
C107   C     0.36286   0.42245   0.66999   0.00000  Uiso   1.00
C108   C     0.39655   0.33231   0.70126   0.00000  Uiso   1.00
C109   C     0.43323   0.27534   0.63420   0.00000  Uiso   1.00
C110   C     0.34727   0.61027   0.71795   0.00000  Uiso   1.00
C111   C     0.36783   0.67806   0.78956   0.00000  Uiso   1.00
C112   C     0.39138   0.77921   0.76289   0.00000  Uiso   1.00
C113   C     0.25302   0.49687   0.68597   0.00000  Uiso   1.00
C114   C     0.19434   0.46934   0.73069   0.00000  Uiso   1.00
C115   C     0.13854   0.47505   0.67710   0.00000  Uiso   1.00
H116   H     0.32733   0.58045   0.48265   0.00000  Uiso   1.00
H117   H     0.40456   0.42256   0.43457   0.00000  Uiso   1.00
H118   H     0.37584   0.76826   0.52286   0.00000  Uiso   1.00
H119   H     0.20238   0.55957   0.46400   0.00000  Uiso   1.00
H120   H     0.48895   0.23339   0.42312   0.00000  Uiso   1.00
H121   H     0.42837   0.96232   0.60927   0.00000  Uiso   1.00
H122   H     0.06259   0.52227   0.48516   0.00000  Uiso   1.00
H123   H     0.31763   0.47137   0.80508   0.00000  Uiso   1.00
H124   H     0.39433   0.30749   0.77469   0.00000  Uiso   1.00
H125   H     0.36561   0.65320   0.86298   0.00000  Uiso   1.00
H126   H     0.19215   0.44451   0.80412   0.00000  Uiso   1.00
H127   H     0.48065   0.14000   0.69917   0.00000  Uiso   1.00
H128   H     0.42007   0.86893   0.88533   0.00000  Uiso   1.00
H129   H     0.05430   0.42888   0.76122   0.00000  Uiso   1.00
O130   O     0.53545   0.08088   0.53534   0.00000  Uiso   1.00
O131   O     0.45596   0.03721   0.77957   0.00000  Uiso   1.00
O132   O     0.97607   0.45988   0.61674   0.00000  Uiso   1.00
N133   N     0.47646   0.23388   0.49225   0.00000  Uiso   1.00
N134   N     0.41983   0.91539   0.66630   0.00000  Uiso   1.00
N135   N     0.07786   0.50401   0.55027   0.00000  Uiso   1.00
N136   N     0.47199   0.18363   0.64079   0.00000  Uiso   1.00
N137   N     0.41537   0.86513   0.81484   0.00000  Uiso   1.00
N138   N     0.07339   0.45375   0.69881   0.00000  Uiso   1.00
C139   C     0.67490   0.05545   0.94348   0.00000  Uiso   1.00
C140   C     0.63428   0.95454   0.92490   0.00000  Uiso   1.00
C141   C     0.59764   0.89769   0.99201   0.00000  Uiso   1.00
C142   C     0.56391   0.80750   0.96085   0.00000  Uiso   1.00
C143   C     0.50038   0.65572   0.94641   0.00000  Uiso   1.00
C144   C     0.64988   0.14236   0.87693   0.00000  Uiso   1.00
C145   C     0.62636   0.24344   0.90371   0.00000  Uiso   1.00
C146   C     0.60576   0.31136   0.83216   0.00000  Uiso   1.00
C147   C     0.56649   0.45121   0.74325   0.00000  Uiso   1.00
C148   C     0.74412   0.02897   0.90891   0.00000  Uiso   1.00
C149   C     0.79985   0.03473   0.96258   0.00000  Uiso   1.00
C150   C     0.85860   0.00721   0.91795   0.00000  Uiso   1.00
C151   C     0.96566   0.97100   0.87870   0.00000  Uiso   1.00
C152   C     0.68015   0.99636   0.76880   0.00000  Uiso   1.00
C153   C     0.63714   0.92245   0.83001   0.00000  Uiso   1.00
C154   C     0.60345   0.83231   0.79874   0.00000  Uiso   1.00
C155   C     0.56677   0.77534   0.86580   0.00000  Uiso   1.00
C156   C     0.65273   0.11027   0.78205   0.00000  Uiso   1.00
C157   C     0.63217   0.17806   0.71044   0.00000  Uiso   1.00
C158   C     0.60862   0.27921   0.73711   0.00000  Uiso   1.00
C159   C     0.74698   0.99687   0.81403   0.00000  Uiso   1.00
C160   C     0.80566   0.96934   0.76931   0.00000  Uiso   1.00
C161   C     0.86146   0.97505   0.82290   0.00000  Uiso   1.00
H162   H     0.67267   0.08045   0.01735   0.00000  Uiso   1.00
H163   H     0.59544   0.92256   0.06543   0.00000  Uiso   1.00
H164   H     0.62416   0.26826   0.97714   0.00000  Uiso   1.00
H165   H     0.79762   0.05957   0.03600   0.00000  Uiso   1.00
H166   H     0.51105   0.73339   0.07688   0.00000  Uiso   1.00
H167   H     0.57163   0.46232   0.89073   0.00000  Uiso   1.00
H168   H     0.93741   0.02227   0.01484   0.00000  Uiso   1.00
H169   H     0.68237   0.97137   0.69492   0.00000  Uiso   1.00
H170   H     0.60567   0.80749   0.72531   0.00000  Uiso   1.00
H171   H     0.63439   0.15320   0.63702   0.00000  Uiso   1.00
H172   H     0.80785   0.94451   0.69588   0.00000  Uiso   1.00
H173   H     0.51935   0.64000   0.80083   0.00000  Uiso   1.00
H174   H     0.57993   0.36893   0.61467   0.00000  Uiso   1.00
H175   H     0.94570   0.92888   0.73878   0.00000  Uiso   1.00
O176   O     0.46455   0.58088   0.96466   0.00000  Uiso   1.00
O177   O     0.54404   0.53721   0.72043   0.00000  Uiso   1.00
O178   O     0.02393   0.95988   0.88326   0.00000  Uiso   1.00
N179   N     0.52354   0.73388   0.00775   0.00000  Uiso   1.00
N180   N     0.58017   0.41539   0.83370   0.00000  Uiso   1.00
N181   N     0.92214   0.00401   0.94973   0.00000  Uiso   1.00
N182   N     0.52801   0.68363   0.85921   0.00000  Uiso   1.00
N183   N     0.58463   0.36513   0.68516   0.00000  Uiso   1.00
N184   N     0.92661   0.95375   0.80119   0.00000  Uiso   1.00
