data_job_02264
_audit_creation_date              2018-12-19
_audit_creation_method            'Materials Studio'
_symmetry_space_group_name_H-M    'P1'
_symmetry_Int_Tables_number       1
_symmetry_cell_setting            triclinic
loop_
_symmetry_equiv_pos_as_xyz
  x,y,z
_cell_length_a                    22.6707
_cell_length_b                    29.8902
_cell_length_c                    17.1020
_cell_angle_alpha                 90.0000
_cell_angle_beta                  152.6958
_cell_angle_gamma                 90.0000
loop_
_atom_site_label
_atom_site_type_symbol
_atom_site_fract_x
_atom_site_fract_y
_atom_site_fract_z
_atom_site_U_iso_or_equiv
_atom_site_adp_type
_atom_site_occupancy
C1     C     0.10014   0.09418   0.91375   0.00000  Uiso   1.00
C2     C     0.04119   0.13943   0.82403   0.00000  Uiso   1.00
C3     C     0.98792   0.16936   0.81420   0.00000  Uiso   1.00
C4     C     0.93896   0.20898   0.72634   0.00000  Uiso   1.00
C5     C     0.84672   0.27781   0.59840   0.00000  Uiso   1.00
C6     C     0.02767   0.05971   0.77961   0.00000  Uiso   1.00
C7     C     0.96306   0.02261   0.73245   0.00000  Uiso   1.00
C8     C     0.90273   0.99511   0.60721   0.00000  Uiso   1.00
C9     C     0.78959   0.94016   0.41041   0.00000  Uiso   1.00
C10    C     0.23687   0.09513   0.04265   0.00000  Uiso   1.00
C11    C     0.34817   0.08781   0.21666   0.00000  Uiso   1.00
C12    C     0.46398   0.09012   0.31289   0.00000  Uiso   1.00
C13    C     0.67566   0.09017   0.52449   0.00000  Uiso   1.00
C14    C     0.10791   0.11130   0.77522   0.00000  Uiso   1.00
C15    C     0.04541   0.14873   0.74878   0.00000  Uiso   1.00
C16    C     0.99652   0.18831   0.66092   0.00000  Uiso   1.00
C17    C     0.94319   0.21829   0.65096   0.00000  Uiso   1.00
C18    C     0.03189   0.06901   0.70436   0.00000  Uiso   1.00
C19    C     0.97165   0.04155   0.57918   0.00000  Uiso   1.00
C20    C     0.90696   0.00443   0.53183   0.00000  Uiso   1.00
C21    C     0.24110   0.10443   0.96741   0.00000  Uiso   1.00
C22    C     0.35676   0.10675   0.06338   0.00000  Uiso   1.00
C23    C     0.46821   0.09944   0.23750   0.00000  Uiso   1.00
H24    H     0.09685   0.08694   0.97233   0.00000  Uiso   1.00
H25    H     0.98467   0.16215   0.87243   0.00000  Uiso   1.00
H26    H     0.95982   0.01542   0.79071   0.00000  Uiso   1.00
H27    H     0.34487   0.08061   0.27484   0.00000  Uiso   1.00
H28    H     0.86211   0.24964   0.72844   0.00000  Uiso   1.00
H29    H     0.80975   0.94024   0.55618   0.00000  Uiso   1.00
H30    H     0.62170   0.07770   0.57707   0.00000  Uiso   1.00
H31    H     0.11119   0.11854   0.71663   0.00000  Uiso   1.00
H32    H     0.99980   0.19549   0.60271   0.00000  Uiso   1.00
H33    H     0.97494   0.04876   0.52098   0.00000  Uiso   1.00
H34    H     0.35999   0.11395   0.00511   0.00000  Uiso   1.00
H35    H     0.87438   0.27670   0.50951   0.00000  Uiso   1.00
H36    H     0.82203   0.96729   0.33725   0.00000  Uiso   1.00
H37    H     0.63397   0.10476   0.35814   0.00000  Uiso   1.00
O38    O     0.79467   0.31321   0.54860   0.00000  Uiso   1.00
O39    O     0.72600   0.90728   0.32262   0.00000  Uiso   1.00
O40    O     0.79125   0.08764   0.66200   0.00000  Uiso   1.00
N41    N     0.88031   0.24545   0.69258   0.00000  Uiso   1.00
N42    N     0.83134   0.95618   0.53150   0.00000  Uiso   1.00
N43    N     0.59044   0.08469   0.48594   0.00000  Uiso   1.00
N44    N     0.88691   0.26001   0.57478   0.00000  Uiso   1.00
N45    N     0.83795   0.97074   0.41370   0.00000  Uiso   1.00
N46    N     0.59705   0.09925   0.36814   0.00000  Uiso   1.00
C47    C     0.61268   0.62760   0.98124   0.00000  Uiso   1.00
C48    C     0.56688   0.67582   0.91878   0.00000  Uiso   1.00
C49    C     0.51452   0.70191   0.91619   0.00000  Uiso   1.00
C50    C     0.47853   0.74521   0.85422   0.00000  Uiso   1.00
C51    C     0.40494   0.81756   0.76586   0.00000  Uiso   1.00
C52    C     0.53851   0.60065   0.83306   0.00000  Uiso   1.00
C53    C     0.46231   0.56353   0.75844   0.00000  Uiso   1.00
C54    C     0.40246   0.54355   0.62432   0.00000  Uiso   1.00
C55    C     0.28490   0.49917   0.40298   0.00000  Uiso   1.00
C56    C     0.75266   0.62725   0.11958   0.00000  Uiso   1.00
C57    C     0.85652   0.61248   0.28586   0.00000  Uiso   1.00
C58    C     0.97697   0.61488   0.39296   0.00000  Uiso   1.00
C59    C     0.19191   0.61180   0.61648   0.00000  Uiso   1.00
C60    C     0.64190   0.65813   0.87577   0.00000  Uiso   1.00
C61    C     0.58275   0.69240   0.86148   0.00000  Uiso   1.00
C62    C     0.54684   0.73568   0.79950   0.00000  Uiso   1.00
C63    C     0.49443   0.76182   0.79683   0.00000  Uiso   1.00
C64    C     0.55437   0.61723   0.77577   0.00000  Uiso   1.00
C65    C     0.49463   0.59730   0.64174   0.00000  Uiso   1.00
C66    C     0.41835   0.56016   0.56692   0.00000  Uiso   1.00
C67    C     0.76853   0.64383   0.06230   0.00000  Uiso   1.00
C68    C     0.88884   0.64625   0.16916   0.00000  Uiso   1.00
C69    C     0.99287   0.63149   0.33556   0.00000  Uiso   1.00
H70    H     0.60033   0.61470   0.02583   0.00000  Uiso   1.00
H71    H     0.50224   0.68907   0.96053   0.00000  Uiso   1.00
H72    H     0.45006   0.55071   0.80281   0.00000  Uiso   1.00
H73    H     0.84421   0.59965   0.33014   0.00000  Uiso   1.00
H74    H     0.40045   0.77882   0.86280   0.00000  Uiso   1.00
H75    H     0.29046   0.48708   0.53028   0.00000  Uiso   1.00
H76    H     0.12160   0.59028   0.64227   0.00000  Uiso   1.00
H77    H     0.65425   0.67103   0.83116   0.00000  Uiso   1.00
H78    H     0.55913   0.74850   0.75517   0.00000  Uiso   1.00
H79    H     0.50694   0.61014   0.59745   0.00000  Uiso   1.00
H80    H     0.90108   0.65908   0.12478   0.00000  Uiso   1.00
H81    H     0.44662   0.82706   0.69612   0.00000  Uiso   1.00
H82    H     0.33662   0.53531   0.36360   0.00000  Uiso   1.00
H83    H     0.16776   0.63852   0.47559   0.00000  Uiso   1.00
O84    O     0.35995   0.85288   0.73293   0.00000  Uiso   1.00
O85    O     0.21566   0.47011   0.29670   0.00000  Uiso   1.00
O86    O     0.30609   0.60552   0.75560   0.00000  Uiso   1.00
N87    N     0.42440   0.77955   0.83403   0.00000  Uiso   1.00
N88    N     0.32154   0.50679   0.52312   0.00000  Uiso   1.00
N89    N     0.09858   0.60327   0.56273   0.00000  Uiso   1.00
N90    N     0.44924   0.80550   0.74434   0.00000  Uiso   1.00
N91    N     0.34638   0.53274   0.43344   0.00000  Uiso   1.00
N92    N     0.12342   0.62922   0.47304   0.00000  Uiso   1.00
C93    C     0.89986   0.59418   0.58625   0.00000  Uiso   1.00
C94    C     0.95881   0.63943   0.67597   0.00000  Uiso   1.00
C95    C     0.01208   0.66936   0.68580   0.00000  Uiso   1.00
C96    C     0.06104   0.70898   0.77366   0.00000  Uiso   1.00
C97    C     0.15328   0.77781   0.90160   0.00000  Uiso   1.00
C98    C     0.97233   0.55971   0.72039   0.00000  Uiso   1.00
C99    C     0.03694   0.52261   0.76755   0.00000  Uiso   1.00
C100   C     0.09727   0.49511   0.89279   0.00000  Uiso   1.00
C101   C     0.21041   0.44016   0.08959   0.00000  Uiso   1.00
C102   C     0.76313   0.59513   0.45735   0.00000  Uiso   1.00
C103   C     0.65183   0.58781   0.28334   0.00000  Uiso   1.00
C104   C     0.53602   0.59012   0.18711   0.00000  Uiso   1.00
C105   C     0.32434   0.59017   0.97551   0.00000  Uiso   1.00
C106   C     0.89209   0.61130   0.72478   0.00000  Uiso   1.00
C107   C     0.95459   0.64873   0.75122   0.00000  Uiso   1.00
C108   C     0.00348   0.68831   0.83908   0.00000  Uiso   1.00
C109   C     0.05681   0.71829   0.84904   0.00000  Uiso   1.00
C110   C     0.96811   0.56901   0.79564   0.00000  Uiso   1.00
C111   C     0.02835   0.54155   0.92082   0.00000  Uiso   1.00
C112   C     0.09304   0.50443   0.96817   0.00000  Uiso   1.00
C113   C     0.75890   0.60443   0.53259   0.00000  Uiso   1.00
C114   C     0.64324   0.60675   0.43662   0.00000  Uiso   1.00
C115   C     0.53179   0.59944   0.26250   0.00000  Uiso   1.00
H116   H     0.90315   0.58694   0.52767   0.00000  Uiso   1.00
H117   H     0.01533   0.66215   0.62757   0.00000  Uiso   1.00
H118   H     0.04018   0.51542   0.70929   0.00000  Uiso   1.00
H119   H     0.65513   0.58061   0.22516   0.00000  Uiso   1.00
H120   H     0.13789   0.74964   0.77156   0.00000  Uiso   1.00
H121   H     0.19025   0.44024   0.94382   0.00000  Uiso   1.00
H122   H     0.37830   0.57770   0.92293   0.00000  Uiso   1.00
H123   H     0.88881   0.61854   0.78337   0.00000  Uiso   1.00
H124   H     0.00020   0.69549   0.89729   0.00000  Uiso   1.00
H125   H     0.02506   0.54876   0.97902   0.00000  Uiso   1.00
H126   H     0.64001   0.61395   0.49489   0.00000  Uiso   1.00
H127   H     0.12562   0.77670   0.99049   0.00000  Uiso   1.00
H128   H     0.17797   0.46729   0.16275   0.00000  Uiso   1.00
H129   H     0.36603   0.60476   0.14186   0.00000  Uiso   1.00
O130   O     0.20533   0.81321   0.95140   0.00000  Uiso   1.00
O131   O     0.27400   0.40728   0.17738   0.00000  Uiso   1.00
O132   O     0.20875   0.58764   0.83800   0.00000  Uiso   1.00
N133   N     0.11969   0.74545   0.80742   0.00000  Uiso   1.00
N134   N     0.16866   0.45618   0.96850   0.00000  Uiso   1.00
N135   N     0.40956   0.58469   0.01406   0.00000  Uiso   1.00
N136   N     0.11309   0.76001   0.92522   0.00000  Uiso   1.00
N137   N     0.16205   0.47074   0.08630   0.00000  Uiso   1.00
N138   N     0.40295   0.59925   0.13186   0.00000  Uiso   1.00
C139   C     0.38732   0.12760   0.51876   0.00000  Uiso   1.00
C140   C     0.43312   0.17582   0.58122   0.00000  Uiso   1.00
C141   C     0.48548   0.20191   0.58381   0.00000  Uiso   1.00
C142   C     0.52147   0.24521   0.64578   0.00000  Uiso   1.00
C143   C     0.59506   0.31756   0.73414   0.00000  Uiso   1.00
C144   C     0.46149   0.10065   0.66694   0.00000  Uiso   1.00
C145   C     0.53769   0.06353   0.74156   0.00000  Uiso   1.00
C146   C     0.59754   0.04355   0.87568   0.00000  Uiso   1.00
C147   C     0.71510   0.99917   0.09702   0.00000  Uiso   1.00
C148   C     0.24734   0.12725   0.38042   0.00000  Uiso   1.00
C149   C     0.14348   0.11248   0.21414   0.00000  Uiso   1.00
C150   C     0.02303   0.11488   0.10704   0.00000  Uiso   1.00
C151   C     0.80809   0.11180   0.88352   0.00000  Uiso   1.00
C152   C     0.35810   0.15813   0.62423   0.00000  Uiso   1.00
C153   C     0.41725   0.19240   0.63852   0.00000  Uiso   1.00
C154   C     0.45316   0.23568   0.70050   0.00000  Uiso   1.00
C155   C     0.50557   0.26182   0.70317   0.00000  Uiso   1.00
C156   C     0.44563   0.11723   0.72423   0.00000  Uiso   1.00
C157   C     0.50537   0.09730   0.85826   0.00000  Uiso   1.00
C158   C     0.58165   0.06016   0.93308   0.00000  Uiso   1.00
C159   C     0.23147   0.14383   0.43770   0.00000  Uiso   1.00
C160   C     0.11116   0.14625   0.33084   0.00000  Uiso   1.00
C161   C     0.00713   0.13149   0.16444   0.00000  Uiso   1.00
H162   H     0.39967   0.11470   0.47417   0.00000  Uiso   1.00
H163   H     0.49776   0.18907   0.53947   0.00000  Uiso   1.00
H164   H     0.54994   0.05071   0.69719   0.00000  Uiso   1.00
H165   H     0.15579   0.09965   0.16986   0.00000  Uiso   1.00
H166   H     0.59955   0.27882   0.63720   0.00000  Uiso   1.00
H167   H     0.70954   0.98708   0.96972   0.00000  Uiso   1.00
H168   H     0.87840   0.09028   0.85773   0.00000  Uiso   1.00
H169   H     0.34575   0.17103   0.66884   0.00000  Uiso   1.00
H170   H     0.44087   0.24850   0.74483   0.00000  Uiso   1.00
H171   H     0.49306   0.11014   0.90255   0.00000  Uiso   1.00
H172   H     0.09892   0.15908   0.37522   0.00000  Uiso   1.00
H173   H     0.55338   0.32706   0.80388   0.00000  Uiso   1.00
H174   H     0.66338   0.03531   0.13640   0.00000  Uiso   1.00
H175   H     0.83224   0.13852   0.02441   0.00000  Uiso   1.00
O176   O     0.64005   0.35288   0.76707   0.00000  Uiso   1.00
O177   O     0.78434   0.97011   0.20330   0.00000  Uiso   1.00
O178   O     0.69391   0.10552   0.74440   0.00000  Uiso   1.00
N179   N     0.57560   0.27955   0.66597   0.00000  Uiso   1.00
N180   N     0.67846   0.00679   0.97688   0.00000  Uiso   1.00
N181   N     0.90142   0.10327   0.93727   0.00000  Uiso   1.00
N182   N     0.55076   0.30550   0.75566   0.00000  Uiso   1.00
N183   N     0.65362   0.03274   0.06656   0.00000  Uiso   1.00
N184   N     0.87658   0.12922   0.02696   0.00000  Uiso   1.00
C185   C     0.89986   0.90582   0.08625   0.00000  Uiso   1.00
C186   C     0.95881   0.86057   0.17597   0.00000  Uiso   1.00
C187   C     0.01208   0.83064   0.18580   0.00000  Uiso   1.00
C188   C     0.06104   0.79102   0.27366   0.00000  Uiso   1.00
C189   C     0.15328   0.72219   0.40160   0.00000  Uiso   1.00
C190   C     0.97233   0.94029   0.22039   0.00000  Uiso   1.00
C191   C     0.03694   0.97739   0.26755   0.00000  Uiso   1.00
C192   C     0.09727   0.00489   0.39279   0.00000  Uiso   1.00
C193   C     0.21041   0.05984   0.58959   0.00000  Uiso   1.00
C194   C     0.76313   0.90487   0.95735   0.00000  Uiso   1.00
C195   C     0.65183   0.91219   0.78334   0.00000  Uiso   1.00
C196   C     0.53602   0.90988   0.68711   0.00000  Uiso   1.00
C197   C     0.32434   0.90983   0.47551   0.00000  Uiso   1.00
C198   C     0.89209   0.88870   0.22478   0.00000  Uiso   1.00
C199   C     0.95459   0.85127   0.25122   0.00000  Uiso   1.00
C200   C     0.00348   0.81169   0.33908   0.00000  Uiso   1.00
C201   C     0.05681   0.78171   0.34904   0.00000  Uiso   1.00
C202   C     0.96811   0.93099   0.29564   0.00000  Uiso   1.00
C203   C     0.02835   0.95845   0.42082   0.00000  Uiso   1.00
C204   C     0.09304   0.99557   0.46817   0.00000  Uiso   1.00
C205   C     0.75890   0.89557   0.03259   0.00000  Uiso   1.00
C206   C     0.64324   0.89325   0.93662   0.00000  Uiso   1.00
C207   C     0.53179   0.90056   0.76250   0.00000  Uiso   1.00
H208   H     0.90315   0.91306   0.02767   0.00000  Uiso   1.00
H209   H     0.01533   0.83785   0.12757   0.00000  Uiso   1.00
H210   H     0.04018   0.98458   0.20929   0.00000  Uiso   1.00
H211   H     0.65513   0.91939   0.72516   0.00000  Uiso   1.00
H212   H     0.13789   0.75036   0.27156   0.00000  Uiso   1.00
H213   H     0.19025   0.05976   0.44382   0.00000  Uiso   1.00
H214   H     0.37830   0.92230   0.42293   0.00000  Uiso   1.00
H215   H     0.88881   0.88146   0.28337   0.00000  Uiso   1.00
H216   H     0.00020   0.80451   0.39729   0.00000  Uiso   1.00
H217   H     0.02506   0.95124   0.47902   0.00000  Uiso   1.00
H218   H     0.64001   0.88605   0.99489   0.00000  Uiso   1.00
H219   H     0.12562   0.72330   0.49049   0.00000  Uiso   1.00
H220   H     0.17797   0.03271   0.66275   0.00000  Uiso   1.00
H221   H     0.36603   0.89524   0.64186   0.00000  Uiso   1.00
O222   O     0.20533   0.68679   0.45140   0.00000  Uiso   1.00
O223   O     0.27400   0.09272   0.67738   0.00000  Uiso   1.00
O224   O     0.20875   0.91236   0.33800   0.00000  Uiso   1.00
N225   N     0.11969   0.75455   0.30742   0.00000  Uiso   1.00
N226   N     0.16866   0.04382   0.46850   0.00000  Uiso   1.00
N227   N     0.40956   0.91531   0.51406   0.00000  Uiso   1.00
N228   N     0.11309   0.73999   0.42522   0.00000  Uiso   1.00
N229   N     0.16205   0.02926   0.58630   0.00000  Uiso   1.00
N230   N     0.40295   0.90075   0.63186   0.00000  Uiso   1.00
C231   C     0.38732   0.37240   0.01876   0.00000  Uiso   1.00
C232   C     0.43312   0.32418   0.08122   0.00000  Uiso   1.00
C233   C     0.48548   0.29809   0.08381   0.00000  Uiso   1.00
C234   C     0.52147   0.25479   0.14578   0.00000  Uiso   1.00
C235   C     0.59506   0.18244   0.23414   0.00000  Uiso   1.00
C236   C     0.46149   0.39935   0.16694   0.00000  Uiso   1.00
C237   C     0.53769   0.43647   0.24156   0.00000  Uiso   1.00
C238   C     0.59754   0.45645   0.37568   0.00000  Uiso   1.00
C239   C     0.71510   0.50083   0.59702   0.00000  Uiso   1.00
C240   C     0.24734   0.37275   0.88042   0.00000  Uiso   1.00
C241   C     0.14348   0.38752   0.71414   0.00000  Uiso   1.00
C242   C     0.02303   0.38512   0.60704   0.00000  Uiso   1.00
C243   C     0.80809   0.38820   0.38352   0.00000  Uiso   1.00
C244   C     0.35810   0.34187   0.12423   0.00000  Uiso   1.00
C245   C     0.41725   0.30760   0.13852   0.00000  Uiso   1.00
C246   C     0.45316   0.26432   0.20050   0.00000  Uiso   1.00
C247   C     0.50557   0.23818   0.20317   0.00000  Uiso   1.00
C248   C     0.44563   0.38277   0.22423   0.00000  Uiso   1.00
C249   C     0.50537   0.40270   0.35826   0.00000  Uiso   1.00
C250   C     0.58165   0.43984   0.43308   0.00000  Uiso   1.00
C251   C     0.23147   0.35617   0.93770   0.00000  Uiso   1.00
C252   C     0.11116   0.35375   0.83084   0.00000  Uiso   1.00
C253   C     0.00713   0.36851   0.66444   0.00000  Uiso   1.00
H254   H     0.39967   0.38530   0.97417   0.00000  Uiso   1.00
H255   H     0.49776   0.31093   0.03947   0.00000  Uiso   1.00
H256   H     0.54994   0.44929   0.19719   0.00000  Uiso   1.00
H257   H     0.15579   0.40035   0.66986   0.00000  Uiso   1.00
H258   H     0.59955   0.22118   0.13720   0.00000  Uiso   1.00
H259   H     0.70954   0.51292   0.46972   0.00000  Uiso   1.00
H260   H     0.87840   0.40972   0.35773   0.00000  Uiso   1.00
H261   H     0.34575   0.32897   0.16884   0.00000  Uiso   1.00
H262   H     0.44087   0.25150   0.24483   0.00000  Uiso   1.00
H263   H     0.49306   0.38986   0.40255   0.00000  Uiso   1.00
H264   H     0.09892   0.34092   0.87522   0.00000  Uiso   1.00
H265   H     0.55338   0.17294   0.30388   0.00000  Uiso   1.00
H266   H     0.66338   0.46469   0.63640   0.00000  Uiso   1.00
H267   H     0.83224   0.36148   0.52441   0.00000  Uiso   1.00
O268   O     0.64005   0.14712   0.26707   0.00000  Uiso   1.00
O269   O     0.78434   0.52989   0.70330   0.00000  Uiso   1.00
O270   O     0.69391   0.39448   0.24440   0.00000  Uiso   1.00
N271   N     0.57560   0.22045   0.16597   0.00000  Uiso   1.00
N272   N     0.67846   0.49321   0.47688   0.00000  Uiso   1.00
N273   N     0.90142   0.39673   0.43727   0.00000  Uiso   1.00
N274   N     0.55076   0.19450   0.25566   0.00000  Uiso   1.00
N275   N     0.65362   0.46726   0.56656   0.00000  Uiso   1.00
N276   N     0.87658   0.37078   0.52696   0.00000  Uiso   1.00
C277   C     0.10014   0.40582   0.41375   0.00000  Uiso   1.00
C278   C     0.04119   0.36057   0.32403   0.00000  Uiso   1.00
C279   C     0.98792   0.33064   0.31420   0.00000  Uiso   1.00
C280   C     0.93896   0.29102   0.22634   0.00000  Uiso   1.00
C281   C     0.84672   0.22219   0.09840   0.00000  Uiso   1.00
C282   C     0.02767   0.44029   0.27961   0.00000  Uiso   1.00
C283   C     0.96306   0.47739   0.23245   0.00000  Uiso   1.00
C284   C     0.90273   0.50489   0.10721   0.00000  Uiso   1.00
C285   C     0.78959   0.55984   0.91041   0.00000  Uiso   1.00
C286   C     0.23687   0.40487   0.54265   0.00000  Uiso   1.00
C287   C     0.34817   0.41219   0.71666   0.00000  Uiso   1.00
C288   C     0.46398   0.40988   0.81289   0.00000  Uiso   1.00
C289   C     0.67566   0.40983   0.02449   0.00000  Uiso   1.00
C290   C     0.10791   0.38870   0.27522   0.00000  Uiso   1.00
C291   C     0.04541   0.35127   0.24878   0.00000  Uiso   1.00
C292   C     0.99652   0.31169   0.16092   0.00000  Uiso   1.00
C293   C     0.94319   0.28171   0.15096   0.00000  Uiso   1.00
C294   C     0.03189   0.43099   0.20436   0.00000  Uiso   1.00
C295   C     0.97165   0.45845   0.07918   0.00000  Uiso   1.00
C296   C     0.90696   0.49557   0.03183   0.00000  Uiso   1.00
C297   C     0.24110   0.39557   0.46741   0.00000  Uiso   1.00
C298   C     0.35676   0.39325   0.56338   0.00000  Uiso   1.00
C299   C     0.46821   0.40056   0.73750   0.00000  Uiso   1.00
H300   H     0.09685   0.41306   0.47233   0.00000  Uiso   1.00
H301   H     0.98467   0.33785   0.37243   0.00000  Uiso   1.00
H302   H     0.95982   0.48458   0.29071   0.00000  Uiso   1.00
H303   H     0.34487   0.41939   0.77484   0.00000  Uiso   1.00
H304   H     0.86211   0.25036   0.22844   0.00000  Uiso   1.00
H305   H     0.80975   0.55976   0.05618   0.00000  Uiso   1.00
H306   H     0.62170   0.42230   0.07707   0.00000  Uiso   1.00
H307   H     0.11119   0.38146   0.21663   0.00000  Uiso   1.00
H308   H     0.99980   0.30451   0.10271   0.00000  Uiso   1.00
H309   H     0.97494   0.45124   0.02098   0.00000  Uiso   1.00
H310   H     0.35999   0.38605   0.50511   0.00000  Uiso   1.00
H311   H     0.87438   0.22330   0.00951   0.00000  Uiso   1.00
H312   H     0.82203   0.53271   0.83725   0.00000  Uiso   1.00
H313   H     0.63397   0.39524   0.85814   0.00000  Uiso   1.00
O314   O     0.79467   0.18679   0.04860   0.00000  Uiso   1.00
O315   O     0.72600   0.59272   0.82262   0.00000  Uiso   1.00
O316   O     0.79125   0.41236   0.16200   0.00000  Uiso   1.00
N317   N     0.88031   0.25455   0.19258   0.00000  Uiso   1.00
N318   N     0.83134   0.54382   0.03150   0.00000  Uiso   1.00
N319   N     0.59044   0.41531   0.98594   0.00000  Uiso   1.00
N320   N     0.88691   0.23999   0.07478   0.00000  Uiso   1.00
N321   N     0.83795   0.52926   0.91370   0.00000  Uiso   1.00
N322   N     0.59705   0.40075   0.86814   0.00000  Uiso   1.00
C323   C     0.61268   0.87240   0.48124   0.00000  Uiso   1.00
C324   C     0.56688   0.82418   0.41878   0.00000  Uiso   1.00
C325   C     0.51452   0.79809   0.41619   0.00000  Uiso   1.00
C326   C     0.47853   0.75479   0.35422   0.00000  Uiso   1.00
C327   C     0.40494   0.68244   0.26586   0.00000  Uiso   1.00
C328   C     0.53851   0.89935   0.33306   0.00000  Uiso   1.00
C329   C     0.46231   0.93647   0.25844   0.00000  Uiso   1.00
C330   C     0.40246   0.95645   0.12432   0.00000  Uiso   1.00
C331   C     0.28490   0.00083   0.90298   0.00000  Uiso   1.00
C332   C     0.75266   0.87275   0.61958   0.00000  Uiso   1.00
C333   C     0.85652   0.88752   0.78586   0.00000  Uiso   1.00
C334   C     0.97697   0.88512   0.89296   0.00000  Uiso   1.00
C335   C     0.19191   0.88820   0.11648   0.00000  Uiso   1.00
C336   C     0.64190   0.84187   0.37577   0.00000  Uiso   1.00
C337   C     0.58275   0.80760   0.36148   0.00000  Uiso   1.00
C338   C     0.54684   0.76432   0.29950   0.00000  Uiso   1.00
C339   C     0.49443   0.73818   0.29683   0.00000  Uiso   1.00
C340   C     0.55437   0.88277   0.27577   0.00000  Uiso   1.00
C341   C     0.49463   0.90270   0.14174   0.00000  Uiso   1.00
C342   C     0.41835   0.93984   0.06692   0.00000  Uiso   1.00
C343   C     0.76853   0.85617   0.56230   0.00000  Uiso   1.00
C344   C     0.88884   0.85375   0.66916   0.00000  Uiso   1.00
C345   C     0.99287   0.86851   0.83556   0.00000  Uiso   1.00
H346   H     0.60033   0.88530   0.52583   0.00000  Uiso   1.00
H347   H     0.50224   0.81093   0.46053   0.00000  Uiso   1.00
H348   H     0.45006   0.94929   0.30281   0.00000  Uiso   1.00
H349   H     0.84421   0.90035   0.83014   0.00000  Uiso   1.00
H350   H     0.40045   0.72118   0.36280   0.00000  Uiso   1.00
H351   H     0.29046   0.01292   0.03028   0.00000  Uiso   1.00
H352   H     0.12160   0.90972   0.14227   0.00000  Uiso   1.00
H353   H     0.65425   0.82897   0.33116   0.00000  Uiso   1.00
H354   H     0.55913   0.75150   0.25517   0.00000  Uiso   1.00
H355   H     0.50694   0.88986   0.09745   0.00000  Uiso   1.00
H356   H     0.90108   0.84092   0.62478   0.00000  Uiso   1.00
H357   H     0.44662   0.67294   0.19612   0.00000  Uiso   1.00
H358   H     0.33662   0.96469   0.86360   0.00000  Uiso   1.00
H359   H     0.16776   0.86148   0.97559   0.00000  Uiso   1.00
O360   O     0.35995   0.64712   0.23293   0.00000  Uiso   1.00
O361   O     0.21566   0.02989   0.79670   0.00000  Uiso   1.00
O362   O     0.30609   0.89448   0.25560   0.00000  Uiso   1.00
N363   N     0.42440   0.72045   0.33403   0.00000  Uiso   1.00
N364   N     0.32154   0.99321   0.02312   0.00000  Uiso   1.00
N365   N     0.09858   0.89673   0.06273   0.00000  Uiso   1.00
N366   N     0.44924   0.69450   0.24434   0.00000  Uiso   1.00
N367   N     0.34638   0.96726   0.93344   0.00000  Uiso   1.00
N368   N     0.12342   0.87078   0.97304   0.00000  Uiso   1.00
