data_job_03507
_audit_creation_date              2018-12-19
_audit_creation_method            'Materials Studio'
_symmetry_space_group_name_H-M    'P1'
_symmetry_Int_Tables_number       1
_symmetry_cell_setting            triclinic
loop_
_symmetry_equiv_pos_as_xyz
  x,y,z
_cell_length_a                    19.6534
_cell_length_b                    11.9371
_cell_length_c                    9.3206
_cell_angle_alpha                 90.0000
_cell_angle_beta                  90.0000
_cell_angle_gamma                 90.0000
loop_
_atom_site_label
_atom_site_type_symbol
_atom_site_fract_x
_atom_site_fract_y
_atom_site_fract_z
_atom_site_U_iso_or_equiv
_atom_site_adp_type
_atom_site_occupancy
C1     C     0.06220   0.30742   0.69094   0.00000  Uiso   1.00
C2     C     0.02085   0.31846   0.82865   0.00000  Uiso   1.00
C3     C     0.95489   0.35922   0.83854   0.00000  Uiso   1.00
C4     C     0.92593   0.36263   0.97434   0.00000  Uiso   1.00
C5     C     0.85630   0.38531   0.16972   0.00000  Uiso   1.00
C6     C     0.12753   0.37355   0.71577   0.00000  Uiso   1.00
C7     C     0.15127   0.46062   0.63073   0.00000  Uiso   1.00
C8     C     0.21212   0.51040   0.67150   0.00000  Uiso   1.00
C9     C     0.30814   0.61856   0.69156   0.00000  Uiso   1.00
C10    C     0.08336   0.18473   0.68161   0.00000  Uiso   1.00
C11    C     0.06998   0.11305   0.56783   0.00000  Uiso   1.00
C12    C     0.09365   0.00386   0.57982   0.00000  Uiso   1.00
C13    C     0.12109   0.81886   0.54683   0.00000  Uiso   1.00
C14    C     0.12807   0.24098   0.91452   0.00000  Uiso   1.00
C15    C     0.05663   0.28237   0.95010   0.00000  Uiso   1.00
C16    C     0.02777   0.28572   0.08592   0.00000  Uiso   1.00
C17    C     0.96177   0.32648   0.09600   0.00000  Uiso   1.00
C18    C     0.16331   0.33747   0.83721   0.00000  Uiso   1.00
C19    C     0.22415   0.38712   0.87811   0.00000  Uiso   1.00
C20    C     0.24797   0.47425   0.79316   0.00000  Uiso   1.00
C21    C     0.11914   0.14865   0.80305   0.00000  Uiso   1.00
C22    C     0.14285   0.03955   0.81521   0.00000  Uiso   1.00
C23    C     0.12950   0.96771   0.70148   0.00000  Uiso   1.00
H24    H     0.03435   0.33551   0.59639   0.00000  Uiso   1.00
H25    H     0.92722   0.38714   0.74453   0.00000  Uiso   1.00
H26    H     0.12358   0.48852   0.53675   0.00000  Uiso   1.00
H27    H     0.04229   0.14100   0.47387   0.00000  Uiso   1.00
H28    H     0.82423   0.42851   0.96235   0.00000  Uiso   1.00
H29    H     0.23827   0.64224   0.52420   0.00000  Uiso   1.00
H30    H     0.06686   0.90943   0.39158   0.00000  Uiso   1.00
H31    H     0.15593   0.21289   0.00907   0.00000  Uiso   1.00
H32    H     0.05547   0.25779   0.17988   0.00000  Uiso   1.00
H33    H     0.25182   0.35917   0.97209   0.00000  Uiso   1.00
H34    H     0.17054   0.01166   0.90920   0.00000  Uiso   1.00
H35    H     0.92832   0.32353   0.31569   0.00000  Uiso   1.00
H36    H     0.34236   0.53726   0.87753   0.00000  Uiso   1.00
H37    H     0.17095   0.80446   0.74492   0.00000  Uiso   1.00
O38    O     0.80801   0.40781   0.24394   0.00000  Uiso   1.00
O39    O     0.35121   0.68819   0.66908   0.00000  Uiso   1.00
O40    O     0.12632   0.72677   0.49510   0.00000  Uiso   1.00
N41    N     0.86251   0.39762   0.02206   0.00000  Uiso   1.00
N42    N     0.24961   0.59746   0.61243   0.00000  Uiso   1.00
N43    N     0.08937   0.91235   0.48843   0.00000  Uiso   1.00
N44    N     0.91852   0.34113   0.21219   0.00000  Uiso   1.00
N45    N     0.30562   0.54097   0.80256   0.00000  Uiso   1.00
N46    N     0.14538   0.85586   0.67856   0.00000  Uiso   1.00
C47    C     0.93780   0.69258   0.69094   0.00000  Uiso   1.00
C48    C     0.97915   0.68154   0.82865   0.00000  Uiso   1.00
C49    C     0.04511   0.64078   0.83854   0.00000  Uiso   1.00
C50    C     0.07407   0.63737   0.97434   0.00000  Uiso   1.00
C51    C     0.14370   0.61469   0.16972   0.00000  Uiso   1.00
C52    C     0.87247   0.62645   0.71577   0.00000  Uiso   1.00
C53    C     0.84873   0.53938   0.63073   0.00000  Uiso   1.00
C54    C     0.78788   0.48960   0.67150   0.00000  Uiso   1.00
C55    C     0.69186   0.38144   0.69156   0.00000  Uiso   1.00
C56    C     0.91664   0.81527   0.68161   0.00000  Uiso   1.00
C57    C     0.93002   0.88695   0.56783   0.00000  Uiso   1.00
C58    C     0.90635   0.99614   0.57982   0.00000  Uiso   1.00
C59    C     0.87891   0.18114   0.54683   0.00000  Uiso   1.00
C60    C     0.87193   0.75902   0.91452   0.00000  Uiso   1.00
C61    C     0.94337   0.71763   0.95010   0.00000  Uiso   1.00
C62    C     0.97223   0.71428   0.08592   0.00000  Uiso   1.00
C63    C     0.03823   0.67352   0.09600   0.00000  Uiso   1.00
C64    C     0.83669   0.66253   0.83721   0.00000  Uiso   1.00
C65    C     0.77585   0.61288   0.87811   0.00000  Uiso   1.00
C66    C     0.75203   0.52575   0.79316   0.00000  Uiso   1.00
C67    C     0.88086   0.85135   0.80305   0.00000  Uiso   1.00
C68    C     0.85715   0.96045   0.81521   0.00000  Uiso   1.00
C69    C     0.87050   0.03229   0.70148   0.00000  Uiso   1.00
H70    H     0.96565   0.66449   0.59639   0.00000  Uiso   1.00
H71    H     0.07278   0.61286   0.74453   0.00000  Uiso   1.00
H72    H     0.87642   0.51148   0.53675   0.00000  Uiso   1.00
H73    H     0.95771   0.85900   0.47387   0.00000  Uiso   1.00
H74    H     0.17577   0.57149   0.96235   0.00000  Uiso   1.00
H75    H     0.76173   0.35776   0.52420   0.00000  Uiso   1.00
H76    H     0.93314   0.09057   0.39158   0.00000  Uiso   1.00
H77    H     0.84407   0.78711   0.00907   0.00000  Uiso   1.00
H78    H     0.94453   0.74221   0.17988   0.00000  Uiso   1.00
H79    H     0.74818   0.64083   0.97209   0.00000  Uiso   1.00
H80    H     0.82946   0.98834   0.90920   0.00000  Uiso   1.00
H81    H     0.07168   0.67647   0.31569   0.00000  Uiso   1.00
H82    H     0.65764   0.46274   0.87753   0.00000  Uiso   1.00
H83    H     0.82905   0.19554   0.74492   0.00000  Uiso   1.00
O84    O     0.19199   0.59219   0.24394   0.00000  Uiso   1.00
O85    O     0.64879   0.31181   0.66908   0.00000  Uiso   1.00
O86    O     0.87368   0.27323   0.49510   0.00000  Uiso   1.00
N87    N     0.13749   0.60238   0.02206   0.00000  Uiso   1.00
N88    N     0.75039   0.40254   0.61243   0.00000  Uiso   1.00
N89    N     0.91063   0.08765   0.48843   0.00000  Uiso   1.00
N90    N     0.08148   0.65887   0.21219   0.00000  Uiso   1.00
N91    N     0.69438   0.45903   0.80256   0.00000  Uiso   1.00
N92    N     0.85462   0.14414   0.67856   0.00000  Uiso   1.00
C93    C     0.43780   0.80742   0.30906   0.00000  Uiso   1.00
C94    C     0.47915   0.81846   0.17135   0.00000  Uiso   1.00
C95    C     0.54511   0.85922   0.16146   0.00000  Uiso   1.00
C96    C     0.57407   0.86263   0.02566   0.00000  Uiso   1.00
C97    C     0.64370   0.88531   0.83028   0.00000  Uiso   1.00
C98    C     0.37247   0.87355   0.28423   0.00000  Uiso   1.00
C99    C     0.34873   0.96062   0.36927   0.00000  Uiso   1.00
C100   C     0.28788   0.01040   0.32850   0.00000  Uiso   1.00
C101   C     0.19186   0.11856   0.30844   0.00000  Uiso   1.00
C102   C     0.41664   0.68473   0.31839   0.00000  Uiso   1.00
C103   C     0.43002   0.61305   0.43217   0.00000  Uiso   1.00
C104   C     0.40635   0.50386   0.42018   0.00000  Uiso   1.00
C105   C     0.37891   0.31886   0.45317   0.00000  Uiso   1.00
C106   C     0.37193   0.74098   0.08548   0.00000  Uiso   1.00
C107   C     0.44337   0.78237   0.04990   0.00000  Uiso   1.00
C108   C     0.47223   0.78572   0.91408   0.00000  Uiso   1.00
C109   C     0.53823   0.82648   0.90400   0.00000  Uiso   1.00
C110   C     0.33669   0.83747   0.16279   0.00000  Uiso   1.00
C111   C     0.27585   0.88712   0.12189   0.00000  Uiso   1.00
C112   C     0.25203   0.97425   0.20684   0.00000  Uiso   1.00
C113   C     0.38086   0.64865   0.19695   0.00000  Uiso   1.00
C114   C     0.35715   0.53955   0.18479   0.00000  Uiso   1.00
C115   C     0.37050   0.46771   0.29852   0.00000  Uiso   1.00
H116   H     0.46565   0.83551   0.40361   0.00000  Uiso   1.00
H117   H     0.57278   0.88714   0.25547   0.00000  Uiso   1.00
H118   H     0.37642   0.98852   0.46325   0.00000  Uiso   1.00
H119   H     0.45771   0.64100   0.52613   0.00000  Uiso   1.00
H120   H     0.67577   0.92851   0.03765   0.00000  Uiso   1.00
H121   H     0.26173   0.14224   0.47580   0.00000  Uiso   1.00
H122   H     0.43314   0.40943   0.60842   0.00000  Uiso   1.00
H123   H     0.34407   0.71289   0.99093   0.00000  Uiso   1.00
H124   H     0.44453   0.75779   0.82012   0.00000  Uiso   1.00
H125   H     0.24818   0.85917   0.02791   0.00000  Uiso   1.00
H126   H     0.32946   0.51166   0.09080   0.00000  Uiso   1.00
H127   H     0.57168   0.82353   0.68431   0.00000  Uiso   1.00
H128   H     0.15764   0.03726   0.12247   0.00000  Uiso   1.00
H129   H     0.32905   0.30446   0.25508   0.00000  Uiso   1.00
O130   O     0.69199   0.90781   0.75606   0.00000  Uiso   1.00
O131   O     0.14879   0.18819   0.33092   0.00000  Uiso   1.00
O132   O     0.37368   0.22677   0.50490   0.00000  Uiso   1.00
N133   N     0.63749   0.89762   0.97794   0.00000  Uiso   1.00
N134   N     0.25039   0.09746   0.38757   0.00000  Uiso   1.00
N135   N     0.41063   0.41235   0.51157   0.00000  Uiso   1.00
N136   N     0.58148   0.84113   0.78781   0.00000  Uiso   1.00
N137   N     0.19438   0.04097   0.19744   0.00000  Uiso   1.00
N138   N     0.35462   0.35586   0.32144   0.00000  Uiso   1.00
C139   C     0.56220   0.19258   0.30906   0.00000  Uiso   1.00
C140   C     0.52085   0.18154   0.17135   0.00000  Uiso   1.00
C141   C     0.45489   0.14078   0.16146   0.00000  Uiso   1.00
C142   C     0.42593   0.13737   0.02566   0.00000  Uiso   1.00
C143   C     0.35630   0.11469   0.83028   0.00000  Uiso   1.00
C144   C     0.62753   0.12645   0.28423   0.00000  Uiso   1.00
C145   C     0.65127   0.03938   0.36927   0.00000  Uiso   1.00
C146   C     0.71212   0.98960   0.32850   0.00000  Uiso   1.00
C147   C     0.80814   0.88144   0.30844   0.00000  Uiso   1.00
C148   C     0.58336   0.31527   0.31839   0.00000  Uiso   1.00
C149   C     0.56998   0.38695   0.43217   0.00000  Uiso   1.00
C150   C     0.59365   0.49614   0.42018   0.00000  Uiso   1.00
C151   C     0.62109   0.68114   0.45317   0.00000  Uiso   1.00
C152   C     0.62807   0.25902   0.08548   0.00000  Uiso   1.00
C153   C     0.55663   0.21763   0.04990   0.00000  Uiso   1.00
C154   C     0.52777   0.21428   0.91408   0.00000  Uiso   1.00
C155   C     0.46177   0.17352   0.90400   0.00000  Uiso   1.00
C156   C     0.66331   0.16253   0.16279   0.00000  Uiso   1.00
C157   C     0.72415   0.11288   0.12189   0.00000  Uiso   1.00
C158   C     0.74797   0.02575   0.20684   0.00000  Uiso   1.00
C159   C     0.61914   0.35135   0.19695   0.00000  Uiso   1.00
C160   C     0.64285   0.46045   0.18479   0.00000  Uiso   1.00
C161   C     0.62950   0.53229   0.29852   0.00000  Uiso   1.00
H162   H     0.53435   0.16449   0.40361   0.00000  Uiso   1.00
H163   H     0.42722   0.11286   0.25547   0.00000  Uiso   1.00
H164   H     0.62358   0.01148   0.46325   0.00000  Uiso   1.00
H165   H     0.54229   0.35900   0.52613   0.00000  Uiso   1.00
H166   H     0.32423   0.07149   0.03765   0.00000  Uiso   1.00
H167   H     0.73827   0.85776   0.47580   0.00000  Uiso   1.00
H168   H     0.56686   0.59057   0.60842   0.00000  Uiso   1.00
H169   H     0.65593   0.28711   0.99093   0.00000  Uiso   1.00
H170   H     0.55547   0.24221   0.82012   0.00000  Uiso   1.00
H171   H     0.75182   0.14083   0.02791   0.00000  Uiso   1.00
H172   H     0.67054   0.48834   0.09080   0.00000  Uiso   1.00
H173   H     0.42832   0.17647   0.68431   0.00000  Uiso   1.00
H174   H     0.84236   0.96274   0.12247   0.00000  Uiso   1.00
H175   H     0.67095   0.69554   0.25508   0.00000  Uiso   1.00
O176   O     0.30801   0.09219   0.75606   0.00000  Uiso   1.00
O177   O     0.85121   0.81181   0.33092   0.00000  Uiso   1.00
O178   O     0.62632   0.77323   0.50490   0.00000  Uiso   1.00
N179   N     0.36251   0.10238   0.97794   0.00000  Uiso   1.00
N180   N     0.74961   0.90254   0.38757   0.00000  Uiso   1.00
N181   N     0.58937   0.58765   0.51157   0.00000  Uiso   1.00
N182   N     0.41852   0.15887   0.78781   0.00000  Uiso   1.00
N183   N     0.80562   0.95903   0.19744   0.00000  Uiso   1.00
N184   N     0.64538   0.64414   0.32144   0.00000  Uiso   1.00
