data_job_06967
_audit_creation_date              2018-12-19
_audit_creation_method            'Materials Studio'
_symmetry_space_group_name_H-M    'P1'
_symmetry_Int_Tables_number       1
_symmetry_cell_setting            triclinic
loop_
_symmetry_equiv_pos_as_xyz
  x,y,z
_cell_length_a                    21.0797
_cell_length_b                    23.2290
_cell_length_c                    23.6424
_cell_angle_alpha                 60.8210
_cell_angle_beta                  64.4827
_cell_angle_gamma                 70.9884
loop_
_atom_site_label
_atom_site_type_symbol
_atom_site_fract_x
_atom_site_fract_y
_atom_site_fract_z
_atom_site_U_iso_or_equiv
_atom_site_adp_type
_atom_site_occupancy
C1     C     0.41202   0.30333   0.73277   0.00000  Uiso   1.00
C2     C     0.43252   0.34592   0.75324   0.00000  Uiso   1.00
C3     C     0.46866   0.40031   0.70833   0.00000  Uiso   1.00
C4     C     0.48240   0.43267   0.73721   0.00000  Uiso   1.00
C5     C     0.51757   0.50202   0.75815   0.00000  Uiso   1.00
C6     C     0.44448   0.23185   0.76827   0.00000  Uiso   1.00
C7     C     0.49066   0.19032   0.73599   0.00000  Uiso   1.00
C8     C     0.51444   0.12666   0.77752   0.00000  Uiso   1.00
C9     C     0.56813   0.01889   0.82180   0.00000  Uiso   1.00
C10    C     0.33173   0.30533   0.76667   0.00000  Uiso   1.00
C11    C     0.28311   0.32558   0.73307   0.00000  Uiso   1.00
C12    C     0.21197   0.32377   0.77326   0.00000  Uiso   1.00
C13    C     0.09060   0.33010   0.81507   0.00000  Uiso   1.00
C14    C     0.37214   0.26410   0.86390   0.00000  Uiso   1.00
C15    C     0.41087   0.32461   0.82446   0.00000  Uiso   1.00
C16    C     0.42455   0.35690   0.85342   0.00000  Uiso   1.00
C17    C     0.46070   0.41133   0.80856   0.00000  Uiso   1.00
C18    C     0.42282   0.21054   0.83949   0.00000  Uiso   1.00
C19    C     0.44654   0.14691   0.88108   0.00000  Uiso   1.00
C20    C     0.49275   0.10530   0.84888   0.00000  Uiso   1.00
C21    C     0.31007   0.28403   0.83790   0.00000  Uiso   1.00
C22    C     0.23899   0.28218   0.87815   0.00000  Uiso   1.00
C23    C     0.19027   0.30242   0.84461   0.00000  Uiso   1.00
H24    H     0.42888   0.31992   0.67732   0.00000  Uiso   1.00
H25    H     0.48542   0.41678   0.65322   0.00000  Uiso   1.00
H26    H     0.50740   0.20682   0.68088   0.00000  Uiso   1.00
H27    H     0.29989   0.34207   0.67795   0.00000  Uiso   1.00
H28    H     0.53858   0.51476   0.65790   0.00000  Uiso   1.00
H29    H     0.58491   0.07205   0.71623   0.00000  Uiso   1.00
H30    H     0.14732   0.35723   0.71006   0.00000  Uiso   1.00
H31    H     0.35528   0.24750   0.91936   0.00000  Uiso   1.00
H32    H     0.40778   0.34040   0.90854   0.00000  Uiso   1.00
H33    H     0.42976   0.13044   0.93619   0.00000  Uiso   1.00
H34    H     0.22225   0.26568   0.93327   0.00000  Uiso   1.00
H35    H     0.47557   0.45276   0.86513   0.00000  Uiso   1.00
H36    H     0.52189   0.01005   0.92345   0.00000  Uiso   1.00
H37    H     0.08431   0.29523   0.91728   0.00000  Uiso   1.00
O38    O     0.54296   0.54616   0.75003   0.00000  Uiso   1.00
O39    O     0.60373   0.96534   0.82655   0.00000  Uiso   1.00
O40    O     0.02963   0.33949   0.81845   0.00000  Uiso   1.00
N41    N     0.51653   0.48743   0.70816   0.00000  Uiso   1.00
N42    N     0.55986   0.07352   0.76269   0.00000  Uiso   1.00
N43    N     0.15075   0.34013   0.75692   0.00000  Uiso   1.00
N44    N     0.48262   0.45407   0.81967   0.00000  Uiso   1.00
N45    N     0.52595   0.04016   0.87419   0.00000  Uiso   1.00
N46    N     0.11685   0.30677   0.86843   0.00000  Uiso   1.00
C47    C     0.37350   0.20693   0.48196   0.00000  Uiso   1.00
C48    C     0.34437   0.19220   0.44221   0.00000  Uiso   1.00
C49    C     0.27323   0.20198   0.44937   0.00000  Uiso   1.00
C50    C     0.25744   0.18541   0.40830   0.00000  Uiso   1.00
C51    C     0.20406   0.16638   0.35367   0.00000  Uiso   1.00
C52    C     0.41658   0.14181   0.51679   0.00000  Uiso   1.00
C53    C     0.40616   0.10922   0.58665   0.00000  Uiso   1.00
C54    C     0.45117   0.05024   0.60836   0.00000  Uiso   1.00
C55    C     0.50994   0.95300   0.66951   0.00000  Uiso   1.00
C56    C     0.42704   0.25469   0.42819   0.00000  Uiso   1.00
C57    C     0.42543   0.31702   0.42357   0.00000  Uiso   1.00
C58    C     0.47926   0.35307   0.37070   0.00000  Uiso   1.00
C59    C     0.55426   0.43111   0.29430   0.00000  Uiso   1.00
C60    C     0.47197   0.16013   0.39629   0.00000  Uiso   1.00
C61    C     0.39785   0.16678   0.39568   0.00000  Uiso   1.00
C62    C     0.38217   0.15020   0.35458   0.00000  Uiso   1.00
C63    C     0.31102   0.15995   0.36168   0.00000  Uiso   1.00
C64    C     0.47006   0.11639   0.47026   0.00000  Uiso   1.00
C65    C     0.51511   0.05744   0.49187   0.00000  Uiso   1.00
C66    C     0.50476   0.02478   0.56174   0.00000  Uiso   1.00
C67    C     0.48052   0.22927   0.38166   0.00000  Uiso   1.00
C68    C     0.53437   0.26524   0.32879   0.00000  Uiso   1.00
C69    C     0.53284   0.32761   0.32409   0.00000  Uiso   1.00
H70    H     0.33186   0.22671   0.51819   0.00000  Uiso   1.00
H71    H     0.23185   0.22165   0.48539   0.00000  Uiso   1.00
H72    H     0.36477   0.12891   0.62265   0.00000  Uiso   1.00
H73    H     0.38403   0.33667   0.45959   0.00000  Uiso   1.00
H74    H     0.14455   0.20479   0.42852   0.00000  Uiso   1.00
H75    H     0.42484   0.00927   0.71793   0.00000  Uiso   1.00
H76    H     0.46545   0.44738   0.37410   0.00000  Uiso   1.00
H77    H     0.51361   0.14033   0.36006   0.00000  Uiso   1.00
H78    H     0.42357   0.13053   0.31858   0.00000  Uiso   1.00
H79    H     0.55649   0.03779   0.45584   0.00000  Uiso   1.00
H80    H     0.57575   0.24555   0.29279   0.00000  Uiso   1.00
H81    H     0.30016   0.13083   0.29313   0.00000  Uiso   1.00
H82    H     0.58045   0.93531   0.58255   0.00000  Uiso   1.00
H83    H     0.62106   0.37342   0.23871   0.00000  Uiso   1.00
O84    O     0.15984   0.16290   0.33640   0.00000  Uiso   1.00
O85    O     0.52757   0.90639   0.71610   0.00000  Uiso   1.00
O86    O     0.58085   0.48117   0.26500   0.00000  Uiso   1.00
N87    N     0.19353   0.18874   0.40234   0.00000  Uiso   1.00
N88    N     0.45557   0.00593   0.67292   0.00000  Uiso   1.00
N89    N     0.49355   0.41552   0.35148   0.00000  Uiso   1.00
N90    N     0.27727   0.14895   0.32949   0.00000  Uiso   1.00
N91    N     0.53931   0.96614   0.60007   0.00000  Uiso   1.00
N92    N     0.57729   0.37572   0.27863   0.00000  Uiso   1.00
C93    C     0.61763   0.50604   0.48164   0.00000  Uiso   1.00
C94    C     0.65788   0.53006   0.40477   0.00000  Uiso   1.00
C95    C     0.62811   0.55359   0.35388   0.00000  Uiso   1.00
C96    C     0.67393   0.57318   0.28659   0.00000  Uiso   1.00
C97    C     0.72535   0.61104   0.16962   0.00000  Uiso   1.00
C98    C     0.65327   0.43519   0.51437   0.00000  Uiso   1.00
C99    C     0.61962   0.37896   0.55565   0.00000  Uiso   1.00
C100   C     0.66156   0.31868   0.58063   0.00000  Uiso   1.00
C101   C     0.70580   0.20925   0.63388   0.00000  Uiso   1.00
C102   C     0.63377   0.54802   0.50589   0.00000  Uiso   1.00
C103   C     0.58372   0.58664   0.54005   0.00000  Uiso   1.00
C104   C     0.60925   0.62135   0.55791   0.00000  Uiso   1.00
C105   C     0.62321   0.68711   0.59798   0.00000  Uiso   1.00
C106   C     0.75194   0.49898   0.45262   0.00000  Uiso   1.00
C107   C     0.73084   0.52623   0.38901   0.00000  Uiso   1.00
C108   C     0.77672   0.54579   0.32177   0.00000  Uiso   1.00
C109   C     0.74702   0.56935   0.27080   0.00000  Uiso   1.00
C110   C     0.72622   0.43135   0.49862   0.00000  Uiso   1.00
C111   C     0.76822   0.37115   0.52355   0.00000  Uiso   1.00
C112   C     0.73464   0.31484   0.56484   0.00000  Uiso   1.00
C113   C     0.70673   0.54419   0.49013   0.00000  Uiso   1.00
C114   C     0.73233   0.57884   0.50794   0.00000  Uiso   1.00
C115   C     0.68233   0.61751   0.54212   0.00000  Uiso   1.00
H116   H     0.56083   0.50902   0.49391   0.00000  Uiso   1.00
H117   H     0.57165   0.55654   0.36610   0.00000  Uiso   1.00
H118   H     0.56316   0.38194   0.56784   0.00000  Uiso   1.00
H119   H     0.52727   0.58960   0.55224   0.00000  Uiso   1.00
H120   H     0.61583   0.60753   0.21744   0.00000  Uiso   1.00
H121   H     0.59791   0.23936   0.64285   0.00000  Uiso   1.00
H122   H     0.52224   0.67725   0.60996   0.00000  Uiso   1.00
H123   H     0.80874   0.49600   0.44035   0.00000  Uiso   1.00
H124   H     0.83317   0.54281   0.30959   0.00000  Uiso   1.00
H125   H     0.82467   0.36820   0.51134   0.00000  Uiso   1.00
H126   H     0.78879   0.57586   0.49574   0.00000  Uiso   1.00
H127   H     0.82808   0.59638   0.17158   0.00000  Uiso   1.00
H128   H     0.81017   0.22821   0.59700   0.00000  Uiso   1.00
H129   H     0.73450   0.66610   0.56410   0.00000  Uiso   1.00
O130   O     0.73356   0.63296   0.10946   0.00000  Uiso   1.00
O131   O     0.71005   0.14995   0.66760   0.00000  Uiso   1.00
O132   O     0.61077   0.72445   0.62443   0.00000  Uiso   1.00
N133   N     0.66243   0.59849   0.22459   0.00000  Uiso   1.00
N134   N     0.64568   0.25428   0.62232   0.00000  Uiso   1.00
N135   N     0.57493   0.66365   0.59158   0.00000  Uiso   1.00
N136   N     0.77664   0.59249   0.19992   0.00000  Uiso   1.00
N137   N     0.75989   0.24828   0.59764   0.00000  Uiso   1.00
N138   N     0.68914   0.65765   0.56690   0.00000  Uiso   1.00
C139   C     0.82563   0.97911   0.99645   0.00000  Uiso   1.00
C140   C     0.82287   0.01766   0.92352   0.00000  Uiso   1.00
C141   C     0.86876   0.06162   0.86900   0.00000  Uiso   1.00
C142   C     0.85741   0.09190   0.80632   0.00000  Uiso   1.00
C143   C     0.86156   0.15374   0.69425   0.00000  Uiso   1.00
C144   C     0.83170   0.90571   0.01308   0.00000  Uiso   1.00
C145   C     0.88500   0.85556   0.03388   0.00000  Uiso   1.00
C146   C     0.88107   0.79160   0.04661   0.00000  Uiso   1.00
C147   C     0.89889   0.67964   0.07364   0.00000  Uiso   1.00
C148   C     0.75259   0.99722   0.04290   0.00000  Uiso   1.00
C149   C     0.73938   0.02400   0.08879   0.00000  Uiso   1.00
C150   C     0.66885   0.03707   0.12663   0.00000  Uiso   1.00
C151   C     0.56384   0.06719   0.19995   0.00000  Uiso   1.00
C152   C     0.72387   0.95469   0.98207   0.00000  Uiso   1.00
C153   C     0.76760   0.00439   0.91571   0.00000  Uiso   1.00
C154   C     0.75618   0.03461   0.85309   0.00000  Uiso   1.00
C155   C     0.80204   0.07861   0.79850   0.00000  Uiso   1.00
C156   C     0.77643   0.89245   0.00527   0.00000  Uiso   1.00
C157   C     0.77242   0.82854   0.01798   0.00000  Uiso   1.00
C158   C     0.82570   0.77831   0.03878   0.00000  Uiso   1.00
C159   C     0.69732   0.98396   0.03509   0.00000  Uiso   1.00
C160   C     0.62679   0.99698   0.07287   0.00000  Uiso   1.00
C161   C     0.61348   0.02378   0.11880   0.00000  Uiso   1.00
H162   H     0.86866   0.98943   0.00253   0.00000  Uiso   1.00
H163   H     0.91153   0.07187   0.87507   0.00000  Uiso   1.00
H164   H     0.92776   0.86584   0.03993   0.00000  Uiso   1.00
H165   H     0.78216   0.03425   0.09482   0.00000  Uiso   1.00
H166   H     0.93470   0.15740   0.73030   0.00000  Uiso   1.00
H167   H     0.96891   0.72297   0.07794   0.00000  Uiso   1.00
H168   H     0.66189   0.07810   0.19368   0.00000  Uiso   1.00
H169   H     0.68084   0.94436   0.97599   0.00000  Uiso   1.00
H170   H     0.71340   0.02433   0.84707   0.00000  Uiso   1.00
H171   H     0.72963   0.81830   0.01193   0.00000  Uiso   1.00
H172   H     0.58404   0.98671   0.06682   0.00000  Uiso   1.00
H173   H     0.77389   0.11881   0.70757   0.00000  Uiso   1.00
H174   H     0.80810   0.68438   0.05522   0.00000  Uiso   1.00
H175   H     0.50108   0.03952   0.17096   0.00000  Uiso   1.00
O176   O     0.87912   0.19151   0.63459   0.00000  Uiso   1.00
O177   O     0.92400   0.62155   0.09070   0.00000  Uiso   1.00
O178   O     0.52119   0.08748   0.24255   0.00000  Uiso   1.00
N179   N     0.89238   0.13735   0.74264   0.00000  Uiso   1.00
N180   N     0.92437   0.73119   0.06766   0.00000  Uiso   1.00
N181   N     0.63733   0.06319   0.17588   0.00000  Uiso   1.00
N182   N     0.80585   0.11659   0.73041   0.00000  Uiso   1.00
N183   N     0.83784   0.71043   0.05543   0.00000  Uiso   1.00
N184   N     0.55080   0.04243   0.16366   0.00000  Uiso   1.00
C185   C     0.11796   0.77769   0.19535   0.00000  Uiso   1.00
C186   C     0.05976   0.77264   0.26359   0.00000  Uiso   1.00
C187   C     0.98817   0.79702   0.27276   0.00000  Uiso   1.00
C188   C     0.94342   0.78739   0.33924   0.00000  Uiso   1.00
C189   C     0.84909   0.78451   0.43679   0.00000  Uiso   1.00
C190   C     0.15361   0.70646   0.20491   0.00000  Uiso   1.00
C191   C     0.16093   0.67520   0.16474   0.00000  Uiso   1.00
C192   C     0.19519   0.60986   0.18182   0.00000  Uiso   1.00
C193   C     0.24660   0.50424   0.18823   0.00000  Uiso   1.00
C194   C     0.17329   0.81254   0.18730   0.00000  Uiso   1.00
C195   C     0.19718   0.87047   0.13231   0.00000  Uiso   1.00
C196   C     0.24802   0.89444   0.13456   0.00000  Uiso   1.00
C197   C     0.32999   0.95354   0.11363   0.00000  Uiso   1.00
C198   C     0.16578   0.71724   0.29710   0.00000  Uiso   1.00
C199   C     0.08573   0.73980   0.31885   0.00000  Uiso   1.00
C200   C     0.04107   0.73014   0.38534   0.00000  Uiso   1.00
C201   C     0.96943   0.75450   0.39461   0.00000  Uiso   1.00
C202   C     0.17958   0.67362   0.26017   0.00000  Uiso   1.00
C203   C     0.21383   0.60831   0.27731   0.00000  Uiso   1.00
C204   C     0.22121   0.57696   0.23718   0.00000  Uiso   1.00
C205   C     0.19926   0.77971   0.24256   0.00000  Uiso   1.00
C206   C     0.25008   0.80359   0.24489   0.00000  Uiso   1.00
C207   C     0.27404   0.86154   0.18992   0.00000  Uiso   1.00
H208   H     0.09775   0.80325   0.15233   0.00000  Uiso   1.00
H209   H     0.96809   0.82242   0.22998   0.00000  Uiso   1.00
H210   H     0.14084   0.70062   0.12197   0.00000  Uiso   1.00
H211   H     0.17707   0.89587   0.08956   0.00000  Uiso   1.00
H212   H     0.83580   0.82917   0.34045   0.00000  Uiso   1.00
H213   H     0.20005   0.57236   0.11269   0.00000  Uiso   1.00
H214   H     0.27647   0.98407   0.04433   0.00000  Uiso   1.00
H215   H     0.18600   0.69167   0.34013   0.00000  Uiso   1.00
H216   H     0.06119   0.70472   0.42809   0.00000  Uiso   1.00
H217   H     0.23393   0.58292   0.32008   0.00000  Uiso   1.00
H218   H     0.27017   0.77817   0.28767   0.00000  Uiso   1.00
H219   H     0.91136   0.73364   0.50125   0.00000  Uiso   1.00
H220   H     0.27562   0.47683   0.27348   0.00000  Uiso   1.00
H221   H     0.35203   0.88854   0.20513   0.00000  Uiso   1.00
O222   O     0.78988   0.79199   0.47533   0.00000  Uiso   1.00
O223   O     0.26778   0.45506   0.17650   0.00000  Uiso   1.00
O224   O     0.36803   0.99522   0.08682   0.00000  Uiso   1.00
N225   N     0.87071   0.80491   0.36622   0.00000  Uiso   1.00
N226   N     0.21126   0.56480   0.15328   0.00000  Uiso   1.00
N227   N     0.28272   0.94971   0.08937   0.00000  Uiso   1.00
N228   N     0.91137   0.75351   0.45274   0.00000  Uiso   1.00
N229   N     0.25192   0.51340   0.23980   0.00000  Uiso   1.00
N230   N     0.32337   0.89831   0.17589   0.00000  Uiso   1.00
C231   C     0.32161   0.75897   0.00164   0.00000  Uiso   1.00
C232   C     0.38031   0.79116   0.99168   0.00000  Uiso   1.00
C233   C     0.39192   0.79500   0.04315   0.00000  Uiso   1.00
C234   C     0.44843   0.82643   0.02355   0.00000  Uiso   1.00
C235   C     0.53301   0.87233   0.01853   0.00000  Uiso   1.00
C236   C     0.35885   0.70656   0.97199   0.00000  Uiso   1.00
C237   C     0.35241   0.63927   0.00692   0.00000  Uiso   1.00
C238   C     0.39084   0.59949   0.97074   0.00000  Uiso   1.00
C239   C     0.44207   0.51405   0.93514   0.00000  Uiso   1.00
C240   C     0.28028   0.81277   0.95466   0.00000  Uiso   1.00
C241   C     0.20778   0.83479   0.97500   0.00000  Uiso   1.00
C242   C     0.18006   0.88443   0.92422   0.00000  Uiso   1.00
C243   C     0.10930   0.96391   0.86171   0.00000  Uiso   1.00
C244   C     0.40130   0.80796   0.87529   0.00000  Uiso   1.00
C245   C     0.42360   0.81776   0.92305   0.00000  Uiso   1.00
C246   C     0.48009   0.84920   0.90336   0.00000  Uiso   1.00
C247   C     0.49179   0.85309   0.95480   0.00000  Uiso   1.00
C248   C     0.40213   0.73316   0.90337   0.00000  Uiso   1.00
C249   C     0.44058   0.69347   0.86713   0.00000  Uiso   1.00
C250   C     0.43421   0.62615   0.90199   0.00000  Uiso   1.00
C251   C     0.32357   0.83938   0.88603   0.00000  Uiso   1.00
C252   C     0.29595   0.88899   0.83521   0.00000  Uiso   1.00
C253   C     0.22342   0.91108   0.85547   0.00000  Uiso   1.00
H254   H     0.28791   0.73825   0.05507   0.00000  Uiso   1.00
H255   H     0.35842   0.77440   0.09626   0.00000  Uiso   1.00
H256   H     0.31891   0.61870   0.06002   0.00000  Uiso   1.00
H257   H     0.17430   0.81419   0.02811   0.00000  Uiso   1.00
H258   H     0.45569   0.82618   0.11166   0.00000  Uiso   1.00
H259   H     0.37236   0.49789   0.03525   0.00000  Uiso   1.00
H260   H     0.06743   0.91011   0.96797   0.00000  Uiso   1.00
H261   H     0.43500   0.82867   0.82186   0.00000  Uiso   1.00
H262   H     0.51358   0.86978   0.85025   0.00000  Uiso   1.00
H263   H     0.47407   0.71408   0.81402   0.00000  Uiso   1.00
H264   H     0.32946   0.90957   0.78211   0.00000  Uiso   1.00
H265   H     0.58163   0.90360   0.91199   0.00000  Uiso   1.00
H266   H     0.49830   0.57530   0.83559   0.00000  Uiso   1.00
H267   H     0.19336   0.98753   0.76830   0.00000  Uiso   1.00
O268   O     0.56772   0.89028   0.03472   0.00000  Uiso   1.00
O269   O     0.45837   0.45957   0.93447   0.00000  Uiso   1.00
O270   O     0.05831   0.00040   0.84619   0.00000  Uiso   1.00
N271   N     0.47454   0.83877   0.06077   0.00000  Uiso   1.00
N272   N     0.39664   0.53183   0.98934   0.00000  Uiso   1.00
N273   N     0.11155   0.91721   0.92643   0.00000  Uiso   1.00
N274   N     0.54231   0.88043   0.95333   0.00000  Uiso   1.00
N275   N     0.46440   0.57349   0.88190   0.00000  Uiso   1.00
N276   N     0.17931   0.95887   0.81899   0.00000  Uiso   1.00
C277   C     0.48719   0.74536   0.34144   0.00000  Uiso   1.00
C278   C     0.47024   0.70605   0.31480   0.00000  Uiso   1.00
C279   C     0.43102   0.65351   0.35475   0.00000  Uiso   1.00
C280   C     0.42142   0.62408   0.32062   0.00000  Uiso   1.00
C281   C     0.39072   0.55967   0.29012   0.00000  Uiso   1.00
C282   C     0.45950   0.81822   0.30430   0.00000  Uiso   1.00
C283   C     0.41124   0.85999   0.33543   0.00000  Uiso   1.00
C284   C     0.39261   0.92499   0.29246   0.00000  Uiso   1.00
C285   C     0.34527   0.03474   0.24566   0.00000  Uiso   1.00
C286   C     0.56794   0.74001   0.31502   0.00000  Uiso   1.00
C287   C     0.61088   0.71604   0.35516   0.00000  Uiso   1.00
C288   C     0.68355   0.71521   0.32121   0.00000  Uiso   1.00
C289   C     0.80459   0.70352   0.29105   0.00000  Uiso   1.00
C290   C     0.53990   0.78652   0.20979   0.00000  Uiso   1.00
C291   C     0.49887   0.72841   0.24329   0.00000  Uiso   1.00
C292   C     0.48934   0.69906   0.20909   0.00000  Uiso   1.00
C293   C     0.45011   0.64648   0.24899   0.00000  Uiso   1.00
C294   C     0.48813   0.84058   0.23279   0.00000  Uiso   1.00
C295   C     0.46957   0.90554   0.18977   0.00000  Uiso   1.00
C296   C     0.42129   0.94739   0.22082   0.00000  Uiso   1.00
C297   C     0.59658   0.76237   0.24351   0.00000  Uiso   1.00
C298   C     0.66920   0.76158   0.20950   0.00000  Uiso   1.00
C299   C     0.71223   0.73761   0.24957   0.00000  Uiso   1.00
H300   H     0.46489   0.72795   0.39712   0.00000  Uiso   1.00
H301   H     0.40886   0.63623   0.41009   0.00000  Uiso   1.00
H302   H     0.38910   0.84268   0.39077   0.00000  Uiso   1.00
H303   H     0.58870   0.69874   0.41049   0.00000  Uiso   1.00
H304   H     0.35934   0.54441   0.39293   0.00000  Uiso   1.00
H305   H     0.31769   0.97973   0.35219   0.00000  Uiso   1.00
H306   H     0.73859   0.67621   0.39379   0.00000  Uiso   1.00
H307   H     0.56219   0.80393   0.15411   0.00000  Uiso   1.00
H308   H     0.51150   0.71637   0.15375   0.00000  Uiso   1.00
H309   H     0.49174   0.92282   0.13443   0.00000  Uiso   1.00
H310   H     0.69134   0.77889   0.15416   0.00000  Uiso   1.00
H311   H     0.44265   0.60946   0.18488   0.00000  Uiso   1.00
H312   H     0.40100   0.04478   0.14414   0.00000  Uiso   1.00
H313   H     0.82189   0.74126   0.18574   0.00000  Uiso   1.00
O314   O     0.36587   0.51798   0.29305   0.00000  Uiso   1.00
O315   O     0.31124   0.08910   0.23961   0.00000  Uiso   1.00
O316   O     0.86344   0.69089   0.29417   0.00000  Uiso   1.00
N317   N     0.38592   0.57172   0.34402   0.00000  Uiso   1.00
N318   N     0.34697   0.97872   0.30593   0.00000  Uiso   1.00
N319   N     0.74047   0.69498   0.34482   0.00000  Uiso   1.00
N320   N     0.43074   0.60673   0.23207   0.00000  Uiso   1.00
N321   N     0.39179   0.01372   0.19398   0.00000  Uiso   1.00
N322   N     0.78530   0.72998   0.23286   0.00000  Uiso   1.00
C323   C     0.39035   0.82683   0.52772   0.00000  Uiso   1.00
C324   C     0.46858   0.83532   0.49665   0.00000  Uiso   1.00
C325   C     0.51353   0.83786   0.43224   0.00000  Uiso   1.00
C326   C     0.58330   0.84588   0.41325   0.00000  Uiso   1.00
C327   C     0.70114   0.85830   0.35831   0.00000  Uiso   1.00
C328   C     0.34983   0.88623   0.54628   0.00000  Uiso   1.00
C329   C     0.29491   0.93155   0.52360   0.00000  Uiso   1.00
C330   C     0.26471   0.98243   0.54640   0.00000  Uiso   1.00
C331   C     0.19814   0.07385   0.56855   0.00000  Uiso   1.00
C332   C     0.38277   0.76563   0.59561   0.00000  Uiso   1.00
C333   C     0.35554   0.70955   0.61444   0.00000  Uiso   1.00
C334   C     0.35305   0.65890   0.67878   0.00000  Uiso   1.00
C335   C     0.33764   0.56306   0.77754   0.00000  Uiso   1.00
C336   C     0.43434   0.83658   0.60854   0.00000  Uiso   1.00
C337   C     0.49247   0.84062   0.54055   0.00000  Uiso   1.00
C338   C     0.56220   0.84865   0.52165   0.00000  Uiso   1.00
C339   C     0.60724   0.85119   0.45723   0.00000  Uiso   1.00
C340   C     0.37372   0.89153   0.59017   0.00000  Uiso   1.00
C341   C     0.34358   0.94234   0.61301   0.00000  Uiso   1.00
C342   C     0.28864   0.98774   0.59037   0.00000  Uiso   1.00
C343   C     0.40667   0.77092   0.63951   0.00000  Uiso   1.00
C344   C     0.40421   0.72035   0.70385   0.00000  Uiso   1.00
C345   C     0.37699   0.66420   0.72276   0.00000  Uiso   1.00
H346   H     0.37174   0.82271   0.49354   0.00000  Uiso   1.00
H347   H     0.49501   0.83376   0.39828   0.00000  Uiso   1.00
H348   H     0.27643   0.92744   0.48963   0.00000  Uiso   1.00
H349   H     0.33705   0.70547   0.58045   0.00000  Uiso   1.00
H350   H     0.64221   0.84837   0.31201   0.00000  Uiso   1.00
H351   H     0.18131   0.04589   0.50465   0.00000  Uiso   1.00
H352   H     0.30913   0.57783   0.69616   0.00000  Uiso   1.00
H353   H     0.45294   0.84071   0.64271   0.00000  Uiso   1.00
H354   H     0.58067   0.85274   0.55563   0.00000  Uiso   1.00
H355   H     0.36209   0.94643   0.64699   0.00000  Uiso   1.00
H356   H     0.42271   0.72446   0.73781   0.00000  Uiso   1.00
H357   H     0.71174   0.86379   0.43972   0.00000  Uiso   1.00
H358   H     0.25082   0.06130   0.63237   0.00000  Uiso   1.00
H359   H     0.37866   0.59324   0.82388   0.00000  Uiso   1.00
O360   O     0.75953   0.86370   0.31588   0.00000  Uiso   1.00
O361   O     0.15483   0.12282   0.56863   0.00000  Uiso   1.00
O362   O     0.32254   0.50874   0.81989   0.00000  Uiso   1.00
N363   N     0.64105   0.85033   0.35402   0.00000  Uiso   1.00
N364   N     0.21013   0.03500   0.53412   0.00000  Uiso   1.00
N365   N     0.32963   0.59742   0.71318   0.00000  Uiso   1.00
N366   N     0.67846   0.85863   0.42274   0.00000  Uiso   1.00
N367   N     0.24754   0.04330   0.60285   0.00000  Uiso   1.00
N368   N     0.36704   0.60571   0.78190   0.00000  Uiso   1.00
C369   C     0.24241   0.51783   0.60953   0.00000  Uiso   1.00
C370   C     0.20360   0.50877   0.68404   0.00000  Uiso   1.00
C371   C     0.23496   0.48313   0.73415   0.00000  Uiso   1.00
C372   C     0.19029   0.47889   0.79922   0.00000  Uiso   1.00
C373   C     0.14119   0.46170   0.91272   0.00000  Uiso   1.00
C374   C     0.22383   0.59133   0.56601   0.00000  Uiso   1.00
C375   C     0.27221   0.63510   0.51689   0.00000  Uiso   1.00
C376   C     0.24457   0.70036   0.48261   0.00000  Uiso   1.00
C377   C     0.22689   0.81133   0.41283   0.00000  Uiso   1.00
C378   C     0.20722   0.47950   0.59666   0.00000  Uiso   1.00
C379   C     0.24162   0.42924   0.57329   0.00000  Uiso   1.00
C380   C     0.20000   0.40035   0.56479   0.00000  Uiso   1.00
C381   C     0.15652   0.33769   0.54260   0.00000  Uiso   1.00
C382   C     0.10731   0.55590   0.63597   0.00000  Uiso   1.00
C383   C     0.13022   0.52945   0.69839   0.00000  Uiso   1.00
C384   C     0.08548   0.52524   0.76341   0.00000  Uiso   1.00
C385   C     0.11677   0.49960   0.81361   0.00000  Uiso   1.00
C386   C     0.15045   0.61201   0.58037   0.00000  Uiso   1.00
C387   C     0.12274   0.67721   0.54614   0.00000  Uiso   1.00
C388   C     0.17106   0.72107   0.49699   0.00000  Uiso   1.00
C389   C     0.13383   0.50017   0.61102   0.00000  Uiso   1.00
C390   C     0.09215   0.47136   0.60255   0.00000  Uiso   1.00
C391   C     0.12648   0.42107   0.57917   0.00000  Uiso   1.00
H392   H     0.29954   0.50174   0.59835   0.00000  Uiso   1.00
H393   H     0.29175   0.46714   0.72302   0.00000  Uiso   1.00
H394   H     0.32899   0.61908   0.50579   0.00000  Uiso   1.00
H395   H     0.29841   0.41325   0.56218   0.00000  Uiso   1.00
H396   H     0.25075   0.43791   0.86757   0.00000  Uiso   1.00
H397   H     0.32929   0.75829   0.40951   0.00000  Uiso   1.00
H398   H     0.26480   0.32427   0.52842   0.00000  Uiso   1.00
H399   H     0.05018   0.57200   0.64715   0.00000  Uiso   1.00
H400   H     0.02870   0.54125   0.77450   0.00000  Uiso   1.00
H401   H     0.06595   0.69320   0.55727   0.00000  Uiso   1.00
H402   H     0.03536   0.48737   0.61366   0.00000  Uiso   1.00
H403   H     0.03725   0.49807   0.90935   0.00000  Uiso   1.00
H404   H     0.11579   0.81845   0.45129   0.00000  Uiso   1.00
H405   H     0.05130   0.38442   0.57021   0.00000  Uiso   1.00
O406   O     0.13438   0.44652   0.97135   0.00000  Uiso   1.00
O407   O     0.23742   0.86683   0.37038   0.00000  Uiso   1.00
O408   O     0.15281   0.29740   0.52640   0.00000  Uiso   1.00
N409   N     0.20345   0.45628   0.85993   0.00000  Uiso   1.00
N410   N     0.27688   0.75582   0.43167   0.00000  Uiso   1.00
N411   N     0.21659   0.35005   0.54283   0.00000  Uiso   1.00
N412   N     0.08857   0.48865   0.88241   0.00000  Uiso   1.00
N413   N     0.16199   0.78818   0.45416   0.00000  Uiso   1.00
N414   N     0.10171   0.38242   0.56532   0.00000  Uiso   1.00
C415   C     0.06860   0.09922   0.05955   0.00000  Uiso   1.00
C416   C     0.07985   0.05487   0.12874   0.00000  Uiso   1.00
C417   C     0.04045   0.00491   0.18210   0.00000  Uiso   1.00
C418   C     0.05907   0.96995   0.24126   0.00000  Uiso   1.00
C419   C     0.06800   0.89889   0.34787   0.00000  Uiso   1.00
C420   C     0.05705   0.17078   0.05146   0.00000  Uiso   1.00
C421   C     0.99848   0.21828   0.03984   0.00000  Uiso   1.00
C422   C     0.99792   0.28090   0.03394   0.00000  Uiso   1.00
C423   C     0.97147   0.38981   0.02052   0.00000  Uiso   1.00
C424   C     0.13957   0.09036   0.00541   0.00000  Uiso   1.00
C425   C     0.15039   0.07026   0.95506   0.00000  Uiso   1.00
C426   C     0.21930   0.06519   0.91037   0.00000  Uiso   1.00
C427   C     0.32098   0.04924   0.82546   0.00000  Uiso   1.00
C428   C     0.17174   0.12598   0.06971   0.00000  Uiso   1.00
C429   C     0.13587   0.06941   0.13426   0.00000  Uiso   1.00
C430   C     0.15456   0.03451   0.19335   0.00000  Uiso   1.00
C431   C     0.11519   0.98451   0.24679   0.00000  Uiso   1.00
C432   C     0.11306   0.18532   0.05698   0.00000  Uiso   1.00
C433   C     0.11259   0.24788   0.05109   0.00000  Uiso   1.00
C434   C     0.05404   0.29546   0.03947   0.00000  Uiso   1.00
C435   C     0.19559   0.10490   0.01093   0.00000  Uiso   1.00
C436   C     0.26450   0.09986   0.96631   0.00000  Uiso   1.00
C437   C     0.27542   0.07975   0.91590   0.00000  Uiso   1.00
H438   H     0.02498   0.08791   0.05524   0.00000  Uiso   1.00
H439   H     0.99709   0.99368   0.17781   0.00000  Uiso   1.00
H440   H     0.95514   0.20702   0.03556   0.00000  Uiso   1.00
H441   H     0.10702   0.05902   0.95080   0.00000  Uiso   1.00
H442   H     0.99086   0.89563   0.31614   0.00000  Uiso   1.00
H443   H     0.90241   0.34547   0.01618   0.00000  Uiso   1.00
H444   H     0.22269   0.03339   0.83744   0.00000  Uiso   1.00
H445   H     0.21535   0.13730   0.07401   0.00000  Uiso   1.00
H446   H     0.19791   0.04577   0.19761   0.00000  Uiso   1.00
H447   H     0.15595   0.25912   0.05536   0.00000  Uiso   1.00
H448   H     0.30784   0.11112   0.97060   0.00000  Uiso   1.00
H449   H     0.15385   0.93792   0.33221   0.00000  Uiso   1.00
H450   H     0.06540   0.38776   0.03225   0.00000  Uiso   1.00
H451   H     0.38568   0.07567   0.85351   0.00000  Uiso   1.00
O452   O     0.05744   0.85569   0.40515   0.00000  Uiso   1.00
O453   O     0.94140   0.44586   0.01160   0.00000  Uiso   1.00
O454   O     0.36159   0.03642   0.77710   0.00000  Uiso   1.00
N455   N     0.03163   0.91813   0.30295   0.00000  Uiso   1.00
N456   N     0.94892   0.33871   0.02252   0.00000  Uiso   1.00
N457   N     0.24835   0.04695   0.85540   0.00000  Uiso   1.00
N458   N     0.11933   0.94089   0.31160   0.00000  Uiso   1.00
N459   N     0.03663   0.36146   0.03117   0.00000  Uiso   1.00
N460   N     0.33606   0.06970   0.86405   0.00000  Uiso   1.00
C461   C     0.88812   0.31848   0.78466   0.00000  Uiso   1.00
C462   C     0.95234   0.27565   0.75409   0.00000  Uiso   1.00
C463   C     0.00432   0.23383   0.78331   0.00000  Uiso   1.00
C464   C     0.05877   0.19887   0.74728   0.00000  Uiso   1.00
C465   C     0.15816   0.13138   0.70938   0.00000  Uiso   1.00
C466   C     0.89192   0.38983   0.73033   0.00000  Uiso   1.00
C467   C     0.89309   0.44402   0.73958   0.00000  Uiso   1.00
C468   C     0.89667   0.50518   0.68354   0.00000  Uiso   1.00
C469   C     0.90219   0.61497   0.60877   0.00000  Uiso   1.00
C470   C     0.82302   0.29837   0.79009   0.00000  Uiso   1.00
C471   C     0.76625   0.27567   0.84958   0.00000  Uiso   1.00
C472   C     0.71181   0.25984   0.84385   0.00000  Uiso   1.00
C473   C     0.61036   0.22761   0.86186   0.00000  Uiso   1.00
C474   C     0.89237   0.33074   0.66871   0.00000  Uiso   1.00
C475   C     0.95465   0.28231   0.69111   0.00000  Uiso   1.00
C476   C     0.00903   0.24741   0.65502   0.00000  Uiso   1.00
C477   C     0.06109   0.20555   0.68418   0.00000  Uiso   1.00
C478   C     0.89423   0.39650   0.66735   0.00000  Uiso   1.00
C479   C     0.89780   0.45759   0.61129   0.00000  Uiso   1.00
C480   C     0.89898   0.51186   0.62045   0.00000  Uiso   1.00
C481   C     0.82533   0.30503   0.72711   0.00000  Uiso   1.00
C482   C     0.77096   0.28924   0.72129   0.00000  Uiso   1.00
C483   C     0.71413   0.26651   0.78075   0.00000  Uiso   1.00
H484   H     0.88631   0.31329   0.83369   0.00000  Uiso   1.00
H485   H     0.00252   0.22870   0.83205   0.00000  Uiso   1.00
H486   H     0.89129   0.43885   0.78833   0.00000  Uiso   1.00
H487   H     0.76448   0.27052   0.89831   0.00000  Uiso   1.00
H488   H     0.13238   0.13786   0.80244   0.00000  Uiso   1.00
H489   H     0.89783   0.58098   0.71026   0.00000  Uiso   1.00
H490   H     0.63042   0.22603   0.94217   0.00000  Uiso   1.00
H491   H     0.89417   0.33593   0.61967   0.00000  Uiso   1.00
H492   H     0.01081   0.25257   0.60628   0.00000  Uiso   1.00
H493   H     0.89959   0.46273   0.56256   0.00000  Uiso   1.00
H494   H     0.77277   0.29440   0.67254   0.00000  Uiso   1.00
H495   H     0.13911   0.15724   0.61920   0.00000  Uiso   1.00
H496   H     0.90456   0.60037   0.52701   0.00000  Uiso   1.00
H497   H     0.63715   0.24541   0.75893   0.00000  Uiso   1.00
O498   O     0.21234   0.09232   0.70586   0.00000  Uiso   1.00
O499   O     0.90461   0.67369   0.58493   0.00000  Uiso   1.00
O500   O     0.55377   0.20799   0.88919   0.00000  Uiso   1.00
N501   N     0.11795   0.15385   0.76116   0.00000  Uiso   1.00
N502   N     0.89868   0.56814   0.67497   0.00000  Uiso   1.00
N503   N     0.64865   0.23631   0.89179   0.00000  Uiso   1.00
N504   N     0.12157   0.16428   0.66256   0.00000  Uiso   1.00
N505   N     0.90230   0.57857   0.57637   0.00000  Uiso   1.00
N506   N     0.65228   0.24673   0.79319   0.00000  Uiso   1.00
C507   C     0.58914   0.31758   0.04027   0.00000  Uiso   1.00
C508   C     0.53076   0.28073   0.05758   0.00000  Uiso   1.00
C509   C     0.51321   0.27485   0.01057   0.00000  Uiso   1.00
C510   C     0.45814   0.23914   0.03668   0.00000  Uiso   1.00
C511   C     0.37296   0.18633   0.05281   0.00000  Uiso   1.00
C512   C     0.55304   0.36886   0.07148   0.00000  Uiso   1.00
C513   C     0.55425   0.43707   0.03616   0.00000  Uiso   1.00
C514   C     0.51794   0.47555   0.07398   0.00000  Uiso   1.00
C515   C     0.46742   0.55956   0.11170   0.00000  Uiso   1.00
C516   C     0.63797   0.26685   0.08082   0.00000  Uiso   1.00
C517   C     0.71058   0.24930   0.05335   0.00000  Uiso   1.00
C518   C     0.74578   0.20190   0.09903   0.00000  Uiso   1.00
C519   C     0.82711   0.12753   0.15125   0.00000  Uiso   1.00
C520   C     0.52254   0.26463   0.17023   0.00000  Uiso   1.00
C521   C     0.49458   0.25198   0.12816   0.00000  Uiso   1.00
C522   C     0.43952   0.21626   0.15435   0.00000  Uiso   1.00
C523   C     0.42190   0.21032   0.10739   0.00000  Uiso   1.00
C524   C     0.51687   0.34011   0.14206   0.00000  Uiso   1.00
C525   C     0.48056   0.37849   0.17994   0.00000  Uiso   1.00
C526   C     0.48170   0.44673   0.14469   0.00000  Uiso   1.00
C527   C     0.60179   0.23809   0.15140   0.00000  Uiso   1.00
C528   C     0.63689   0.19072   0.19713   0.00000  Uiso   1.00
C529   C     0.70954   0.17309   0.16974   0.00000  Uiso   1.00
H530   H     0.61730   0.33997   0.98532   0.00000  Uiso   1.00
H531   H     0.54121   0.29712   0.95595   0.00000  Uiso   1.00
H532   H     0.58225   0.45931   0.98154   0.00000  Uiso   1.00
H533   H     0.73856   0.27157   0.99873   0.00000  Uiso   1.00
H534   H     0.44089   0.23694   0.95451   0.00000  Uiso   1.00
H535   H     0.52744   0.57894   0.00848   0.00000  Uiso   1.00
H536   H     0.85704   0.18305   0.04472   0.00000  Uiso   1.00
H537   H     0.49437   0.24224   0.22518   0.00000  Uiso   1.00
H538   H     0.41154   0.19401   0.20898   0.00000  Uiso   1.00
H539   H     0.45257   0.35621   0.23457   0.00000  Uiso   1.00
H540   H     0.60888   0.16847   0.25175   0.00000  Uiso   1.00
H541   H     0.33563   0.15326   0.15988   0.00000  Uiso   1.00
H542   H     0.42218   0.49526   0.21384   0.00000  Uiso   1.00
H543   H     0.75179   0.09937   0.25008   0.00000  Uiso   1.00
O544   O     0.33597   0.16516   0.04220   0.00000  Uiso   1.00
O545   O     0.44953   0.61385   0.11300   0.00000  Uiso   1.00
O546   O     0.88197   0.09444   0.16055   0.00000  Uiso   1.00
N547   N     0.42749   0.22385   0.00507   0.00000  Uiso   1.00
N548   N     0.50840   0.54360   0.05552   0.00000  Uiso   1.00
N549   N     0.81656   0.17349   0.08941   0.00000  Uiso   1.00
N550   N     0.37086   0.17882   0.11558   0.00000  Uiso   1.00
N551   N     0.45177   0.49857   0.16603   0.00000  Uiso   1.00
N552   N     0.75992   0.12846   0.19991   0.00000  Uiso   1.00
