data_job_02243
_audit_creation_date              2018-12-19
_audit_creation_method            'Materials Studio'
_symmetry_space_group_name_H-M    'P1'
_symmetry_Int_Tables_number       1
_symmetry_cell_setting            triclinic
loop_
_symmetry_equiv_pos_as_xyz
  x,y,z
_cell_length_a                    42.2954
_cell_length_b                    11.7634
_cell_length_c                    13.9297
_cell_angle_alpha                 90.0000
_cell_angle_beta                  105.5067
_cell_angle_gamma                 90.0000
loop_
_atom_site_label
_atom_site_type_symbol
_atom_site_fract_x
_atom_site_fract_y
_atom_site_fract_z
_atom_site_U_iso_or_equiv
_atom_site_adp_type
_atom_site_occupancy
C1     C     0.15836   0.82586   0.63921   0.00000  Uiso   1.00
C2     C     0.12539   0.84376   0.56295   0.00000  Uiso   1.00
C3     C     0.09741   0.88848   0.58264   0.00000  Uiso   1.00
C4     C     0.06970   0.89797   0.50273   0.00000  Uiso   1.00
C5     C     0.01845   0.93089   0.39894   0.00000  Uiso   1.00
C6     C     0.16655   0.70020   0.63361   0.00000  Uiso   1.00
C7     C     0.17318   0.62423   0.71271   0.00000  Uiso   1.00
C8     C     0.18013   0.51288   0.69228   0.00000  Uiso   1.00
C9     C     0.19282   0.32295   0.69820   0.00000  Uiso   1.00
C10    C     0.18351   0.89065   0.59984   0.00000  Uiso   1.00
C11    C     0.20441   0.97479   0.65055   0.00000  Uiso   1.00
C12    C     0.22563   0.02377   0.60170   0.00000  Uiso   1.00
C13    C     0.26465   0.12954   0.55519   0.00000  Uiso   1.00
C14    C     0.15890   0.76320   0.46229   0.00000  Uiso   1.00
C15    C     0.12568   0.80972   0.46686   0.00000  Uiso   1.00
C16    C     0.09801   0.81915   0.38689   0.00000  Uiso   1.00
C17    C     0.06999   0.86388   0.40646   0.00000  Uiso   1.00
C18    C     0.16685   0.66617   0.53752   0.00000  Uiso   1.00
C19    C     0.17379   0.55490   0.51697   0.00000  Uiso   1.00
C20    C     0.18043   0.47878   0.59601   0.00000  Uiso   1.00
C21    C     0.18380   0.85662   0.50374   0.00000  Uiso   1.00
C22    C     0.20500   0.90547   0.45480   0.00000  Uiso   1.00
C23    C     0.22593   0.98967   0.50543   0.00000  Uiso   1.00
H24    H     0.15813   0.85235   0.71403   0.00000  Uiso   1.00
H25    H     0.09719   0.91479   0.65702   0.00000  Uiso   1.00
H26    H     0.17296   0.65059   0.78707   0.00000  Uiso   1.00
H27    H     0.20417   0.00111   0.72491   0.00000  Uiso   1.00
H28    H     0.02975   0.96898   0.55143   0.00000  Uiso   1.00
H29    H     0.18953   0.41191   0.82566   0.00000  Uiso   1.00
H30    H     0.25535   0.15103   0.69460   0.00000  Uiso   1.00
H31    H     0.15913   0.73670   0.38748   0.00000  Uiso   1.00
H32    H     0.09824   0.79281   0.31254   0.00000  Uiso   1.00
H33    H     0.17401   0.52860   0.44259   0.00000  Uiso   1.00
H34    H     0.20523   0.87911   0.38044   0.00000  Uiso   1.00
H35    H     0.03060   0.86997   0.27184   0.00000  Uiso   1.00
H36    H     0.19038   0.31289   0.54607   0.00000  Uiso   1.00
H37    H     0.25620   0.05201   0.41501   0.00000  Uiso   1.00
O38    O     0.99010   0.95843   0.36824   0.00000  Uiso   1.00
O39    O     0.19973   0.22759   0.72802   0.00000  Uiso   1.00
O40    O     0.28608   0.19730   0.55608   0.00000  Uiso   1.00
N41    N     0.03831   0.93800   0.49591   0.00000  Uiso   1.00
N42    N     0.18768   0.41717   0.75229   0.00000  Uiso   1.00
N43    N     0.24923   0.10816   0.62978   0.00000  Uiso   1.00
N44    N     0.03877   0.88472   0.34547   0.00000  Uiso   1.00
N45    N     0.18815   0.36389   0.60185   0.00000  Uiso   1.00
N46    N     0.24969   0.05488   0.47933   0.00000  Uiso   1.00
C47    C     0.65836   0.32586   0.63921   0.00000  Uiso   1.00
C48    C     0.62539   0.34376   0.56295   0.00000  Uiso   1.00
C49    C     0.59741   0.38848   0.58264   0.00000  Uiso   1.00
C50    C     0.56970   0.39797   0.50273   0.00000  Uiso   1.00
C51    C     0.51845   0.43089   0.39894   0.00000  Uiso   1.00
C52    C     0.66655   0.20020   0.63361   0.00000  Uiso   1.00
C53    C     0.67318   0.12423   0.71271   0.00000  Uiso   1.00
C54    C     0.68013   0.01288   0.69228   0.00000  Uiso   1.00
C55    C     0.69282   0.82295   0.69820   0.00000  Uiso   1.00
C56    C     0.68351   0.39065   0.59984   0.00000  Uiso   1.00
C57    C     0.70441   0.47479   0.65055   0.00000  Uiso   1.00
C58    C     0.72563   0.52377   0.60170   0.00000  Uiso   1.00
C59    C     0.76465   0.62954   0.55519   0.00000  Uiso   1.00
C60    C     0.65890   0.26320   0.46229   0.00000  Uiso   1.00
C61    C     0.62568   0.30972   0.46686   0.00000  Uiso   1.00
C62    C     0.59801   0.31915   0.38689   0.00000  Uiso   1.00
C63    C     0.56999   0.36388   0.40646   0.00000  Uiso   1.00
C64    C     0.66685   0.16617   0.53752   0.00000  Uiso   1.00
C65    C     0.67379   0.05490   0.51697   0.00000  Uiso   1.00
C66    C     0.68043   0.97878   0.59601   0.00000  Uiso   1.00
C67    C     0.68380   0.35662   0.50374   0.00000  Uiso   1.00
C68    C     0.70500   0.40547   0.45480   0.00000  Uiso   1.00
C69    C     0.72593   0.48967   0.50543   0.00000  Uiso   1.00
H70    H     0.65813   0.35235   0.71403   0.00000  Uiso   1.00
H71    H     0.59719   0.41479   0.65702   0.00000  Uiso   1.00
H72    H     0.67296   0.15059   0.78707   0.00000  Uiso   1.00
H73    H     0.70417   0.50111   0.72491   0.00000  Uiso   1.00
H74    H     0.52975   0.46898   0.55143   0.00000  Uiso   1.00
H75    H     0.68953   0.91191   0.82566   0.00000  Uiso   1.00
H76    H     0.75535   0.65103   0.69460   0.00000  Uiso   1.00
H77    H     0.65913   0.23670   0.38748   0.00000  Uiso   1.00
H78    H     0.59824   0.29281   0.31254   0.00000  Uiso   1.00
H79    H     0.67401   0.02860   0.44259   0.00000  Uiso   1.00
H80    H     0.70523   0.37911   0.38044   0.00000  Uiso   1.00
H81    H     0.53060   0.36997   0.27184   0.00000  Uiso   1.00
H82    H     0.69038   0.81289   0.54607   0.00000  Uiso   1.00
H83    H     0.75620   0.55201   0.41501   0.00000  Uiso   1.00
O84    O     0.49010   0.45843   0.36824   0.00000  Uiso   1.00
O85    O     0.69973   0.72759   0.72802   0.00000  Uiso   1.00
O86    O     0.78608   0.69730   0.55608   0.00000  Uiso   1.00
N87    N     0.53831   0.43800   0.49591   0.00000  Uiso   1.00
N88    N     0.68768   0.91717   0.75229   0.00000  Uiso   1.00
N89    N     0.74923   0.60816   0.62978   0.00000  Uiso   1.00
N90    N     0.53877   0.38472   0.34547   0.00000  Uiso   1.00
N91    N     0.68815   0.86389   0.60185   0.00000  Uiso   1.00
N92    N     0.74969   0.55488   0.47933   0.00000  Uiso   1.00
C93    C     0.84164   0.82586   0.86079   0.00000  Uiso   1.00
C94    C     0.87461   0.84376   0.93705   0.00000  Uiso   1.00
C95    C     0.90259   0.88848   0.91736   0.00000  Uiso   1.00
C96    C     0.93030   0.89797   0.99727   0.00000  Uiso   1.00
C97    C     0.98155   0.93089   0.10106   0.00000  Uiso   1.00
C98    C     0.83345   0.70020   0.86639   0.00000  Uiso   1.00
C99    C     0.82682   0.62423   0.78729   0.00000  Uiso   1.00
C100   C     0.81987   0.51288   0.80772   0.00000  Uiso   1.00
C101   C     0.80718   0.32295   0.80180   0.00000  Uiso   1.00
C102   C     0.81649   0.89065   0.90016   0.00000  Uiso   1.00
C103   C     0.79559   0.97479   0.84945   0.00000  Uiso   1.00
C104   C     0.77437   0.02377   0.89830   0.00000  Uiso   1.00
C105   C     0.73535   0.12954   0.94481   0.00000  Uiso   1.00
C106   C     0.84110   0.76320   0.03771   0.00000  Uiso   1.00
C107   C     0.87432   0.80972   0.03314   0.00000  Uiso   1.00
C108   C     0.90199   0.81915   0.11311   0.00000  Uiso   1.00
C109   C     0.93001   0.86388   0.09354   0.00000  Uiso   1.00
C110   C     0.83315   0.66617   0.96248   0.00000  Uiso   1.00
C111   C     0.82621   0.55490   0.98303   0.00000  Uiso   1.00
C112   C     0.81957   0.47878   0.90399   0.00000  Uiso   1.00
C113   C     0.81620   0.85662   0.99626   0.00000  Uiso   1.00
C114   C     0.79500   0.90547   0.04520   0.00000  Uiso   1.00
C115   C     0.77407   0.98967   0.99457   0.00000  Uiso   1.00
H116   H     0.84187   0.85235   0.78597   0.00000  Uiso   1.00
H117   H     0.90281   0.91479   0.84298   0.00000  Uiso   1.00
H118   H     0.82704   0.65059   0.71293   0.00000  Uiso   1.00
H119   H     0.79583   0.00111   0.77509   0.00000  Uiso   1.00
H120   H     0.97025   0.96898   0.94857   0.00000  Uiso   1.00
H121   H     0.81047   0.41191   0.67434   0.00000  Uiso   1.00
H122   H     0.74465   0.15103   0.80540   0.00000  Uiso   1.00
H123   H     0.84087   0.73670   0.11252   0.00000  Uiso   1.00
H124   H     0.90176   0.79281   0.18746   0.00000  Uiso   1.00
H125   H     0.82599   0.52860   0.05741   0.00000  Uiso   1.00
H126   H     0.79477   0.87911   0.11956   0.00000  Uiso   1.00
H127   H     0.96940   0.86997   0.22816   0.00000  Uiso   1.00
H128   H     0.80962   0.31289   0.95393   0.00000  Uiso   1.00
H129   H     0.74380   0.05201   0.08499   0.00000  Uiso   1.00
O130   O     0.00990   0.95843   0.13176   0.00000  Uiso   1.00
O131   O     0.80027   0.22759   0.77198   0.00000  Uiso   1.00
O132   O     0.71392   0.19730   0.94392   0.00000  Uiso   1.00
N133   N     0.96169   0.93800   0.00409   0.00000  Uiso   1.00
N134   N     0.81232   0.41717   0.74771   0.00000  Uiso   1.00
N135   N     0.75077   0.10816   0.87022   0.00000  Uiso   1.00
N136   N     0.96123   0.88472   0.15453   0.00000  Uiso   1.00
N137   N     0.81185   0.36389   0.89815   0.00000  Uiso   1.00
N138   N     0.75031   0.05488   0.02067   0.00000  Uiso   1.00
C139   C     0.34164   0.32586   0.86079   0.00000  Uiso   1.00
C140   C     0.37461   0.34376   0.93705   0.00000  Uiso   1.00
C141   C     0.40259   0.38848   0.91736   0.00000  Uiso   1.00
C142   C     0.43030   0.39797   0.99727   0.00000  Uiso   1.00
C143   C     0.48155   0.43089   0.10106   0.00000  Uiso   1.00
C144   C     0.33345   0.20020   0.86639   0.00000  Uiso   1.00
C145   C     0.32682   0.12423   0.78729   0.00000  Uiso   1.00
C146   C     0.31987   0.01288   0.80772   0.00000  Uiso   1.00
C147   C     0.30718   0.82295   0.80180   0.00000  Uiso   1.00
C148   C     0.31649   0.39065   0.90016   0.00000  Uiso   1.00
C149   C     0.29559   0.47479   0.84945   0.00000  Uiso   1.00
C150   C     0.27437   0.52377   0.89830   0.00000  Uiso   1.00
C151   C     0.23535   0.62954   0.94481   0.00000  Uiso   1.00
C152   C     0.34110   0.26320   0.03771   0.00000  Uiso   1.00
C153   C     0.37432   0.30972   0.03314   0.00000  Uiso   1.00
C154   C     0.40199   0.31915   0.11311   0.00000  Uiso   1.00
C155   C     0.43001   0.36388   0.09354   0.00000  Uiso   1.00
C156   C     0.33315   0.16617   0.96248   0.00000  Uiso   1.00
C157   C     0.32621   0.05490   0.98303   0.00000  Uiso   1.00
C158   C     0.31957   0.97878   0.90399   0.00000  Uiso   1.00
C159   C     0.31620   0.35662   0.99626   0.00000  Uiso   1.00
C160   C     0.29500   0.40547   0.04520   0.00000  Uiso   1.00
C161   C     0.27407   0.48967   0.99457   0.00000  Uiso   1.00
H162   H     0.34187   0.35235   0.78597   0.00000  Uiso   1.00
H163   H     0.40281   0.41479   0.84298   0.00000  Uiso   1.00
H164   H     0.32704   0.15059   0.71293   0.00000  Uiso   1.00
H165   H     0.29583   0.50111   0.77509   0.00000  Uiso   1.00
H166   H     0.47025   0.46898   0.94857   0.00000  Uiso   1.00
H167   H     0.31047   0.91191   0.67434   0.00000  Uiso   1.00
H168   H     0.24465   0.65103   0.80540   0.00000  Uiso   1.00
H169   H     0.34087   0.23670   0.11252   0.00000  Uiso   1.00
H170   H     0.40176   0.29281   0.18746   0.00000  Uiso   1.00
H171   H     0.32599   0.02860   0.05741   0.00000  Uiso   1.00
H172   H     0.29477   0.37911   0.11956   0.00000  Uiso   1.00
H173   H     0.46940   0.36997   0.22816   0.00000  Uiso   1.00
H174   H     0.30962   0.81289   0.95393   0.00000  Uiso   1.00
H175   H     0.24380   0.55201   0.08499   0.00000  Uiso   1.00
O176   O     0.50990   0.45843   0.13176   0.00000  Uiso   1.00
O177   O     0.30027   0.72759   0.77198   0.00000  Uiso   1.00
O178   O     0.21392   0.69730   0.94392   0.00000  Uiso   1.00
N179   N     0.46169   0.43800   0.00409   0.00000  Uiso   1.00
N180   N     0.31232   0.91717   0.74771   0.00000  Uiso   1.00
N181   N     0.25077   0.60816   0.87022   0.00000  Uiso   1.00
N182   N     0.46123   0.38472   0.15453   0.00000  Uiso   1.00
N183   N     0.31185   0.86389   0.89815   0.00000  Uiso   1.00
N184   N     0.25031   0.55488   0.02067   0.00000  Uiso   1.00
C185   C     0.84164   0.17414   0.36079   0.00000  Uiso   1.00
C186   C     0.87461   0.15624   0.43705   0.00000  Uiso   1.00
C187   C     0.90259   0.11152   0.41736   0.00000  Uiso   1.00
C188   C     0.93030   0.10203   0.49727   0.00000  Uiso   1.00
C189   C     0.98155   0.06911   0.60106   0.00000  Uiso   1.00
C190   C     0.83345   0.29980   0.36639   0.00000  Uiso   1.00
C191   C     0.82682   0.37577   0.28729   0.00000  Uiso   1.00
C192   C     0.81987   0.48712   0.30772   0.00000  Uiso   1.00
C193   C     0.80718   0.67705   0.30180   0.00000  Uiso   1.00
C194   C     0.81649   0.10935   0.40016   0.00000  Uiso   1.00
C195   C     0.79559   0.02521   0.34945   0.00000  Uiso   1.00
C196   C     0.77437   0.97623   0.39830   0.00000  Uiso   1.00
C197   C     0.73535   0.87046   0.44481   0.00000  Uiso   1.00
C198   C     0.84110   0.23680   0.53771   0.00000  Uiso   1.00
C199   C     0.87432   0.19028   0.53314   0.00000  Uiso   1.00
C200   C     0.90199   0.18085   0.61311   0.00000  Uiso   1.00
C201   C     0.93001   0.13612   0.59354   0.00000  Uiso   1.00
C202   C     0.83315   0.33383   0.46248   0.00000  Uiso   1.00
C203   C     0.82621   0.44510   0.48303   0.00000  Uiso   1.00
C204   C     0.81957   0.52122   0.40399   0.00000  Uiso   1.00
C205   C     0.81620   0.14338   0.49626   0.00000  Uiso   1.00
C206   C     0.79500   0.09453   0.54520   0.00000  Uiso   1.00
C207   C     0.77407   0.01033   0.49457   0.00000  Uiso   1.00
H208   H     0.84187   0.14765   0.28597   0.00000  Uiso   1.00
H209   H     0.90281   0.08521   0.34298   0.00000  Uiso   1.00
H210   H     0.82704   0.34941   0.21293   0.00000  Uiso   1.00
H211   H     0.79583   0.99889   0.27509   0.00000  Uiso   1.00
H212   H     0.97025   0.03102   0.44857   0.00000  Uiso   1.00
H213   H     0.81047   0.58809   0.17434   0.00000  Uiso   1.00
H214   H     0.74465   0.84897   0.30540   0.00000  Uiso   1.00
H215   H     0.84087   0.26330   0.61252   0.00000  Uiso   1.00
H216   H     0.90176   0.20719   0.68746   0.00000  Uiso   1.00
H217   H     0.82599   0.47140   0.55741   0.00000  Uiso   1.00
H218   H     0.79477   0.12089   0.61956   0.00000  Uiso   1.00
H219   H     0.96940   0.13003   0.72816   0.00000  Uiso   1.00
H220   H     0.80962   0.68711   0.45393   0.00000  Uiso   1.00
H221   H     0.74380   0.94799   0.58499   0.00000  Uiso   1.00
O222   O     0.00990   0.04157   0.63176   0.00000  Uiso   1.00
O223   O     0.80027   0.77241   0.27198   0.00000  Uiso   1.00
O224   O     0.71392   0.80270   0.44392   0.00000  Uiso   1.00
N225   N     0.96169   0.06200   0.50409   0.00000  Uiso   1.00
N226   N     0.81232   0.58283   0.24771   0.00000  Uiso   1.00
N227   N     0.75077   0.89184   0.37022   0.00000  Uiso   1.00
N228   N     0.96123   0.11528   0.65453   0.00000  Uiso   1.00
N229   N     0.81185   0.63611   0.39815   0.00000  Uiso   1.00
N230   N     0.75031   0.94512   0.52067   0.00000  Uiso   1.00
C231   C     0.34164   0.67414   0.36079   0.00000  Uiso   1.00
C232   C     0.37461   0.65624   0.43705   0.00000  Uiso   1.00
C233   C     0.40259   0.61152   0.41736   0.00000  Uiso   1.00
C234   C     0.43030   0.60203   0.49727   0.00000  Uiso   1.00
C235   C     0.48155   0.56911   0.60106   0.00000  Uiso   1.00
C236   C     0.33345   0.79980   0.36639   0.00000  Uiso   1.00
C237   C     0.32682   0.87577   0.28729   0.00000  Uiso   1.00
C238   C     0.31987   0.98712   0.30772   0.00000  Uiso   1.00
C239   C     0.30718   0.17705   0.30180   0.00000  Uiso   1.00
C240   C     0.31649   0.60935   0.40016   0.00000  Uiso   1.00
C241   C     0.29559   0.52521   0.34945   0.00000  Uiso   1.00
C242   C     0.27437   0.47623   0.39830   0.00000  Uiso   1.00
C243   C     0.23535   0.37046   0.44481   0.00000  Uiso   1.00
C244   C     0.34110   0.73680   0.53771   0.00000  Uiso   1.00
C245   C     0.37432   0.69028   0.53314   0.00000  Uiso   1.00
C246   C     0.40199   0.68085   0.61311   0.00000  Uiso   1.00
C247   C     0.43001   0.63612   0.59354   0.00000  Uiso   1.00
C248   C     0.33315   0.83383   0.46248   0.00000  Uiso   1.00
C249   C     0.32621   0.94510   0.48303   0.00000  Uiso   1.00
C250   C     0.31957   0.02122   0.40399   0.00000  Uiso   1.00
C251   C     0.31620   0.64338   0.49626   0.00000  Uiso   1.00
C252   C     0.29500   0.59453   0.54520   0.00000  Uiso   1.00
C253   C     0.27407   0.51033   0.49457   0.00000  Uiso   1.00
H254   H     0.34187   0.64765   0.28597   0.00000  Uiso   1.00
H255   H     0.40281   0.58521   0.34298   0.00000  Uiso   1.00
H256   H     0.32704   0.84941   0.21293   0.00000  Uiso   1.00
H257   H     0.29583   0.49889   0.27509   0.00000  Uiso   1.00
H258   H     0.47025   0.53102   0.44857   0.00000  Uiso   1.00
H259   H     0.31047   0.08809   0.17434   0.00000  Uiso   1.00
H260   H     0.24465   0.34897   0.30540   0.00000  Uiso   1.00
H261   H     0.34087   0.76330   0.61252   0.00000  Uiso   1.00
H262   H     0.40176   0.70719   0.68746   0.00000  Uiso   1.00
H263   H     0.32599   0.97140   0.55741   0.00000  Uiso   1.00
H264   H     0.29477   0.62089   0.61956   0.00000  Uiso   1.00
H265   H     0.46940   0.63003   0.72816   0.00000  Uiso   1.00
H266   H     0.30962   0.18711   0.45393   0.00000  Uiso   1.00
H267   H     0.24380   0.44799   0.58499   0.00000  Uiso   1.00
O268   O     0.50990   0.54157   0.63176   0.00000  Uiso   1.00
O269   O     0.30027   0.27241   0.27198   0.00000  Uiso   1.00
O270   O     0.21392   0.30270   0.44392   0.00000  Uiso   1.00
N271   N     0.46169   0.56200   0.50409   0.00000  Uiso   1.00
N272   N     0.31232   0.08283   0.24771   0.00000  Uiso   1.00
N273   N     0.25077   0.39184   0.37022   0.00000  Uiso   1.00
N274   N     0.46123   0.61528   0.65453   0.00000  Uiso   1.00
N275   N     0.31185   0.13611   0.39815   0.00000  Uiso   1.00
N276   N     0.25031   0.44512   0.52067   0.00000  Uiso   1.00
C277   C     0.15836   0.17414   0.13921   0.00000  Uiso   1.00
C278   C     0.12539   0.15624   0.06295   0.00000  Uiso   1.00
C279   C     0.09741   0.11152   0.08264   0.00000  Uiso   1.00
C280   C     0.06970   0.10203   0.00273   0.00000  Uiso   1.00
C281   C     0.01845   0.06911   0.89894   0.00000  Uiso   1.00
C282   C     0.16655   0.29980   0.13361   0.00000  Uiso   1.00
C283   C     0.17318   0.37577   0.21271   0.00000  Uiso   1.00
C284   C     0.18013   0.48712   0.19228   0.00000  Uiso   1.00
C285   C     0.19282   0.67705   0.19820   0.00000  Uiso   1.00
C286   C     0.18351   0.10935   0.09984   0.00000  Uiso   1.00
C287   C     0.20441   0.02521   0.15055   0.00000  Uiso   1.00
C288   C     0.22563   0.97623   0.10170   0.00000  Uiso   1.00
C289   C     0.26465   0.87046   0.05519   0.00000  Uiso   1.00
C290   C     0.15890   0.23680   0.96229   0.00000  Uiso   1.00
C291   C     0.12568   0.19028   0.96686   0.00000  Uiso   1.00
C292   C     0.09801   0.18085   0.88689   0.00000  Uiso   1.00
C293   C     0.06999   0.13612   0.90646   0.00000  Uiso   1.00
C294   C     0.16685   0.33383   0.03752   0.00000  Uiso   1.00
C295   C     0.17379   0.44510   0.01697   0.00000  Uiso   1.00
C296   C     0.18043   0.52122   0.09601   0.00000  Uiso   1.00
C297   C     0.18380   0.14338   0.00374   0.00000  Uiso   1.00
C298   C     0.20500   0.09453   0.95480   0.00000  Uiso   1.00
C299   C     0.22593   0.01033   0.00543   0.00000  Uiso   1.00
H300   H     0.15813   0.14765   0.21403   0.00000  Uiso   1.00
H301   H     0.09719   0.08521   0.15702   0.00000  Uiso   1.00
H302   H     0.17296   0.34941   0.28707   0.00000  Uiso   1.00
H303   H     0.20417   0.99889   0.22491   0.00000  Uiso   1.00
H304   H     0.02975   0.03102   0.05143   0.00000  Uiso   1.00
H305   H     0.18953   0.58809   0.32566   0.00000  Uiso   1.00
H306   H     0.25535   0.84897   0.19460   0.00000  Uiso   1.00
H307   H     0.15913   0.26330   0.88748   0.00000  Uiso   1.00
H308   H     0.09824   0.20719   0.81254   0.00000  Uiso   1.00
H309   H     0.17401   0.47140   0.94259   0.00000  Uiso   1.00
H310   H     0.20523   0.12089   0.88044   0.00000  Uiso   1.00
H311   H     0.03060   0.13003   0.77184   0.00000  Uiso   1.00
H312   H     0.19038   0.68711   0.04607   0.00000  Uiso   1.00
H313   H     0.25620   0.94799   0.91501   0.00000  Uiso   1.00
O314   O     0.99010   0.04157   0.86824   0.00000  Uiso   1.00
O315   O     0.19973   0.77241   0.22802   0.00000  Uiso   1.00
O316   O     0.28608   0.80270   0.05608   0.00000  Uiso   1.00
N317   N     0.03831   0.06200   0.99591   0.00000  Uiso   1.00
N318   N     0.18768   0.58283   0.25229   0.00000  Uiso   1.00
N319   N     0.24923   0.89184   0.12978   0.00000  Uiso   1.00
N320   N     0.03877   0.11528   0.84547   0.00000  Uiso   1.00
N321   N     0.18815   0.63611   0.10185   0.00000  Uiso   1.00
N322   N     0.24969   0.94512   0.97933   0.00000  Uiso   1.00
C323   C     0.65836   0.67414   0.13921   0.00000  Uiso   1.00
C324   C     0.62539   0.65624   0.06295   0.00000  Uiso   1.00
C325   C     0.59741   0.61152   0.08264   0.00000  Uiso   1.00
C326   C     0.56970   0.60203   0.00273   0.00000  Uiso   1.00
C327   C     0.51845   0.56911   0.89894   0.00000  Uiso   1.00
C328   C     0.66655   0.79980   0.13361   0.00000  Uiso   1.00
C329   C     0.67318   0.87577   0.21271   0.00000  Uiso   1.00
C330   C     0.68013   0.98712   0.19228   0.00000  Uiso   1.00
C331   C     0.69282   0.17705   0.19820   0.00000  Uiso   1.00
C332   C     0.68351   0.60935   0.09984   0.00000  Uiso   1.00
C333   C     0.70441   0.52521   0.15055   0.00000  Uiso   1.00
C334   C     0.72563   0.47623   0.10170   0.00000  Uiso   1.00
C335   C     0.76465   0.37046   0.05519   0.00000  Uiso   1.00
C336   C     0.65890   0.73680   0.96229   0.00000  Uiso   1.00
C337   C     0.62568   0.69028   0.96686   0.00000  Uiso   1.00
C338   C     0.59801   0.68085   0.88689   0.00000  Uiso   1.00
C339   C     0.56999   0.63612   0.90646   0.00000  Uiso   1.00
C340   C     0.66685   0.83383   0.03752   0.00000  Uiso   1.00
C341   C     0.67379   0.94510   0.01697   0.00000  Uiso   1.00
C342   C     0.68043   0.02122   0.09601   0.00000  Uiso   1.00
C343   C     0.68380   0.64338   0.00374   0.00000  Uiso   1.00
C344   C     0.70500   0.59453   0.95480   0.00000  Uiso   1.00
C345   C     0.72593   0.51033   0.00543   0.00000  Uiso   1.00
H346   H     0.65813   0.64765   0.21403   0.00000  Uiso   1.00
H347   H     0.59719   0.58521   0.15702   0.00000  Uiso   1.00
H348   H     0.67296   0.84941   0.28707   0.00000  Uiso   1.00
H349   H     0.70417   0.49889   0.22491   0.00000  Uiso   1.00
H350   H     0.52975   0.53102   0.05143   0.00000  Uiso   1.00
H351   H     0.68953   0.08809   0.32566   0.00000  Uiso   1.00
H352   H     0.75535   0.34897   0.19460   0.00000  Uiso   1.00
H353   H     0.65913   0.76330   0.88748   0.00000  Uiso   1.00
H354   H     0.59824   0.70719   0.81254   0.00000  Uiso   1.00
H355   H     0.67401   0.97140   0.94259   0.00000  Uiso   1.00
H356   H     0.70523   0.62089   0.88044   0.00000  Uiso   1.00
H357   H     0.53060   0.63003   0.77184   0.00000  Uiso   1.00
H358   H     0.69038   0.18711   0.04607   0.00000  Uiso   1.00
H359   H     0.75620   0.44799   0.91501   0.00000  Uiso   1.00
O360   O     0.49010   0.54157   0.86824   0.00000  Uiso   1.00
O361   O     0.69973   0.27241   0.22802   0.00000  Uiso   1.00
O362   O     0.78608   0.30270   0.05608   0.00000  Uiso   1.00
N363   N     0.53831   0.56200   0.99591   0.00000  Uiso   1.00
N364   N     0.68768   0.08283   0.25229   0.00000  Uiso   1.00
N365   N     0.74923   0.39184   0.12978   0.00000  Uiso   1.00
N366   N     0.53877   0.61528   0.84547   0.00000  Uiso   1.00
N367   N     0.68815   0.13611   0.10185   0.00000  Uiso   1.00
N368   N     0.74969   0.44512   0.97933   0.00000  Uiso   1.00
