data_job_06409
_audit_creation_date              2018-12-19
_audit_creation_method            'Materials Studio'
_symmetry_space_group_name_H-M    'P1'
_symmetry_Int_Tables_number       1
_symmetry_cell_setting            triclinic
loop_
_symmetry_equiv_pos_as_xyz
  x,y,z
_cell_length_a                    17.1537
_cell_length_b                    16.6899
_cell_length_c                    15.5790
_cell_angle_alpha                 99.5283
_cell_angle_beta                  99.7153
_cell_angle_gamma                 97.9645
loop_
_atom_site_label
_atom_site_type_symbol
_atom_site_fract_x
_atom_site_fract_y
_atom_site_fract_z
_atom_site_U_iso_or_equiv
_atom_site_adp_type
_atom_site_occupancy
C1     C     0.14380   0.00861   0.56878   0.00000  Uiso   1.00
C2     C     0.22193   0.97721   0.59579   0.00000  Uiso   1.00
C3     C     0.23843   0.90026   0.56272   0.00000  Uiso   1.00
C4     C     0.31343   0.88329   0.59592   0.00000  Uiso   1.00
C5     C     0.42616   0.82571   0.62816   0.00000  Uiso   1.00
C6     C     0.11349   0.03317   0.65431   0.00000  Uiso   1.00
C7     C     0.03880   0.00327   0.67043   0.00000  Uiso   1.00
C8     C     0.02251   0.03341   0.75289   0.00000  Uiso   1.00
C9     C     0.96686   0.06274   0.87594   0.00000  Uiso   1.00
C10    C     0.16713   0.08858   0.53697   0.00000  Uiso   1.00
C11    C     0.13754   0.10530   0.45445   0.00000  Uiso   1.00
C12    C     0.16639   0.18211   0.43813   0.00000  Uiso   1.00
C13    C     0.19403   0.29748   0.37901   0.00000  Uiso   1.00
C14    C     0.24764   0.11532   0.68656   0.00000  Uiso   1.00
C15    C     0.27833   0.03517   0.65976   0.00000  Uiso   1.00
C16    C     0.35333   0.01832   0.69302   0.00000  Uiso   1.00
C17    C     0.36994   0.94136   0.66001   0.00000  Uiso   1.00
C18    C     0.16989   0.09112   0.71828   0.00000  Uiso   1.00
C19    C     0.15370   0.12133   0.80073   0.00000  Uiso   1.00
C20    C     0.07902   0.09148   0.81697   0.00000  Uiso   1.00
C21    C     0.22354   0.14655   0.60094   0.00000  Uiso   1.00
C22    C     0.25244   0.22336   0.58475   0.00000  Uiso   1.00
C23    C     0.22290   0.24018   0.50222   0.00000  Uiso   1.00
H24    H     0.09988   0.96349   0.51899   0.00000  Uiso   1.00
H25    H     0.19476   0.85542   0.51322   0.00000  Uiso   1.00
H26    H     0.99517   0.95842   0.62091   0.00000  Uiso   1.00
H27    H     0.09389   0.06043   0.40496   0.00000  Uiso   1.00
H28    H     0.32482   0.76115   0.53506   0.00000  Uiso   1.00
H29    H     0.90395   0.97835   0.76212   0.00000  Uiso   1.00
H30    H     0.11212   0.19346   0.30675   0.00000  Uiso   1.00
H31    H     0.29156   0.16045   0.73637   0.00000  Uiso   1.00
H32    H     0.39697   0.06319   0.74253   0.00000  Uiso   1.00
H33    H     0.19737   0.16619   0.85022   0.00000  Uiso   1.00
H34    H     0.29609   0.26820   0.63427   0.00000  Uiso   1.00
H35    H     0.48894   0.92979   0.72118   0.00000  Uiso   1.00
H36    H     0.06806   0.14699   0.94823   0.00000  Uiso   1.00
H37    H     0.27624   0.36209   0.49287   0.00000  Uiso   1.00
O38    O     0.47275   0.77792   0.62828   0.00000  Uiso   1.00
O39    O     0.92058   0.06289   0.92615   0.00000  Uiso   1.00
O40    O     0.19370   0.34510   0.32873   0.00000  Uiso   1.00
N41    N     0.34899   0.81420   0.57801   0.00000  Uiso   1.00
N42    N     0.95550   0.01725   0.79029   0.00000  Uiso   1.00
N43    N     0.15011   0.21837   0.36458   0.00000  Uiso   1.00
N44    N     0.43730   0.90494   0.67815   0.00000  Uiso   1.00
N45    N     0.04381   0.10799   0.89044   0.00000  Uiso   1.00
N46    N     0.23842   0.30911   0.46472   0.00000  Uiso   1.00
C47    C     0.57867   0.14388   0.00398   0.00000  Uiso   1.00
C48    C     0.60194   0.22359   0.97164   0.00000  Uiso   1.00
C49    C     0.57192   0.24005   0.88912   0.00000  Uiso   1.00
C50    C     0.60083   0.31662   0.87227   0.00000  Uiso   1.00
C51    C     0.62835   0.43155   0.81239   0.00000  Uiso   1.00
C52    C     0.65676   0.11224   0.03049   0.00000  Uiso   1.00
C53    C     0.67282   0.03508   0.99745   0.00000  Uiso   1.00
C54    C     0.74787   0.01792   0.03015   0.00000  Uiso   1.00
C55    C     0.86047   0.95996   0.06168   0.00000  Uiso   1.00
C56    C     0.54906   0.16895   0.08984   0.00000  Uiso   1.00
C57    C     0.47458   0.13945   0.10673   0.00000  Uiso   1.00
C58    C     0.45896   0.17003   0.18941   0.00000  Uiso   1.00
C59    C     0.40435   0.20012   0.31309   0.00000  Uiso   1.00
C60    C     0.68338   0.25061   0.12078   0.00000  Uiso   1.00
C61    C     0.65882   0.28156   0.03509   0.00000  Uiso   1.00
C62    C     0.68778   0.35813   0.01835   0.00000  Uiso   1.00
C63    C     0.65781   0.37470   0.93582   0.00000  Uiso   1.00
C64    C     0.71364   0.17021   0.09393   0.00000  Uiso   1.00
C65    C     0.78867   0.15316   0.12668   0.00000  Uiso   1.00
C66    C     0.80485   0.07599   0.09370   0.00000  Uiso   1.00
C67    C     0.60594   0.22693   0.15329   0.00000  Uiso   1.00
C68    C     0.59043   0.25754   0.23596   0.00000  Uiso   1.00
C69    C     0.51594   0.22810   0.25296   0.00000  Uiso   1.00
H70    H     0.53439   0.09875   0.95459   0.00000  Uiso   1.00
H71    H     0.52791   0.19517   0.84004   0.00000  Uiso   1.00
H72    H     0.62879   0.99023   0.94837   0.00000  Uiso   1.00
H73    H     0.43058   0.09460   0.05762   0.00000  Uiso   1.00
H74    H     0.54584   0.32762   0.74101   0.00000  Uiso   1.00
H75    H     0.75853   0.89548   0.96944   0.00000  Uiso   1.00
H76    H     0.34057   0.11556   0.19983   0.00000  Uiso   1.00
H77    H     0.72766   0.29574   0.17017   0.00000  Uiso   1.00
H78    H     0.73179   0.40298   0.06746   0.00000  Uiso   1.00
H79    H     0.83267   0.19803   0.17578   0.00000  Uiso   1.00
H80    H     0.63446   0.30240   0.28503   0.00000  Uiso   1.00
H81    H     0.71132   0.49628   0.92559   0.00000  Uiso   1.00
H82    H     0.92401   0.06414   0.15402   0.00000  Uiso   1.00
H83    H     0.50605   0.28422   0.38441   0.00000  Uiso   1.00
O84    O     0.62783   0.47893   0.76183   0.00000  Uiso   1.00
O85    O     0.90687   0.91197   0.06153   0.00000  Uiso   1.00
O86    O     0.35851   0.20071   0.36379   0.00000  Uiso   1.00
N87    N     0.58421   0.35260   0.79856   0.00000  Uiso   1.00
N88    N     0.78307   0.94858   0.01211   0.00000  Uiso   1.00
N89    N     0.39231   0.15432   0.22751   0.00000  Uiso   1.00
N90    N     0.67325   0.44336   0.89788   0.00000  Uiso   1.00
N91    N     0.87211   0.03934   0.11143   0.00000  Uiso   1.00
N92    N     0.48136   0.24508   0.32683   0.00000  Uiso   1.00
C93    C     0.01099   0.57662   0.14118   0.00000  Uiso   1.00
C94    C     0.98092   0.60163   0.22676   0.00000  Uiso   1.00
C95    C     0.90645   0.57169   0.24337   0.00000  Uiso   1.00
C96    C     0.89034   0.60231   0.32578   0.00000  Uiso   1.00
C97    C     0.83504   0.63229   0.44899   0.00000  Uiso   1.00
C98    C     0.03382   0.65628   0.10858   0.00000  Uiso   1.00
C99    C     0.00385   0.67228   0.02583   0.00000  Uiso   1.00
C100   C     0.03229   0.74891   0.00876   0.00000  Uiso   1.00
C101   C     0.05917   0.86371   0.94848   0.00000  Uiso   1.00
C102   C     0.08938   0.54570   0.16826   0.00000  Uiso   1.00
C103   C     0.10614   0.46874   0.13566   0.00000  Uiso   1.00
C104   C     0.18136   0.45227   0.16882   0.00000  Uiso   1.00
C105   C     0.29452   0.39538   0.20119   0.00000  Uiso   1.00
C106   C     0.11481   0.68424   0.25801   0.00000  Uiso   1.00
C107   C     0.03731   0.66009   0.29021   0.00000  Uiso   1.00
C108   C     0.02131   0.69076   0.37262   0.00000  Uiso   1.00
C109   C     0.94683   0.66087   0.38935   0.00000  Uiso   1.00
C110   C     0.09021   0.71474   0.17203   0.00000  Uiso   1.00
C111   C     0.11871   0.79136   0.15508   0.00000  Uiso   1.00
C112   C     0.08878   0.80748   0.07233   0.00000  Uiso   1.00
C113   C     0.14578   0.60416   0.23172   0.00000  Uiso   1.00
C114   C     0.22099   0.58781   0.26492   0.00000  Uiso   1.00
C115   C     0.23785   0.51083   0.23239   0.00000  Uiso   1.00
H116   H     0.96709   0.53111   0.09178   0.00000  Uiso   1.00
H117   H     0.86282   0.52645   0.19424   0.00000  Uiso   1.00
H118   H     0.96021   0.62703   0.97674   0.00000  Uiso   1.00
H119   H     0.06249   0.42351   0.08656   0.00000  Uiso   1.00
H120   H     0.77207   0.54710   0.33581   0.00000  Uiso   1.00
H121   H     0.97745   0.75916   0.87718   0.00000  Uiso   1.00
H122   H     0.19311   0.33000   0.10876   0.00000  Uiso   1.00
H123   H     0.15871   0.72976   0.30741   0.00000  Uiso   1.00
H124   H     0.06496   0.73600   0.42171   0.00000  Uiso   1.00
H125   H     0.16234   0.83658   0.20420   0.00000  Uiso   1.00
H126   H     0.26462   0.63306   0.31403   0.00000  Uiso   1.00
H127   H     0.93613   0.71718   0.52043   0.00000  Uiso   1.00
H128   H     0.14151   0.92923   0.06180   0.00000  Uiso   1.00
H129   H     0.35717   0.50008   0.29338   0.00000  Uiso   1.00
O130   O     0.78896   0.63268   0.49941   0.00000  Uiso   1.00
O131   O     0.05841   0.91089   0.89770   0.00000  Uiso   1.00
O132   O     0.34135   0.34785   0.20153   0.00000  Uiso   1.00
N133   N     0.82356   0.58626   0.36358   0.00000  Uiso   1.00
N134   N     0.01556   0.78452   0.93480   0.00000  Uiso   1.00
N135   N     0.21719   0.38331   0.15128   0.00000  Uiso   1.00
N136   N     0.91184   0.67777   0.46293   0.00000  Uiso   1.00
N137   N     0.10384   0.87604   0.03414   0.00000  Uiso   1.00
N138   N     0.30547   0.47483   0.25063   0.00000  Uiso   1.00
C139   C     0.64432   0.07618   0.50412   0.00000  Uiso   1.00
C140   C     0.72185   0.10027   0.47193   0.00000  Uiso   1.00
C141   C     0.73784   0.06955   0.38953   0.00000  Uiso   1.00
C142   C     0.81233   0.09939   0.37279   0.00000  Uiso   1.00
C143   C     0.92411   0.12792   0.31314   0.00000  Uiso   1.00
C144   C     0.61340   0.15631   0.53035   0.00000  Uiso   1.00
C145   C     0.53822   0.17270   0.49708   0.00000  Uiso   1.00
C146   C     0.52141   0.24972   0.52953   0.00000  Uiso   1.00
C147   C     0.46481   0.36524   0.56062   0.00000  Uiso   1.00
C148   C     0.66887   0.04573   0.59013   0.00000  Uiso   1.00
C149   C     0.64030   0.96916   0.60714   0.00000  Uiso   1.00
C150   C     0.67018   0.95308   0.68993   0.00000  Uiso   1.00
C151   C     0.69969   0.89692   0.81384   0.00000  Uiso   1.00
C152   C     0.74816   0.18381   0.62092   0.00000  Uiso   1.00
C153   C     0.77825   0.15873   0.53537   0.00000  Uiso   1.00
C154   C     0.85273   0.18862   0.51876   0.00000  Uiso   1.00
C155   C     0.86883   0.15795   0.43635   0.00000  Uiso   1.00
C156   C     0.66980   0.21477   0.59379   0.00000  Uiso   1.00
C157   C     0.65310   0.29178   0.62630   0.00000  Uiso   1.00
C158   C     0.57791   0.30829   0.59308   0.00000  Uiso   1.00
C159   C     0.72527   0.10419   0.65357   0.00000  Uiso   1.00
C160   C     0.75519   0.08823   0.73636   0.00000  Uiso   1.00
C161   C     0.72668   0.01165   0.75349   0.00000  Uiso   1.00
H162   H     0.60041   0.03067   0.45473   0.00000  Uiso   1.00
H163   H     0.69418   0.02431   0.34045   0.00000  Uiso   1.00
H164   H     0.49458   0.12745   0.44799   0.00000  Uiso   1.00
H165   H     0.59665   0.92394   0.55803   0.00000  Uiso   1.00
H166   H     0.82300   0.04306   0.24171   0.00000  Uiso   1.00
H167   H     0.40213   0.26052   0.46848   0.00000  Uiso   1.00
H168   H     0.61736   0.83137   0.70053   0.00000  Uiso   1.00
H169   H     0.79207   0.22932   0.67032   0.00000  Uiso   1.00
H170   H     0.89636   0.23386   0.56786   0.00000  Uiso   1.00
H171   H     0.69676   0.33700   0.67540   0.00000  Uiso   1.00
H172   H     0.79883   0.13349   0.78544   0.00000  Uiso   1.00
H173   H     0.98710   0.21314   0.42629   0.00000  Uiso   1.00
H174   H     0.56622   0.43060   0.65306   0.00000  Uiso   1.00
H175   H     0.78146   0.00145   0.88510   0.00000  Uiso   1.00
O176   O     0.97019   0.12752   0.26270   0.00000  Uiso   1.00
O177   O     0.41801   0.41281   0.56023   0.00000  Uiso   1.00
O178   O     0.70040   0.84978   0.86466   0.00000  Uiso   1.00
N179   N     0.84731   0.08245   0.29922   0.00000  Uiso   1.00
N180   N     0.45383   0.28577   0.51123   0.00000  Uiso   1.00
N181   N     0.65504   0.88456   0.72817   0.00000  Uiso   1.00
N182   N     0.93562   0.17397   0.39854   0.00000  Uiso   1.00
N183   N     0.54213   0.37729   0.61054   0.00000  Uiso   1.00
N184   N     0.74334   0.97608   0.82749   0.00000  Uiso   1.00
C185   C     0.07917   0.50950   0.64110   0.00000  Uiso   1.00
C186   C     0.10366   0.47856   0.72682   0.00000  Uiso   1.00
C187   C     0.07466   0.40200   0.74355   0.00000  Uiso   1.00
C188   C     0.10459   0.38542   0.82608   0.00000  Uiso   1.00
C189   C     0.13399   0.32855   0.94951   0.00000  Uiso   1.00
C190   C     0.15666   0.53312   0.60865   0.00000  Uiso   1.00
C191   C     0.17221   0.50244   0.52602   0.00000  Uiso   1.00
C192   C     0.24674   0.53181   0.50907   0.00000  Uiso   1.00
C193   C     0.35840   0.55969   0.44901   0.00000  Uiso   1.00
C194   C     0.04896   0.58993   0.66790   0.00000  Uiso   1.00
C195   C     0.97396   0.60703   0.63506   0.00000  Uiso   1.00
C196   C     0.95783   0.68424   0.66798   0.00000  Uiso   1.00
C197   C     0.90228   0.80033   0.69991   0.00000  Uiso   1.00
C198   C     0.18388   0.61620   0.75793   0.00000  Uiso   1.00
C199   C     0.16054   0.53652   0.79028   0.00000  Uiso   1.00
C200   C     0.19051   0.52006   0.87281   0.00000  Uiso   1.00
C201   C     0.16156   0.44349   0.88966   0.00000  Uiso   1.00
C202   C     0.21353   0.59107   0.67210   0.00000  Uiso   1.00
C203   C     0.28806   0.62050   0.65527   0.00000  Uiso   1.00
C204   C     0.30372   0.58987   0.57264   0.00000  Uiso   1.00
C205   C     0.10583   0.64789   0.73135   0.00000  Uiso   1.00
C206   C     0.08982   0.72509   0.76432   0.00000  Uiso   1.00
C207   C     0.01481   0.74230   0.73155   0.00000  Uiso   1.00
H208   H     0.03489   0.46437   0.59170   0.00000  Uiso   1.00
H209   H     0.03065   0.35716   0.69442   0.00000  Uiso   1.00
H210   H     0.12818   0.45760   0.47692   0.00000  Uiso   1.00
H211   H     0.92997   0.56217   0.58596   0.00000  Uiso   1.00
H212   H     0.05105   0.26384   0.83628   0.00000  Uiso   1.00
H213   H     0.25668   0.47563   0.37766   0.00000  Uiso   1.00
H214   H     0.83871   0.69615   0.60758   0.00000  Uiso   1.00
H215   H     0.22817   0.66133   0.80733   0.00000  Uiso   1.00
H216   H     0.23453   0.56492   0.92190   0.00000  Uiso   1.00
H217   H     0.33206   0.66535   0.70439   0.00000  Uiso   1.00
H218   H     0.13385   0.76992   0.81343   0.00000  Uiso   1.00
H219   H     0.21653   0.43246   0.02091   0.00000  Uiso   1.00
H220   H     0.42216   0.64426   0.56228   0.00000  Uiso   1.00
H221   H     0.00419   0.86477   0.79220   0.00000  Uiso   1.00
O222   O     0.13451   0.28117   0.00006   0.00000  Uiso   1.00
O223   O     0.40428   0.55904   0.39835   0.00000  Uiso   1.00
O224   O     0.85592   0.84835   0.70001   0.00000  Uiso   1.00
N225   N     0.08911   0.31677   0.86402   0.00000  Uiso   1.00
N226   N     0.28137   0.51477   0.43524   0.00000  Uiso   1.00
N227   N     0.89061   0.72094   0.65018   0.00000  Uiso   1.00
N228   N     0.17815   0.40750   0.96337   0.00000  Uiso   1.00
N229   N     0.37041   0.60550   0.53458   0.00000  Uiso   1.00
N230   N     0.97965   0.81167   0.74952   0.00000  Uiso   1.00
C231   C     0.50996   0.64343   0.06872   0.00000  Uiso   1.00
C232   C     0.47928   0.72361   0.09544   0.00000  Uiso   1.00
C233   C     0.40430   0.74045   0.06213   0.00000  Uiso   1.00
C234   C     0.38768   0.81742   0.09509   0.00000  Uiso   1.00
C235   C     0.33145   0.93307   0.12689   0.00000  Uiso   1.00
C236   C     0.53401   0.61226   0.15438   0.00000  Uiso   1.00
C237   C     0.50505   0.53548   0.17062   0.00000  Uiso   1.00
C238   C     0.53451   0.51872   0.25320   0.00000  Uiso   1.00
C239   C     0.56328   0.46148   0.37648   0.00000  Uiso   1.00
C240   C     0.58775   0.66758   0.03705   0.00000  Uiso   1.00
C241   C     0.60399   0.63729   0.95464   0.00000  Uiso   1.00
C242   C     0.67871   0.66709   0.93844   0.00000  Uiso   1.00
C243   C     0.79093   0.69574   0.87954   0.00000  Uiso   1.00
C244   C     0.61379   0.75017   0.18649   0.00000  Uiso   1.00
C245   C     0.53568   0.78158   0.15941   0.00000  Uiso   1.00
C246   C     0.51917   0.85854   0.19243   0.00000  Uiso   1.00
C247   C     0.44418   0.87550   0.15917   0.00000  Uiso   1.00
C248   C     0.59040   0.67023   0.21835   0.00000  Uiso   1.00
C249   C     0.61992   0.65357   0.30092   0.00000  Uiso   1.00
C250   C     0.59101   0.57679   0.31729   0.00000  Uiso   1.00
C251   C     0.64415   0.72555   0.10102   0.00000  Uiso   1.00
C252   C     0.71886   0.75539   0.08495   0.00000  Uiso   1.00
C253   C     0.73521   0.72517   0.00253   0.00000  Uiso   1.00
H254   H     0.46606   0.59829   0.01892   0.00000  Uiso   1.00
H255   H     0.36067   0.69557   0.01263   0.00000  Uiso   1.00
H256   H     0.46141   0.49063   0.12110   0.00000  Uiso   1.00
H257   H     0.56034   0.59243   0.90516   0.00000  Uiso   1.00
H258   H     0.26869   0.82896   0.03389   0.00000  Uiso   1.00
H259   H     0.48112   0.39683   0.26260   0.00000  Uiso   1.00
H260   H     0.68973   0.61150   0.80724   0.00000  Uiso   1.00
H261   H     0.65770   0.79530   0.23630   0.00000  Uiso   1.00
H262   H     0.56282   0.90339   0.24193   0.00000  Uiso   1.00
H263   H     0.66356   0.69845   0.35041   0.00000  Uiso   1.00
H264   H     0.76248   0.80025   0.13446   0.00000  Uiso   1.00
H265   H     0.43276   0.99764   0.22001   0.00000  Uiso   1.00
H266   H     0.64520   0.56551   0.44871   0.00000  Uiso   1.00
H267   H     0.85380   0.78018   0.99335   0.00000  Uiso   1.00
O268   O     0.28484   0.98084   0.12676   0.00000  Uiso   1.00
O269   O     0.56356   0.41389   0.42680   0.00000  Uiso   1.00
O270   O     0.83724   0.69554   0.82938   0.00000  Uiso   1.00
N271   N     0.32033   0.85384   0.07691   0.00000  Uiso   1.00
N272   N     0.51893   0.44982   0.29074   0.00000  Uiso   1.00
N273   N     0.71397   0.65050   0.86502   0.00000  Uiso   1.00
N274   N     0.40861   0.94460   0.17706   0.00000  Uiso   1.00
N275   N     0.60722   0.54059   0.39089   0.00000  Uiso   1.00
N276   N     0.80225   0.74127   0.96517   0.00000  Uiso   1.00
