data_job_02422
_audit_creation_date              2018-12-19
_audit_creation_method            'Materials Studio'
_symmetry_space_group_name_H-M    'P1'
_symmetry_Int_Tables_number       1
_symmetry_cell_setting            triclinic
loop_
_symmetry_equiv_pos_as_xyz
  x,y,z
_cell_length_a                    16.1105
_cell_length_b                    15.3536
_cell_length_c                    28.5580
_cell_angle_alpha                 90.0000
_cell_angle_beta                  90.0000
_cell_angle_gamma                 90.0000
loop_
_atom_site_label
_atom_site_type_symbol
_atom_site_fract_x
_atom_site_fract_y
_atom_site_fract_z
_atom_site_U_iso_or_equiv
_atom_site_adp_type
_atom_site_occupancy
C1     C     0.87424   0.11667   0.85279   0.00000  Uiso   1.00
C2     C     0.77959   0.11587   0.85349   0.00000  Uiso   1.00
C3     C     0.72836   0.11734   0.81443   0.00000  Uiso   1.00
C4     C     0.64337   0.11627   0.82245   0.00000  Uiso   1.00
C5     C     0.50135   0.11544   0.81662   0.00000  Uiso   1.00
C6     C     0.90046   0.19485   0.88222   0.00000  Uiso   1.00
C7     C     0.95087   0.26271   0.86732   0.00000  Uiso   1.00
C8     C     0.96763   0.32813   0.89953   0.00000  Uiso   1.00
C9     C     0.01332   0.44987   0.93831   0.00000  Uiso   1.00
C10    C     0.90165   0.03623   0.88002   0.00000  Uiso   1.00
C11    C     0.95307   0.97074   0.86328   0.00000  Uiso   1.00
C12    C     0.97085   0.90262   0.89364   0.00000  Uiso   1.00
C13    C     0.01838   0.77809   0.92901   0.00000  Uiso   1.00
C14    C     0.81440   0.11217   0.93649   0.00000  Uiso   1.00
C15    C     0.74710   0.11343   0.89895   0.00000  Uiso   1.00
C16    C     0.66216   0.11236   0.90704   0.00000  Uiso   1.00
C17    C     0.61081   0.11382   0.86800   0.00000  Uiso   1.00
C18    C     0.86797   0.19241   0.92768   0.00000  Uiso   1.00
C19    C     0.88466   0.25773   0.95992   0.00000  Uiso   1.00
C20    C     0.93507   0.32568   0.94507   0.00000  Uiso   1.00
C21    C     0.86915   0.03378   0.92548   0.00000  Uiso   1.00
C22    C     0.88686   0.96576   0.95588   0.00000  Uiso   1.00
C23    C     0.93829   0.90017   0.93919   0.00000  Uiso   1.00
H24    H     0.89955   0.11858   0.81740   0.00000  Uiso   1.00
H25    H     0.75354   0.11924   0.77926   0.00000  Uiso   1.00
H26    H     0.97602   0.26458   0.83214   0.00000  Uiso   1.00
H27    H     0.97821   0.97265   0.82810   0.00000  Uiso   1.00
H28    H     0.57733   0.11892   0.75702   0.00000  Uiso   1.00
H29    H     0.04646   0.42537   0.86852   0.00000  Uiso   1.00
H30    H     0.05109   0.80978   0.86000   0.00000  Uiso   1.00
H31    H     0.78910   0.11027   0.97189   0.00000  Uiso   1.00
H32    H     0.63702   0.11046   0.94222   0.00000  Uiso   1.00
H33    H     0.85951   0.25581   0.99510   0.00000  Uiso   1.00
H34    H     0.86170   0.96388   0.99106   0.00000  Uiso   1.00
H35    H     0.48276   0.11180   0.88929   0.00000  Uiso   1.00
H36    H     0.95190   0.41825   0.00079   0.00000  Uiso   1.00
H37    H     0.95652   0.80266   0.99227   0.00000  Uiso   1.00
O38    O     0.43200   0.11567   0.80085   0.00000  Uiso   1.00
O39    O     0.04750   0.51771   0.94714   0.00000  Uiso   1.00
O40    O     0.05357   0.71007   0.93596   0.00000  Uiso   1.00
N41    N     0.57594   0.11720   0.79222   0.00000  Uiso   1.00
N42    N     0.01454   0.40372   0.89647   0.00000  Uiso   1.00
N43    N     0.01889   0.82821   0.88850   0.00000  Uiso   1.00
N44    N     0.52506   0.11337   0.86339   0.00000  Uiso   1.00
N45    N     0.96366   0.39989   0.96764   0.00000  Uiso   1.00
N46    N     0.96800   0.82438   0.95968   0.00000  Uiso   1.00
C47    C     0.62576   0.38333   0.35279   0.00000  Uiso   1.00
C48    C     0.72041   0.38413   0.35349   0.00000  Uiso   1.00
C49    C     0.77164   0.38266   0.31443   0.00000  Uiso   1.00
C50    C     0.85663   0.38373   0.32245   0.00000  Uiso   1.00
C51    C     0.99865   0.38456   0.31662   0.00000  Uiso   1.00
C52    C     0.59954   0.30515   0.38222   0.00000  Uiso   1.00
C53    C     0.54913   0.23729   0.36732   0.00000  Uiso   1.00
C54    C     0.53237   0.17187   0.39953   0.00000  Uiso   1.00
C55    C     0.48668   0.05013   0.43831   0.00000  Uiso   1.00
C56    C     0.59835   0.46377   0.38002   0.00000  Uiso   1.00
C57    C     0.54693   0.52926   0.36328   0.00000  Uiso   1.00
C58    C     0.52915   0.59738   0.39364   0.00000  Uiso   1.00
C59    C     0.48162   0.72191   0.42901   0.00000  Uiso   1.00
C60    C     0.68560   0.38783   0.43649   0.00000  Uiso   1.00
C61    C     0.75290   0.38657   0.39895   0.00000  Uiso   1.00
C62    C     0.83784   0.38764   0.40704   0.00000  Uiso   1.00
C63    C     0.88919   0.38618   0.36800   0.00000  Uiso   1.00
C64    C     0.63203   0.30759   0.42768   0.00000  Uiso   1.00
C65    C     0.61534   0.24227   0.45992   0.00000  Uiso   1.00
C66    C     0.56493   0.17432   0.44507   0.00000  Uiso   1.00
C67    C     0.63085   0.46622   0.42548   0.00000  Uiso   1.00
C68    C     0.61314   0.53424   0.45588   0.00000  Uiso   1.00
C69    C     0.56171   0.59983   0.43919   0.00000  Uiso   1.00
H70    H     0.60045   0.38142   0.31740   0.00000  Uiso   1.00
H71    H     0.74646   0.38076   0.27926   0.00000  Uiso   1.00
H72    H     0.52398   0.23542   0.33214   0.00000  Uiso   1.00
H73    H     0.52179   0.52735   0.32810   0.00000  Uiso   1.00
H74    H     0.92267   0.38108   0.25702   0.00000  Uiso   1.00
H75    H     0.45354   0.07463   0.36852   0.00000  Uiso   1.00
H76    H     0.44891   0.69022   0.36000   0.00000  Uiso   1.00
H77    H     0.71090   0.38973   0.47189   0.00000  Uiso   1.00
H78    H     0.86298   0.38954   0.44222   0.00000  Uiso   1.00
H79    H     0.64049   0.24419   0.49510   0.00000  Uiso   1.00
H80    H     0.63830   0.53612   0.49106   0.00000  Uiso   1.00
H81    H     0.01724   0.38820   0.38929   0.00000  Uiso   1.00
H82    H     0.54810   0.08175   0.50079   0.00000  Uiso   1.00
H83    H     0.54348   0.69734   0.49227   0.00000  Uiso   1.00
O84    O     0.06800   0.38433   0.30085   0.00000  Uiso   1.00
O85    O     0.45250   0.98229   0.44714   0.00000  Uiso   1.00
O86    O     0.44643   0.78993   0.43596   0.00000  Uiso   1.00
N87    N     0.92406   0.38280   0.29222   0.00000  Uiso   1.00
N88    N     0.48546   0.09628   0.39647   0.00000  Uiso   1.00
N89    N     0.48111   0.67179   0.38850   0.00000  Uiso   1.00
N90    N     0.97494   0.38663   0.36339   0.00000  Uiso   1.00
N91    N     0.53634   0.10011   0.46764   0.00000  Uiso   1.00
N92    N     0.53200   0.67562   0.45968   0.00000  Uiso   1.00
C93    C     0.12576   0.11667   0.64721   0.00000  Uiso   1.00
C94    C     0.22041   0.11587   0.64651   0.00000  Uiso   1.00
C95    C     0.27164   0.11734   0.68557   0.00000  Uiso   1.00
C96    C     0.35663   0.11627   0.67755   0.00000  Uiso   1.00
C97    C     0.49865   0.11544   0.68338   0.00000  Uiso   1.00
C98    C     0.09954   0.19485   0.61778   0.00000  Uiso   1.00
C99    C     0.04913   0.26271   0.63268   0.00000  Uiso   1.00
C100   C     0.03237   0.32813   0.60047   0.00000  Uiso   1.00
C101   C     0.98668   0.44987   0.56169   0.00000  Uiso   1.00
C102   C     0.09835   0.03623   0.61998   0.00000  Uiso   1.00
C103   C     0.04693   0.97074   0.63672   0.00000  Uiso   1.00
C104   C     0.02915   0.90262   0.60636   0.00000  Uiso   1.00
C105   C     0.98162   0.77809   0.57099   0.00000  Uiso   1.00
C106   C     0.18560   0.11217   0.56351   0.00000  Uiso   1.00
C107   C     0.25290   0.11343   0.60105   0.00000  Uiso   1.00
C108   C     0.33784   0.11236   0.59296   0.00000  Uiso   1.00
C109   C     0.38919   0.11382   0.63200   0.00000  Uiso   1.00
C110   C     0.13203   0.19241   0.57232   0.00000  Uiso   1.00
C111   C     0.11534   0.25773   0.54008   0.00000  Uiso   1.00
C112   C     0.06493   0.32568   0.55493   0.00000  Uiso   1.00
C113   C     0.13085   0.03378   0.57452   0.00000  Uiso   1.00
C114   C     0.11314   0.96576   0.54412   0.00000  Uiso   1.00
C115   C     0.06171   0.90017   0.56081   0.00000  Uiso   1.00
H116   H     0.10045   0.11858   0.68260   0.00000  Uiso   1.00
H117   H     0.24646   0.11924   0.72074   0.00000  Uiso   1.00
H118   H     0.02398   0.26458   0.66786   0.00000  Uiso   1.00
H119   H     0.02179   0.97265   0.67190   0.00000  Uiso   1.00
H120   H     0.42267   0.11892   0.74298   0.00000  Uiso   1.00
H121   H     0.95354   0.42537   0.63148   0.00000  Uiso   1.00
H122   H     0.94891   0.80978   0.64000   0.00000  Uiso   1.00
H123   H     0.21090   0.11027   0.52811   0.00000  Uiso   1.00
H124   H     0.36298   0.11046   0.55778   0.00000  Uiso   1.00
H125   H     0.14049   0.25581   0.50490   0.00000  Uiso   1.00
H126   H     0.13830   0.96388   0.50894   0.00000  Uiso   1.00
H127   H     0.51724   0.11180   0.61071   0.00000  Uiso   1.00
H128   H     0.04810   0.41825   0.49921   0.00000  Uiso   1.00
H129   H     0.04348   0.80266   0.50773   0.00000  Uiso   1.00
O130   O     0.56800   0.11567   0.69915   0.00000  Uiso   1.00
O131   O     0.95250   0.51771   0.55286   0.00000  Uiso   1.00
O132   O     0.94643   0.71007   0.56404   0.00000  Uiso   1.00
N133   N     0.42406   0.11720   0.70778   0.00000  Uiso   1.00
N134   N     0.98546   0.40372   0.60353   0.00000  Uiso   1.00
N135   N     0.98111   0.82821   0.61150   0.00000  Uiso   1.00
N136   N     0.47494   0.11337   0.63661   0.00000  Uiso   1.00
N137   N     0.03634   0.39989   0.53236   0.00000  Uiso   1.00
N138   N     0.03200   0.82438   0.54032   0.00000  Uiso   1.00
C139   C     0.37424   0.38333   0.14721   0.00000  Uiso   1.00
C140   C     0.27959   0.38413   0.14651   0.00000  Uiso   1.00
C141   C     0.22836   0.38266   0.18557   0.00000  Uiso   1.00
C142   C     0.14337   0.38373   0.17755   0.00000  Uiso   1.00
C143   C     0.00135   0.38456   0.18338   0.00000  Uiso   1.00
C144   C     0.40046   0.30515   0.11778   0.00000  Uiso   1.00
C145   C     0.45087   0.23729   0.13268   0.00000  Uiso   1.00
C146   C     0.46763   0.17187   0.10047   0.00000  Uiso   1.00
C147   C     0.51332   0.05013   0.06169   0.00000  Uiso   1.00
C148   C     0.40165   0.46377   0.11998   0.00000  Uiso   1.00
C149   C     0.45307   0.52926   0.13672   0.00000  Uiso   1.00
C150   C     0.47085   0.59738   0.10636   0.00000  Uiso   1.00
C151   C     0.51838   0.72191   0.07099   0.00000  Uiso   1.00
C152   C     0.31440   0.38783   0.06351   0.00000  Uiso   1.00
C153   C     0.24710   0.38657   0.10105   0.00000  Uiso   1.00
C154   C     0.16216   0.38764   0.09296   0.00000  Uiso   1.00
C155   C     0.11081   0.38618   0.13200   0.00000  Uiso   1.00
C156   C     0.36797   0.30759   0.07232   0.00000  Uiso   1.00
C157   C     0.38466   0.24227   0.04008   0.00000  Uiso   1.00
C158   C     0.43507   0.17432   0.05493   0.00000  Uiso   1.00
C159   C     0.36915   0.46622   0.07452   0.00000  Uiso   1.00
C160   C     0.38686   0.53424   0.04412   0.00000  Uiso   1.00
C161   C     0.43829   0.59983   0.06081   0.00000  Uiso   1.00
H162   H     0.39955   0.38142   0.18260   0.00000  Uiso   1.00
H163   H     0.25354   0.38076   0.22074   0.00000  Uiso   1.00
H164   H     0.47602   0.23542   0.16786   0.00000  Uiso   1.00
H165   H     0.47821   0.52735   0.17190   0.00000  Uiso   1.00
H166   H     0.07733   0.38108   0.24298   0.00000  Uiso   1.00
H167   H     0.54646   0.07463   0.13148   0.00000  Uiso   1.00
H168   H     0.55109   0.69022   0.14000   0.00000  Uiso   1.00
H169   H     0.28910   0.38973   0.02811   0.00000  Uiso   1.00
H170   H     0.13702   0.38954   0.05778   0.00000  Uiso   1.00
H171   H     0.35951   0.24419   0.00490   0.00000  Uiso   1.00
H172   H     0.36170   0.53612   0.00894   0.00000  Uiso   1.00
H173   H     0.98276   0.38820   0.11071   0.00000  Uiso   1.00
H174   H     0.45190   0.08175   0.99921   0.00000  Uiso   1.00
H175   H     0.45652   0.69734   0.00773   0.00000  Uiso   1.00
O176   O     0.93200   0.38433   0.19915   0.00000  Uiso   1.00
O177   O     0.54750   0.98229   0.05286   0.00000  Uiso   1.00
O178   O     0.55357   0.78993   0.06404   0.00000  Uiso   1.00
N179   N     0.07594   0.38280   0.20778   0.00000  Uiso   1.00
N180   N     0.51454   0.09628   0.10353   0.00000  Uiso   1.00
N181   N     0.51889   0.67179   0.11150   0.00000  Uiso   1.00
N182   N     0.02506   0.38663   0.13661   0.00000  Uiso   1.00
N183   N     0.46366   0.10011   0.03236   0.00000  Uiso   1.00
N184   N     0.46800   0.67562   0.04032   0.00000  Uiso   1.00
C185   C     0.12576   0.88333   0.14721   0.00000  Uiso   1.00
C186   C     0.22041   0.88413   0.14651   0.00000  Uiso   1.00
C187   C     0.27164   0.88266   0.18557   0.00000  Uiso   1.00
C188   C     0.35663   0.88373   0.17755   0.00000  Uiso   1.00
C189   C     0.49865   0.88456   0.18338   0.00000  Uiso   1.00
C190   C     0.09954   0.80515   0.11778   0.00000  Uiso   1.00
C191   C     0.04913   0.73729   0.13268   0.00000  Uiso   1.00
C192   C     0.03237   0.67187   0.10047   0.00000  Uiso   1.00
C193   C     0.98668   0.55013   0.06169   0.00000  Uiso   1.00
C194   C     0.09835   0.96377   0.11998   0.00000  Uiso   1.00
C195   C     0.04693   0.02926   0.13672   0.00000  Uiso   1.00
C196   C     0.02915   0.09738   0.10636   0.00000  Uiso   1.00
C197   C     0.98162   0.22191   0.07099   0.00000  Uiso   1.00
C198   C     0.18560   0.88783   0.06351   0.00000  Uiso   1.00
C199   C     0.25290   0.88657   0.10105   0.00000  Uiso   1.00
C200   C     0.33784   0.88764   0.09296   0.00000  Uiso   1.00
C201   C     0.38919   0.88618   0.13200   0.00000  Uiso   1.00
C202   C     0.13203   0.80759   0.07232   0.00000  Uiso   1.00
C203   C     0.11534   0.74227   0.04008   0.00000  Uiso   1.00
C204   C     0.06493   0.67432   0.05493   0.00000  Uiso   1.00
C205   C     0.13085   0.96622   0.07452   0.00000  Uiso   1.00
C206   C     0.11314   0.03424   0.04412   0.00000  Uiso   1.00
C207   C     0.06171   0.09983   0.06081   0.00000  Uiso   1.00
H208   H     0.10045   0.88142   0.18260   0.00000  Uiso   1.00
H209   H     0.24646   0.88076   0.22074   0.00000  Uiso   1.00
H210   H     0.02398   0.73542   0.16786   0.00000  Uiso   1.00
H211   H     0.02179   0.02735   0.17190   0.00000  Uiso   1.00
H212   H     0.42267   0.88108   0.24298   0.00000  Uiso   1.00
H213   H     0.95354   0.57463   0.13148   0.00000  Uiso   1.00
H214   H     0.94891   0.19022   0.14000   0.00000  Uiso   1.00
H215   H     0.21090   0.88973   0.02811   0.00000  Uiso   1.00
H216   H     0.36298   0.88954   0.05778   0.00000  Uiso   1.00
H217   H     0.14049   0.74419   0.00490   0.00000  Uiso   1.00
H218   H     0.13830   0.03612   0.00894   0.00000  Uiso   1.00
H219   H     0.51724   0.88820   0.11071   0.00000  Uiso   1.00
H220   H     0.04810   0.58175   0.99921   0.00000  Uiso   1.00
H221   H     0.04348   0.19734   0.00773   0.00000  Uiso   1.00
O222   O     0.56800   0.88433   0.19915   0.00000  Uiso   1.00
O223   O     0.95250   0.48229   0.05286   0.00000  Uiso   1.00
O224   O     0.94643   0.28993   0.06404   0.00000  Uiso   1.00
N225   N     0.42406   0.88280   0.20778   0.00000  Uiso   1.00
N226   N     0.98546   0.59628   0.10353   0.00000  Uiso   1.00
N227   N     0.98111   0.17179   0.11150   0.00000  Uiso   1.00
N228   N     0.47494   0.88663   0.13661   0.00000  Uiso   1.00
N229   N     0.03634   0.60011   0.03236   0.00000  Uiso   1.00
N230   N     0.03200   0.17562   0.04032   0.00000  Uiso   1.00
C231   C     0.37424   0.61667   0.64721   0.00000  Uiso   1.00
C232   C     0.27959   0.61587   0.64651   0.00000  Uiso   1.00
C233   C     0.22836   0.61734   0.68557   0.00000  Uiso   1.00
C234   C     0.14337   0.61627   0.67755   0.00000  Uiso   1.00
C235   C     0.00135   0.61544   0.68338   0.00000  Uiso   1.00
C236   C     0.40046   0.69485   0.61778   0.00000  Uiso   1.00
C237   C     0.45087   0.76271   0.63268   0.00000  Uiso   1.00
C238   C     0.46763   0.82813   0.60047   0.00000  Uiso   1.00
C239   C     0.51332   0.94987   0.56169   0.00000  Uiso   1.00
C240   C     0.40165   0.53623   0.61998   0.00000  Uiso   1.00
C241   C     0.45307   0.47074   0.63672   0.00000  Uiso   1.00
C242   C     0.47085   0.40262   0.60636   0.00000  Uiso   1.00
C243   C     0.51838   0.27809   0.57099   0.00000  Uiso   1.00
C244   C     0.31440   0.61217   0.56351   0.00000  Uiso   1.00
C245   C     0.24710   0.61343   0.60105   0.00000  Uiso   1.00
C246   C     0.16216   0.61236   0.59296   0.00000  Uiso   1.00
C247   C     0.11081   0.61382   0.63200   0.00000  Uiso   1.00
C248   C     0.36797   0.69241   0.57232   0.00000  Uiso   1.00
C249   C     0.38466   0.75773   0.54008   0.00000  Uiso   1.00
C250   C     0.43507   0.82568   0.55493   0.00000  Uiso   1.00
C251   C     0.36915   0.53378   0.57452   0.00000  Uiso   1.00
C252   C     0.38686   0.46576   0.54412   0.00000  Uiso   1.00
C253   C     0.43829   0.40017   0.56081   0.00000  Uiso   1.00
H254   H     0.39955   0.61858   0.68260   0.00000  Uiso   1.00
H255   H     0.25354   0.61924   0.72074   0.00000  Uiso   1.00
H256   H     0.47602   0.76458   0.66786   0.00000  Uiso   1.00
H257   H     0.47821   0.47265   0.67190   0.00000  Uiso   1.00
H258   H     0.07733   0.61892   0.74298   0.00000  Uiso   1.00
H259   H     0.54646   0.92537   0.63148   0.00000  Uiso   1.00
H260   H     0.55109   0.30978   0.64000   0.00000  Uiso   1.00
H261   H     0.28910   0.61027   0.52811   0.00000  Uiso   1.00
H262   H     0.13702   0.61046   0.55778   0.00000  Uiso   1.00
H263   H     0.35951   0.75581   0.50490   0.00000  Uiso   1.00
H264   H     0.36170   0.46388   0.50894   0.00000  Uiso   1.00
H265   H     0.98276   0.61180   0.61071   0.00000  Uiso   1.00
H266   H     0.45190   0.91825   0.49921   0.00000  Uiso   1.00
H267   H     0.45652   0.30266   0.50773   0.00000  Uiso   1.00
O268   O     0.93200   0.61567   0.69915   0.00000  Uiso   1.00
O269   O     0.54750   0.01771   0.55286   0.00000  Uiso   1.00
O270   O     0.55357   0.21007   0.56404   0.00000  Uiso   1.00
N271   N     0.07594   0.61720   0.70778   0.00000  Uiso   1.00
N272   N     0.51454   0.90372   0.60353   0.00000  Uiso   1.00
N273   N     0.51889   0.32821   0.61150   0.00000  Uiso   1.00
N274   N     0.02506   0.61337   0.63661   0.00000  Uiso   1.00
N275   N     0.46366   0.89989   0.53236   0.00000  Uiso   1.00
N276   N     0.46800   0.32438   0.54032   0.00000  Uiso   1.00
C277   C     0.87424   0.88333   0.35279   0.00000  Uiso   1.00
C278   C     0.77959   0.88413   0.35349   0.00000  Uiso   1.00
C279   C     0.72836   0.88266   0.31443   0.00000  Uiso   1.00
C280   C     0.64337   0.88373   0.32245   0.00000  Uiso   1.00
C281   C     0.50135   0.88456   0.31662   0.00000  Uiso   1.00
C282   C     0.90046   0.80515   0.38222   0.00000  Uiso   1.00
C283   C     0.95087   0.73729   0.36732   0.00000  Uiso   1.00
C284   C     0.96763   0.67187   0.39953   0.00000  Uiso   1.00
C285   C     0.01332   0.55013   0.43831   0.00000  Uiso   1.00
C286   C     0.90165   0.96377   0.38002   0.00000  Uiso   1.00
C287   C     0.95307   0.02926   0.36328   0.00000  Uiso   1.00
C288   C     0.97085   0.09738   0.39364   0.00000  Uiso   1.00
C289   C     0.01838   0.22191   0.42901   0.00000  Uiso   1.00
C290   C     0.81440   0.88783   0.43649   0.00000  Uiso   1.00
C291   C     0.74710   0.88657   0.39895   0.00000  Uiso   1.00
C292   C     0.66216   0.88764   0.40704   0.00000  Uiso   1.00
C293   C     0.61081   0.88618   0.36800   0.00000  Uiso   1.00
C294   C     0.86797   0.80759   0.42768   0.00000  Uiso   1.00
C295   C     0.88466   0.74227   0.45992   0.00000  Uiso   1.00
C296   C     0.93507   0.67432   0.44507   0.00000  Uiso   1.00
C297   C     0.86915   0.96622   0.42548   0.00000  Uiso   1.00
C298   C     0.88686   0.03424   0.45588   0.00000  Uiso   1.00
C299   C     0.93829   0.09983   0.43919   0.00000  Uiso   1.00
H300   H     0.89955   0.88142   0.31740   0.00000  Uiso   1.00
H301   H     0.75354   0.88076   0.27926   0.00000  Uiso   1.00
H302   H     0.97602   0.73542   0.33214   0.00000  Uiso   1.00
H303   H     0.97821   0.02735   0.32810   0.00000  Uiso   1.00
H304   H     0.57733   0.88108   0.25702   0.00000  Uiso   1.00
H305   H     0.04646   0.57463   0.36852   0.00000  Uiso   1.00
H306   H     0.05109   0.19022   0.36000   0.00000  Uiso   1.00
H307   H     0.78910   0.88973   0.47189   0.00000  Uiso   1.00
H308   H     0.63702   0.88954   0.44222   0.00000  Uiso   1.00
H309   H     0.85951   0.74419   0.49510   0.00000  Uiso   1.00
H310   H     0.86170   0.03612   0.49106   0.00000  Uiso   1.00
H311   H     0.48276   0.88820   0.38929   0.00000  Uiso   1.00
H312   H     0.95190   0.58175   0.50079   0.00000  Uiso   1.00
H313   H     0.95652   0.19734   0.49227   0.00000  Uiso   1.00
O314   O     0.43200   0.88433   0.30085   0.00000  Uiso   1.00
O315   O     0.04750   0.48229   0.44714   0.00000  Uiso   1.00
O316   O     0.05357   0.28993   0.43596   0.00000  Uiso   1.00
N317   N     0.57594   0.88280   0.29222   0.00000  Uiso   1.00
N318   N     0.01454   0.59628   0.39647   0.00000  Uiso   1.00
N319   N     0.01889   0.17179   0.38850   0.00000  Uiso   1.00
N320   N     0.52506   0.88663   0.36339   0.00000  Uiso   1.00
N321   N     0.96366   0.60011   0.46764   0.00000  Uiso   1.00
N322   N     0.96800   0.17562   0.45968   0.00000  Uiso   1.00
C323   C     0.62576   0.61667   0.85279   0.00000  Uiso   1.00
C324   C     0.72041   0.61587   0.85349   0.00000  Uiso   1.00
C325   C     0.77164   0.61734   0.81443   0.00000  Uiso   1.00
C326   C     0.85663   0.61627   0.82245   0.00000  Uiso   1.00
C327   C     0.99865   0.61544   0.81662   0.00000  Uiso   1.00
C328   C     0.59954   0.69485   0.88222   0.00000  Uiso   1.00
C329   C     0.54913   0.76271   0.86732   0.00000  Uiso   1.00
C330   C     0.53237   0.82813   0.89953   0.00000  Uiso   1.00
C331   C     0.48668   0.94987   0.93831   0.00000  Uiso   1.00
C332   C     0.59835   0.53623   0.88002   0.00000  Uiso   1.00
C333   C     0.54693   0.47074   0.86328   0.00000  Uiso   1.00
C334   C     0.52915   0.40262   0.89364   0.00000  Uiso   1.00
C335   C     0.48162   0.27809   0.92901   0.00000  Uiso   1.00
C336   C     0.68560   0.61217   0.93649   0.00000  Uiso   1.00
C337   C     0.75290   0.61343   0.89895   0.00000  Uiso   1.00
C338   C     0.83784   0.61236   0.90704   0.00000  Uiso   1.00
C339   C     0.88919   0.61382   0.86800   0.00000  Uiso   1.00
C340   C     0.63203   0.69241   0.92768   0.00000  Uiso   1.00
C341   C     0.61534   0.75773   0.95992   0.00000  Uiso   1.00
C342   C     0.56493   0.82568   0.94507   0.00000  Uiso   1.00
C343   C     0.63085   0.53378   0.92548   0.00000  Uiso   1.00
C344   C     0.61314   0.46576   0.95588   0.00000  Uiso   1.00
C345   C     0.56171   0.40017   0.93919   0.00000  Uiso   1.00
H346   H     0.60045   0.61858   0.81740   0.00000  Uiso   1.00
H347   H     0.74646   0.61924   0.77926   0.00000  Uiso   1.00
H348   H     0.52398   0.76458   0.83214   0.00000  Uiso   1.00
H349   H     0.52179   0.47265   0.82810   0.00000  Uiso   1.00
H350   H     0.92267   0.61892   0.75702   0.00000  Uiso   1.00
H351   H     0.45354   0.92537   0.86852   0.00000  Uiso   1.00
H352   H     0.44891   0.30978   0.86000   0.00000  Uiso   1.00
H353   H     0.71090   0.61027   0.97189   0.00000  Uiso   1.00
H354   H     0.86298   0.61046   0.94222   0.00000  Uiso   1.00
H355   H     0.64049   0.75581   0.99510   0.00000  Uiso   1.00
H356   H     0.63830   0.46388   0.99106   0.00000  Uiso   1.00
H357   H     0.01724   0.61180   0.88929   0.00000  Uiso   1.00
H358   H     0.54810   0.91825   0.00079   0.00000  Uiso   1.00
H359   H     0.54348   0.30266   0.99227   0.00000  Uiso   1.00
O360   O     0.06800   0.61567   0.80085   0.00000  Uiso   1.00
O361   O     0.45250   0.01771   0.94714   0.00000  Uiso   1.00
O362   O     0.44643   0.21007   0.93596   0.00000  Uiso   1.00
N363   N     0.92406   0.61720   0.79222   0.00000  Uiso   1.00
N364   N     0.48546   0.90372   0.89647   0.00000  Uiso   1.00
N365   N     0.48111   0.32821   0.88850   0.00000  Uiso   1.00
N366   N     0.97494   0.61337   0.86339   0.00000  Uiso   1.00
N367   N     0.53634   0.89989   0.96764   0.00000  Uiso   1.00
N368   N     0.53200   0.32438   0.95968   0.00000  Uiso   1.00
