data_job_06008
_audit_creation_date              2018-12-19
_audit_creation_method            'Materials Studio'
_symmetry_space_group_name_H-M    'P1'
_symmetry_Int_Tables_number       1
_symmetry_cell_setting            triclinic
loop_
_symmetry_equiv_pos_as_xyz
  x,y,z
_cell_length_a                    15.8199
_cell_length_b                    18.5571
_cell_length_c                    18.6401
_cell_angle_alpha                 67.6850
_cell_angle_beta                  73.5549
_cell_angle_gamma                 106.0211
loop_
_atom_site_label
_atom_site_type_symbol
_atom_site_fract_x
_atom_site_fract_y
_atom_site_fract_z
_atom_site_U_iso_or_equiv
_atom_site_adp_type
_atom_site_occupancy
C1     C     0.31258   0.24573   0.29015   0.00000  Uiso   1.00
C2     C     0.20941   0.20379   0.29992   0.00000  Uiso   1.00
C3     C     0.18555   0.18188   0.24255   0.00000  Uiso   1.00
C4     C     0.08691   0.14409   0.26307   0.00000  Uiso   1.00
C5     C     0.93769   0.08134   0.26679   0.00000  Uiso   1.00
C6     C     0.32224   0.32825   0.29366   0.00000  Uiso   1.00
C7     C     0.39326   0.41097   0.23102   0.00000  Uiso   1.00
C8     C     0.38960   0.47795   0.24627   0.00000  Uiso   1.00
C9     C     0.41559   0.60841   0.24029   0.00000  Uiso   1.00
C10    C     0.31512   0.18586   0.37175   0.00000  Uiso   1.00
C11    C     0.38016   0.14888   0.37477   0.00000  Uiso   1.00
C12    C     0.37052   0.09599   0.45577   0.00000  Uiso   1.00
C13    C     0.38544   0.00538   0.57103   0.00000  Uiso   1.00
C14    C     0.17983   0.21759   0.42862   0.00000  Uiso   1.00
C15    C     0.13731   0.18851   0.37514   0.00000  Uiso   1.00
C16    C     0.03868   0.15074   0.39576   0.00000  Uiso   1.00
C17    C     0.01467   0.12877   0.33842   0.00000  Uiso   1.00
C18    C     0.25014   0.31297   0.36887   0.00000  Uiso   1.00
C19    C     0.24638   0.37984   0.38423   0.00000  Uiso   1.00
C20    C     0.31736   0.46264   0.32162   0.00000  Uiso   1.00
C21    C     0.24301   0.17058   0.44696   0.00000  Uiso   1.00
C22    C     0.23327   0.11774   0.52797   0.00000  Uiso   1.00
C23    C     0.29828   0.08068   0.53112   0.00000  Uiso   1.00
H24    H     0.36872   0.25763   0.23159   0.00000  Uiso   1.00
H25    H     0.24138   0.19372   0.18434   0.00000  Uiso   1.00
H26    H     0.44905   0.42278   0.17282   0.00000  Uiso   1.00
H27    H     0.43595   0.16073   0.31655   0.00000  Uiso   1.00
H28    H     0.06839   0.11615   0.16512   0.00000  Uiso   1.00
H29    H     0.50631   0.59913   0.14084   0.00000  Uiso   1.00
H30    H     0.47868   0.04654   0.44391   0.00000  Uiso   1.00
H31    H     0.12369   0.20569   0.48718   0.00000  Uiso   1.00
H32    H     0.98289   0.13892   0.45397   0.00000  Uiso   1.00
H33    H     0.19057   0.36798   0.44244   0.00000  Uiso   1.00
H34    H     0.17747   0.10593   0.58617   0.00000  Uiso   1.00
H35    H     0.85860   0.07168   0.38395   0.00000  Uiso   1.00
H36    H     0.29652   0.55466   0.35967   0.00000  Uiso   1.00
H37    H     0.26888   0.00206   0.66274   0.00000  Uiso   1.00
O38    O     0.87530   0.05096   0.24806   0.00000  Uiso   1.00
O39    O     0.44984   0.68460   0.21621   0.00000  Uiso   1.00
O40    O     0.41358   0.95961   0.61383   0.00000  Uiso   1.00
N41    N     0.03834   0.11483   0.22119   0.00000  Uiso   1.00
N42    N     0.44775   0.56639   0.19848   0.00000  Uiso   1.00
N43    N     0.42194   0.04978   0.48183   0.00000  Uiso   1.00
N44    N     0.92545   0.09090   0.33894   0.00000  Uiso   1.00
N45    N     0.33487   0.54246   0.31623   0.00000  Uiso   1.00
N46    N     0.30905   0.02585   0.59958   0.00000  Uiso   1.00
C47    C     0.06694   0.46471   0.24579   0.00000  Uiso   1.00
C48    C     0.00600   0.49760   0.20311   0.00000  Uiso   1.00
C49    C     0.00387   0.57718   0.18117   0.00000  Uiso   1.00
C50    C     0.94335   0.59512   0.14264   0.00000  Uiso   1.00
C51    C     0.85725   0.65523   0.07883   0.00000  Uiso   1.00
C52    C     0.99491   0.37922   0.32776   0.00000  Uiso   1.00
C53    C     0.98347   0.35926   0.41062   0.00000  Uiso   1.00
C54    C     0.91361   0.27755   0.47701   0.00000  Uiso   1.00
C55    C     0.81034   0.15385   0.60672   0.00000  Uiso   1.00
C56    C     0.12884   0.44217   0.18635   0.00000  Uiso   1.00
C57    C     0.23002   0.47513   0.15033   0.00000  Uiso   1.00
C58    C     0.27292   0.44640   0.09768   0.00000  Uiso   1.00
C59    C     0.37761   0.42045   0.00783   0.00000  Uiso   1.00
C60    C     0.96323   0.35507   0.21635   0.00000  Uiso   1.00
C61    C     0.94967   0.43804   0.18712   0.00000  Uiso   1.00
C62    C     0.88913   0.45587   0.14860   0.00000  Uiso   1.00
C63    C     0.88692   0.53547   0.12661   0.00000  Uiso   1.00
C64    C     0.93858   0.31966   0.31177   0.00000  Uiso   1.00
C65    C     0.86872   0.23796   0.37805   0.00000  Uiso   1.00
C66    C     0.85717   0.21789   0.46100   0.00000  Uiso   1.00
C67    C     0.07251   0.38262   0.17036   0.00000  Uiso   1.00
C68    C     0.11527   0.35383   0.11776   0.00000  Uiso   1.00
C69    C     0.21649   0.38674   0.08167   0.00000  Uiso   1.00
H70    H     0.11080   0.51107   0.25825   0.00000  Uiso   1.00
H71    H     0.04747   0.62324   0.19356   0.00000  Uiso   1.00
H72    H     0.02708   0.40536   0.42297   0.00000  Uiso   1.00
H73    H     0.27358   0.52121   0.16272   0.00000  Uiso   1.00
H74    H     0.95240   0.72134   0.11483   0.00000  Uiso   1.00
H75    H     0.90941   0.26191   0.59855   0.00000  Uiso   1.00
H76    H     0.42923   0.50620   0.04976   0.00000  Uiso   1.00
H77    H     0.91937   0.30870   0.20391   0.00000  Uiso   1.00
H78    H     0.84555   0.40977   0.13624   0.00000  Uiso   1.00
H79    H     0.82515   0.19189   0.36565   0.00000  Uiso   1.00
H80    H     0.07165   0.30774   0.10540   0.00000  Uiso   1.00
H81    H     0.78850   0.54807   0.06831   0.00000  Uiso   1.00
H82    H     0.74552   0.08864   0.55203   0.00000  Uiso   1.00
H83    H     0.26533   0.33294   0.00324   0.00000  Uiso   1.00
O84    O     0.82531   0.70483   0.04806   0.00000  Uiso   1.00
O85    O     0.76893   0.10208   0.68268   0.00000  Uiso   1.00
O86    O     0.45091   0.42259   0.96268   0.00000  Uiso   1.00
N87    N     0.92397   0.66669   0.11315   0.00000  Uiso   1.00
N88    N     0.88377   0.23716   0.56540   0.00000  Uiso   1.00
N89    N     0.36975   0.46554   0.05235   0.00000  Uiso   1.00
N90    N     0.83578   0.57346   0.08812   0.00000  Uiso   1.00
N91    N     0.79558   0.14393   0.54037   0.00000  Uiso   1.00
N92    N     0.28156   0.37231   0.02731   0.00000  Uiso   1.00
C93    C     0.60336   0.29017   0.46378   0.00000  Uiso   1.00
C94    C     0.51023   0.30103   0.49581   0.00000  Uiso   1.00
C95    C     0.42935   0.24413   0.57476   0.00000  Uiso   1.00
C96    C     0.35141   0.26564   0.59197   0.00000  Uiso   1.00
C97    C     0.20633   0.27098   0.65077   0.00000  Uiso   1.00
C98    C     0.61656   0.29348   0.37813   0.00000  Uiso   1.00
C99    C     0.62510   0.23023   0.35814   0.00000  Uiso   1.00
C100   C     0.63670   0.24541   0.27628   0.00000  Uiso   1.00
C101   C     0.65678   0.23904   0.15236   0.00000  Uiso   1.00
C102   C     0.68701   0.37152   0.44212   0.00000  Uiso   1.00
C103   C     0.75480   0.37389   0.47590   0.00000  Uiso   1.00
C104   C     0.82571   0.45477   0.44790   0.00000  Uiso   1.00
C105   C     0.95516   0.56957   0.42333   0.00000  Uiso   1.00
C106   C     0.60878   0.42959   0.35395   0.00000  Uiso   1.00
C107   C     0.51317   0.37676   0.43616   0.00000  Uiso   1.00
C108   C     0.43534   0.39837   0.45326   0.00000  Uiso   1.00
C109   C     0.35436   0.34151   0.53222   0.00000  Uiso   1.00
C110   C     0.61951   0.36921   0.31848   0.00000  Uiso   1.00
C111   C     0.63110   0.38448   0.23664   0.00000  Uiso   1.00
C112   C     0.63965   0.32127   0.21652   0.00000  Uiso   1.00
C113   C     0.68995   0.44725   0.38247   0.00000  Uiso   1.00
C114   C     0.76078   0.52814   0.35441   0.00000  Uiso   1.00
C115   C     0.82866   0.53063   0.38815   0.00000  Uiso   1.00
H116   H     0.60107   0.23121   0.51021   0.00000  Uiso   1.00
H117   H     0.42709   0.18552   0.62090   0.00000  Uiso   1.00
H118   H     0.62283   0.17164   0.40431   0.00000  Uiso   1.00
H119   H     0.75249   0.31528   0.52206   0.00000  Uiso   1.00
H120   H     0.23549   0.16825   0.71731   0.00000  Uiso   1.00
H121   H     0.64825   0.13899   0.26060   0.00000  Uiso   1.00
H122   H     0.92167   0.44187   0.50890   0.00000  Uiso   1.00
H123   H     0.61108   0.48854   0.30751   0.00000  Uiso   1.00
H124   H     0.43764   0.45698   0.40708   0.00000  Uiso   1.00
H125   H     0.63338   0.44309   0.19049   0.00000  Uiso   1.00
H126   H     0.76304   0.58673   0.30824   0.00000  Uiso   1.00
H127   H     0.24405   0.38857   0.54376   0.00000  Uiso   1.00
H128   H     0.65681   0.35931   0.08705   0.00000  Uiso   1.00
H129   H     0.93023   0.66219   0.33536   0.00000  Uiso   1.00
O130   O     0.12549   0.25299   0.69968   0.00000  Uiso   1.00
O131   O     0.66703   0.21461   0.10049   0.00000  Uiso   1.00
O132   O     0.02574   0.61198   0.42627   0.00000  Uiso   1.00
N133   N     0.26131   0.22445   0.66280   0.00000  Uiso   1.00
N134   N     0.64720   0.19708   0.23581   0.00000  Uiso   1.00
N135   N     0.90285   0.48025   0.46794   0.00000  Uiso   1.00
N136   N     0.26592   0.34300   0.56942   0.00000  Uiso   1.00
N137   N     0.65181   0.31563   0.14243   0.00000  Uiso   1.00
N138   N     0.90745   0.59880   0.37456   0.00000  Uiso   1.00
C139   C     0.68742   0.75427   0.70985   0.00000  Uiso   1.00
C140   C     0.79059   0.79621   0.70008   0.00000  Uiso   1.00
C141   C     0.81445   0.81812   0.75745   0.00000  Uiso   1.00
C142   C     0.91309   0.85591   0.73693   0.00000  Uiso   1.00
C143   C     0.06231   0.91866   0.73321   0.00000  Uiso   1.00
C144   C     0.67776   0.67175   0.70634   0.00000  Uiso   1.00
C145   C     0.60674   0.58903   0.76898   0.00000  Uiso   1.00
C146   C     0.61040   0.52205   0.75373   0.00000  Uiso   1.00
C147   C     0.58441   0.39159   0.75971   0.00000  Uiso   1.00
C148   C     0.68488   0.81414   0.62825   0.00000  Uiso   1.00
C149   C     0.61984   0.85112   0.62523   0.00000  Uiso   1.00
C150   C     0.62949   0.90401   0.54423   0.00000  Uiso   1.00
C151   C     0.61456   0.99462   0.42897   0.00000  Uiso   1.00
C152   C     0.82017   0.78241   0.57138   0.00000  Uiso   1.00
C153   C     0.86269   0.81149   0.62486   0.00000  Uiso   1.00
C154   C     0.96132   0.84926   0.60424   0.00000  Uiso   1.00
C155   C     0.98533   0.87123   0.66158   0.00000  Uiso   1.00
C156   C     0.74986   0.68703   0.63113   0.00000  Uiso   1.00
C157   C     0.75362   0.62016   0.61577   0.00000  Uiso   1.00
C158   C     0.68264   0.53736   0.67838   0.00000  Uiso   1.00
C159   C     0.75699   0.82943   0.55304   0.00000  Uiso   1.00
C160   C     0.76673   0.88226   0.47203   0.00000  Uiso   1.00
C161   C     0.70172   0.91932   0.46888   0.00000  Uiso   1.00
H162   H     0.63128   0.74237   0.76841   0.00000  Uiso   1.00
H163   H     0.75862   0.80628   0.81566   0.00000  Uiso   1.00
H164   H     0.55095   0.57722   0.82718   0.00000  Uiso   1.00
H165   H     0.56405   0.83927   0.68345   0.00000  Uiso   1.00
H166   H     0.93161   0.88385   0.83488   0.00000  Uiso   1.00
H167   H     0.49369   0.40087   0.85916   0.00000  Uiso   1.00
H168   H     0.52132   0.95346   0.55609   0.00000  Uiso   1.00
H169   H     0.87631   0.79431   0.51282   0.00000  Uiso   1.00
H170   H     0.01711   0.86108   0.54603   0.00000  Uiso   1.00
H171   H     0.80943   0.63202   0.55756   0.00000  Uiso   1.00
H172   H     0.82253   0.89407   0.41383   0.00000  Uiso   1.00
H173   H     0.14140   0.92832   0.61605   0.00000  Uiso   1.00
H174   H     0.70348   0.44534   0.64033   0.00000  Uiso   1.00
H175   H     0.73112   0.99794   0.33726   0.00000  Uiso   1.00
O176   O     0.12470   0.94904   0.75194   0.00000  Uiso   1.00
O177   O     0.55016   0.31540   0.78379   0.00000  Uiso   1.00
O178   O     0.58642   0.04039   0.38617   0.00000  Uiso   1.00
N179   N     0.96166   0.88517   0.77881   0.00000  Uiso   1.00
N180   N     0.55225   0.43361   0.80152   0.00000  Uiso   1.00
N181   N     0.57806   0.95022   0.51817   0.00000  Uiso   1.00
N182   N     0.07455   0.90910   0.66106   0.00000  Uiso   1.00
N183   N     0.66514   0.45754   0.68377   0.00000  Uiso   1.00
N184   N     0.69095   0.97415   0.40042   0.00000  Uiso   1.00
C185   C     0.93306   0.53529   0.75421   0.00000  Uiso   1.00
C186   C     0.99400   0.50240   0.79689   0.00000  Uiso   1.00
C187   C     0.99613   0.42282   0.81883   0.00000  Uiso   1.00
C188   C     0.05665   0.40488   0.85736   0.00000  Uiso   1.00
C189   C     0.14275   0.34477   0.92117   0.00000  Uiso   1.00
C190   C     0.00509   0.62079   0.67224   0.00000  Uiso   1.00
C191   C     0.01653   0.64074   0.58938   0.00000  Uiso   1.00
C192   C     0.08639   0.72245   0.52299   0.00000  Uiso   1.00
C193   C     0.18966   0.84615   0.39328   0.00000  Uiso   1.00
C194   C     0.87116   0.55783   0.81365   0.00000  Uiso   1.00
C195   C     0.76998   0.52487   0.84967   0.00000  Uiso   1.00
C196   C     0.72708   0.55360   0.90232   0.00000  Uiso   1.00
C197   C     0.62239   0.57955   0.99217   0.00000  Uiso   1.00
C198   C     0.03677   0.64494   0.78365   0.00000  Uiso   1.00
C199   C     0.05033   0.56196   0.81288   0.00000  Uiso   1.00
C200   C     0.11087   0.54413   0.85140   0.00000  Uiso   1.00
C201   C     0.11308   0.46453   0.87339   0.00000  Uiso   1.00
C202   C     0.06142   0.68034   0.68823   0.00000  Uiso   1.00
C203   C     0.13128   0.76204   0.62195   0.00000  Uiso   1.00
C204   C     0.14283   0.78211   0.53900   0.00000  Uiso   1.00
C205   C     0.92749   0.61738   0.82964   0.00000  Uiso   1.00
C206   C     0.88473   0.64617   0.88224   0.00000  Uiso   1.00
C207   C     0.78351   0.61326   0.91833   0.00000  Uiso   1.00
H208   H     0.88920   0.48893   0.74175   0.00000  Uiso   1.00
H209   H     0.95253   0.37676   0.80644   0.00000  Uiso   1.00
H210   H     0.97292   0.59464   0.57703   0.00000  Uiso   1.00
H211   H     0.72642   0.47879   0.83728   0.00000  Uiso   1.00
H212   H     0.04760   0.27866   0.88517   0.00000  Uiso   1.00
H213   H     0.09059   0.73809   0.40145   0.00000  Uiso   1.00
H214   H     0.57077   0.49380   0.95024   0.00000  Uiso   1.00
H215   H     0.08063   0.69130   0.79609   0.00000  Uiso   1.00
H216   H     0.15445   0.59023   0.86376   0.00000  Uiso   1.00
H217   H     0.17485   0.80811   0.63435   0.00000  Uiso   1.00
H218   H     0.92835   0.69226   0.89460   0.00000  Uiso   1.00
H219   H     0.21150   0.45193   0.93169   0.00000  Uiso   1.00
H220   H     0.25448   0.91136   0.44797   0.00000  Uiso   1.00
H221   H     0.73467   0.66706   0.99676   0.00000  Uiso   1.00
O222   O     0.17469   0.29517   0.95194   0.00000  Uiso   1.00
O223   O     0.23107   0.89792   0.31732   0.00000  Uiso   1.00
O224   O     0.54909   0.57741   0.03732   0.00000  Uiso   1.00
N225   N     0.07603   0.33331   0.88685   0.00000  Uiso   1.00
N226   N     0.11623   0.76284   0.43460   0.00000  Uiso   1.00
N227   N     0.63025   0.53446   0.94765   0.00000  Uiso   1.00
N228   N     0.16422   0.42654   0.91188   0.00000  Uiso   1.00
N229   N     0.20442   0.85607   0.45963   0.00000  Uiso   1.00
N230   N     0.71844   0.62769   0.97269   0.00000  Uiso   1.00
C231   C     0.39664   0.70983   0.53622   0.00000  Uiso   1.00
C232   C     0.48977   0.69897   0.50419   0.00000  Uiso   1.00
C233   C     0.57065   0.75587   0.42524   0.00000  Uiso   1.00
C234   C     0.64859   0.73436   0.40803   0.00000  Uiso   1.00
C235   C     0.79367   0.72902   0.34923   0.00000  Uiso   1.00
C236   C     0.38344   0.70652   0.62187   0.00000  Uiso   1.00
C237   C     0.37490   0.76977   0.64186   0.00000  Uiso   1.00
C238   C     0.36330   0.75459   0.72372   0.00000  Uiso   1.00
C239   C     0.34322   0.76096   0.84764   0.00000  Uiso   1.00
C240   C     0.31299   0.62848   0.55788   0.00000  Uiso   1.00
C241   C     0.24520   0.62611   0.52410   0.00000  Uiso   1.00
C242   C     0.17429   0.54523   0.55210   0.00000  Uiso   1.00
C243   C     0.04484   0.43043   0.57667   0.00000  Uiso   1.00
C244   C     0.39122   0.57041   0.64605   0.00000  Uiso   1.00
C245   C     0.48683   0.62324   0.56384   0.00000  Uiso   1.00
C246   C     0.56466   0.60163   0.54674   0.00000  Uiso   1.00
C247   C     0.64564   0.65849   0.46778   0.00000  Uiso   1.00
C248   C     0.38049   0.63079   0.68152   0.00000  Uiso   1.00
C249   C     0.36890   0.61552   0.76337   0.00000  Uiso   1.00
C250   C     0.36035   0.67873   0.78348   0.00000  Uiso   1.00
C251   C     0.31005   0.55275   0.61753   0.00000  Uiso   1.00
C252   C     0.23922   0.47186   0.64559   0.00000  Uiso   1.00
C253   C     0.17134   0.46937   0.61185   0.00000  Uiso   1.00
H254   H     0.39893   0.76879   0.48979   0.00000  Uiso   1.00
H255   H     0.57291   0.81448   0.37910   0.00000  Uiso   1.00
H256   H     0.37717   0.82836   0.59569   0.00000  Uiso   1.00
H257   H     0.24751   0.68472   0.47794   0.00000  Uiso   1.00
H258   H     0.76451   0.83175   0.28269   0.00000  Uiso   1.00
H259   H     0.35175   0.86101   0.73940   0.00000  Uiso   1.00
H260   H     0.07833   0.55813   0.49110   0.00000  Uiso   1.00
H261   H     0.38892   0.51146   0.69249   0.00000  Uiso   1.00
H262   H     0.56236   0.54302   0.59292   0.00000  Uiso   1.00
H263   H     0.36662   0.55691   0.80951   0.00000  Uiso   1.00
H264   H     0.23696   0.41327   0.69176   0.00000  Uiso   1.00
H265   H     0.75595   0.61143   0.45624   0.00000  Uiso   1.00
H266   H     0.34319   0.64069   0.91295   0.00000  Uiso   1.00
H267   H     0.06977   0.33781   0.66464   0.00000  Uiso   1.00
O268   O     0.87451   0.74701   0.30032   0.00000  Uiso   1.00
O269   O     0.33297   0.78539   0.89951   0.00000  Uiso   1.00
O270   O     0.97426   0.38802   0.57373   0.00000  Uiso   1.00
N271   N     0.73869   0.77556   0.33720   0.00000  Uiso   1.00
N272   N     0.35280   0.80292   0.76419   0.00000  Uiso   1.00
N273   N     0.09715   0.51975   0.53206   0.00000  Uiso   1.00
N274   N     0.73408   0.65700   0.43058   0.00000  Uiso   1.00
N275   N     0.34819   0.68437   0.85757   0.00000  Uiso   1.00
N276   N     0.09255   0.40120   0.62544   0.00000  Uiso   1.00
