data_job_04167
_audit_creation_date              2018-12-19
_audit_creation_method            'Materials Studio'
_symmetry_space_group_name_H-M    'P1'
_symmetry_Int_Tables_number       1
_symmetry_cell_setting            triclinic
loop_
_symmetry_equiv_pos_as_xyz
  x,y,z
_cell_length_a                    24.0343
_cell_length_b                    10.0121
_cell_length_c                    30.1741
_cell_angle_alpha                 90.0000
_cell_angle_beta                  152.7010
_cell_angle_gamma                 90.0000
loop_
_atom_site_label
_atom_site_type_symbol
_atom_site_fract_x
_atom_site_fract_y
_atom_site_fract_z
_atom_site_U_iso_or_equiv
_atom_site_adp_type
_atom_site_occupancy
C1     C     0.64476   0.36338   0.78137   0.00000  Uiso   1.00
C2     C     0.66322   0.21270   0.79745   0.00000  Uiso   1.00
C3     C     0.70325   0.14353   0.86285   0.00000  Uiso   1.00
C4     C     0.71423   0.00590   0.86667   0.00000  Uiso   1.00
C5     C     0.74724   0.78198   0.90072   0.00000  Uiso   1.00
C6     C     0.72235   0.41041   0.79748   0.00000  Uiso   1.00
C7     C     0.81209   0.50748   0.86290   0.00000  Uiso   1.00
C8     C     0.87282   0.53628   0.86673   0.00000  Uiso   1.00
C9     C     0.99757   0.61937   0.90077   0.00000  Uiso   1.00
C10    C     0.51328   0.38382   0.67413   0.00000  Uiso   1.00
C11    C     0.42722   0.45857   0.63585   0.00000  Uiso   1.00
C12    C     0.31194   0.46502   0.53583   0.00000  Uiso   1.00
C13    C     0.11206   0.50683   0.37836   0.00000  Uiso   1.00
C14    C     0.59306   0.24196   0.67183   0.00000  Uiso   1.00
C15    C     0.63515   0.14676   0.73795   0.00000  Uiso   1.00
C16    C     0.64606   0.00920   0.74167   0.00000  Uiso   1.00
C17    C     0.68610   0.93983   0.80707   0.00000  Uiso   1.00
C18    C     0.69428   0.34446   0.73798   0.00000  Uiso   1.00
C19    C     0.75490   0.37314   0.74171   0.00000  Uiso   1.00
C20    C     0.84470   0.47021   0.80713   0.00000  Uiso   1.00
C21    C     0.48520   0.31787   0.61463   0.00000  Uiso   1.00
C22    C     0.37003   0.32422   0.51466   0.00000  Uiso   1.00
C23    C     0.28381   0.39896   0.47623   0.00000  Uiso   1.00
H24    H     0.66662   0.41473   0.82769   0.00000  Uiso   1.00
H25    H     0.72498   0.19461   0.90889   0.00000  Uiso   1.00
H26    H     0.83378   0.55850   0.90893   0.00000  Uiso   1.00
H27    H     0.44898   0.50959   0.68191   0.00000  Uiso   1.00
H28    H     0.77735   0.92149   0.97270   0.00000  Uiso   1.00
H29    H     0.00674   0.68880   0.97276   0.00000  Uiso   1.00
H30    H     0.19530   0.58568   0.49405   0.00000  Uiso   1.00
H31    H     0.57121   0.19062   0.62551   0.00000  Uiso   1.00
H32    H     0.62433   0.95819   0.69562   0.00000  Uiso   1.00
H33    H     0.73314   0.32209   0.69566   0.00000  Uiso   1.00
H34    H     0.34833   0.27318   0.46864   0.00000  Uiso   1.00
H35    H     0.69566   0.72960   0.79961   0.00000  Uiso   1.00
H36    H     0.92505   0.49693   0.79966   0.00000  Uiso   1.00
H37    H     0.11362   0.39379   0.32095   0.00000  Uiso   1.00
O38    O     0.77322   0.67670   0.93594   0.00000  Uiso   1.00
O39    O     0.07414   0.68341   0.93600   0.00000  Uiso   1.00
O40    O     0.00956   0.54810   0.30795   0.00000  Uiso   1.00
N41    N     0.75081   0.90822   0.92233   0.00000  Uiso   1.00
N42    N     0.96529   0.62560   0.92239   0.00000  Uiso   1.00
N43    N     0.20667   0.52922   0.47484   0.00000  Uiso   1.00
N44    N     0.70685   0.80497   0.82919   0.00000  Uiso   1.00
N45    N     0.92133   0.52235   0.82925   0.00000  Uiso   1.00
N46    N     0.16272   0.42596   0.38169   0.00000  Uiso   1.00
C47    C     0.35524   0.36338   0.71863   0.00000  Uiso   1.00
C48    C     0.33678   0.21270   0.70255   0.00000  Uiso   1.00
C49    C     0.29675   0.14353   0.63715   0.00000  Uiso   1.00
C50    C     0.28577   0.00590   0.63333   0.00000  Uiso   1.00
C51    C     0.25276   0.78198   0.59928   0.00000  Uiso   1.00
C52    C     0.27765   0.41041   0.70252   0.00000  Uiso   1.00
C53    C     0.18791   0.50748   0.63710   0.00000  Uiso   1.00
C54    C     0.12718   0.53628   0.63327   0.00000  Uiso   1.00
C55    C     0.00243   0.61937   0.59923   0.00000  Uiso   1.00
C56    C     0.48672   0.38382   0.82587   0.00000  Uiso   1.00
C57    C     0.57278   0.45857   0.86415   0.00000  Uiso   1.00
C58    C     0.68806   0.46502   0.96417   0.00000  Uiso   1.00
C59    C     0.88794   0.50683   0.12164   0.00000  Uiso   1.00
C60    C     0.40694   0.24196   0.82817   0.00000  Uiso   1.00
C61    C     0.36485   0.14676   0.76205   0.00000  Uiso   1.00
C62    C     0.35394   0.00920   0.75833   0.00000  Uiso   1.00
C63    C     0.31390   0.93983   0.69293   0.00000  Uiso   1.00
C64    C     0.30572   0.34446   0.76202   0.00000  Uiso   1.00
C65    C     0.24510   0.37314   0.75829   0.00000  Uiso   1.00
C66    C     0.15530   0.47021   0.69287   0.00000  Uiso   1.00
C67    C     0.51480   0.31787   0.88537   0.00000  Uiso   1.00
C68    C     0.62997   0.32422   0.98534   0.00000  Uiso   1.00
C69    C     0.71619   0.39896   0.02377   0.00000  Uiso   1.00
H70    H     0.33338   0.41473   0.67231   0.00000  Uiso   1.00
H71    H     0.27502   0.19461   0.59111   0.00000  Uiso   1.00
H72    H     0.16622   0.55850   0.59107   0.00000  Uiso   1.00
H73    H     0.55102   0.50959   0.81809   0.00000  Uiso   1.00
H74    H     0.22265   0.92149   0.52730   0.00000  Uiso   1.00
H75    H     0.99326   0.68880   0.52724   0.00000  Uiso   1.00
H76    H     0.80470   0.58568   0.00595   0.00000  Uiso   1.00
H77    H     0.42879   0.19062   0.87449   0.00000  Uiso   1.00
H78    H     0.37567   0.95819   0.80438   0.00000  Uiso   1.00
H79    H     0.26686   0.32209   0.80434   0.00000  Uiso   1.00
H80    H     0.65167   0.27318   0.03136   0.00000  Uiso   1.00
H81    H     0.30434   0.72960   0.70039   0.00000  Uiso   1.00
H82    H     0.07495   0.49693   0.70034   0.00000  Uiso   1.00
H83    H     0.88638   0.39379   0.17905   0.00000  Uiso   1.00
O84    O     0.22678   0.67670   0.56406   0.00000  Uiso   1.00
O85    O     0.92586   0.68341   0.56400   0.00000  Uiso   1.00
O86    O     0.99044   0.54810   0.19205   0.00000  Uiso   1.00
N87    N     0.24919   0.90822   0.57767   0.00000  Uiso   1.00
N88    N     0.03471   0.62560   0.57761   0.00000  Uiso   1.00
N89    N     0.79333   0.52922   0.02516   0.00000  Uiso   1.00
N90    N     0.29315   0.80497   0.67081   0.00000  Uiso   1.00
N91    N     0.07867   0.52235   0.67075   0.00000  Uiso   1.00
N92    N     0.83728   0.42596   0.11831   0.00000  Uiso   1.00
C93    C     0.35524   0.63662   0.21863   0.00000  Uiso   1.00
C94    C     0.33678   0.78730   0.20255   0.00000  Uiso   1.00
C95    C     0.29675   0.85647   0.13715   0.00000  Uiso   1.00
C96    C     0.28577   0.99410   0.13333   0.00000  Uiso   1.00
C97    C     0.25276   0.21802   0.09928   0.00000  Uiso   1.00
C98    C     0.27765   0.58959   0.20252   0.00000  Uiso   1.00
C99    C     0.18791   0.49252   0.13710   0.00000  Uiso   1.00
C100   C     0.12718   0.46372   0.13327   0.00000  Uiso   1.00
C101   C     0.00243   0.38063   0.09923   0.00000  Uiso   1.00
C102   C     0.48672   0.61618   0.32587   0.00000  Uiso   1.00
C103   C     0.57278   0.54143   0.36415   0.00000  Uiso   1.00
C104   C     0.68806   0.53498   0.46417   0.00000  Uiso   1.00
C105   C     0.88794   0.49317   0.62164   0.00000  Uiso   1.00
C106   C     0.40694   0.75804   0.32817   0.00000  Uiso   1.00
C107   C     0.36485   0.85324   0.26205   0.00000  Uiso   1.00
C108   C     0.35394   0.99080   0.25833   0.00000  Uiso   1.00
C109   C     0.31390   0.06017   0.19293   0.00000  Uiso   1.00
C110   C     0.30572   0.65554   0.26202   0.00000  Uiso   1.00
C111   C     0.24510   0.62686   0.25829   0.00000  Uiso   1.00
C112   C     0.15530   0.52979   0.19287   0.00000  Uiso   1.00
C113   C     0.51480   0.68213   0.38537   0.00000  Uiso   1.00
C114   C     0.62997   0.67578   0.48534   0.00000  Uiso   1.00
C115   C     0.71619   0.60104   0.52377   0.00000  Uiso   1.00
H116   H     0.33338   0.58527   0.17231   0.00000  Uiso   1.00
H117   H     0.27502   0.80539   0.09111   0.00000  Uiso   1.00
H118   H     0.16622   0.44150   0.09107   0.00000  Uiso   1.00
H119   H     0.55102   0.49041   0.31809   0.00000  Uiso   1.00
H120   H     0.22265   0.07851   0.02730   0.00000  Uiso   1.00
H121   H     0.99326   0.31120   0.02724   0.00000  Uiso   1.00
H122   H     0.80470   0.41432   0.50595   0.00000  Uiso   1.00
H123   H     0.42879   0.80938   0.37449   0.00000  Uiso   1.00
H124   H     0.37567   0.04181   0.30438   0.00000  Uiso   1.00
H125   H     0.26686   0.67791   0.30434   0.00000  Uiso   1.00
H126   H     0.65167   0.72682   0.53136   0.00000  Uiso   1.00
H127   H     0.30434   0.27040   0.20039   0.00000  Uiso   1.00
H128   H     0.07495   0.50307   0.20034   0.00000  Uiso   1.00
H129   H     0.88638   0.60621   0.67905   0.00000  Uiso   1.00
O130   O     0.22678   0.32330   0.06406   0.00000  Uiso   1.00
O131   O     0.92586   0.31659   0.06400   0.00000  Uiso   1.00
O132   O     0.99044   0.45190   0.69205   0.00000  Uiso   1.00
N133   N     0.24919   0.09178   0.07767   0.00000  Uiso   1.00
N134   N     0.03471   0.37440   0.07761   0.00000  Uiso   1.00
N135   N     0.79333   0.47078   0.52516   0.00000  Uiso   1.00
N136   N     0.29315   0.19503   0.17081   0.00000  Uiso   1.00
N137   N     0.07867   0.47765   0.17075   0.00000  Uiso   1.00
N138   N     0.83728   0.57404   0.61831   0.00000  Uiso   1.00
C139   C     0.64476   0.63662   0.28137   0.00000  Uiso   1.00
C140   C     0.66322   0.78730   0.29745   0.00000  Uiso   1.00
C141   C     0.70325   0.85647   0.36285   0.00000  Uiso   1.00
C142   C     0.71423   0.99410   0.36667   0.00000  Uiso   1.00
C143   C     0.74724   0.21802   0.40072   0.00000  Uiso   1.00
C144   C     0.72235   0.58959   0.29748   0.00000  Uiso   1.00
C145   C     0.81209   0.49252   0.36290   0.00000  Uiso   1.00
C146   C     0.87282   0.46372   0.36673   0.00000  Uiso   1.00
C147   C     0.99757   0.38063   0.40077   0.00000  Uiso   1.00
C148   C     0.51328   0.61618   0.17413   0.00000  Uiso   1.00
C149   C     0.42722   0.54143   0.13585   0.00000  Uiso   1.00
C150   C     0.31194   0.53498   0.03583   0.00000  Uiso   1.00
C151   C     0.11206   0.49317   0.87836   0.00000  Uiso   1.00
C152   C     0.59306   0.75804   0.17183   0.00000  Uiso   1.00
C153   C     0.63515   0.85324   0.23795   0.00000  Uiso   1.00
C154   C     0.64606   0.99080   0.24167   0.00000  Uiso   1.00
C155   C     0.68610   0.06017   0.30707   0.00000  Uiso   1.00
C156   C     0.69428   0.65554   0.23798   0.00000  Uiso   1.00
C157   C     0.75490   0.62686   0.24171   0.00000  Uiso   1.00
C158   C     0.84470   0.52979   0.30713   0.00000  Uiso   1.00
C159   C     0.48520   0.68213   0.11463   0.00000  Uiso   1.00
C160   C     0.37003   0.67578   0.01466   0.00000  Uiso   1.00
C161   C     0.28381   0.60104   0.97623   0.00000  Uiso   1.00
H162   H     0.66662   0.58527   0.32769   0.00000  Uiso   1.00
H163   H     0.72498   0.80539   0.40889   0.00000  Uiso   1.00
H164   H     0.83378   0.44150   0.40893   0.00000  Uiso   1.00
H165   H     0.44898   0.49041   0.18191   0.00000  Uiso   1.00
H166   H     0.77735   0.07851   0.47270   0.00000  Uiso   1.00
H167   H     0.00674   0.31120   0.47276   0.00000  Uiso   1.00
H168   H     0.19530   0.41432   0.99405   0.00000  Uiso   1.00
H169   H     0.57121   0.80938   0.12551   0.00000  Uiso   1.00
H170   H     0.62433   0.04181   0.19562   0.00000  Uiso   1.00
H171   H     0.73314   0.67791   0.19566   0.00000  Uiso   1.00
H172   H     0.34833   0.72682   0.96864   0.00000  Uiso   1.00
H173   H     0.69566   0.27040   0.29961   0.00000  Uiso   1.00
H174   H     0.92505   0.50307   0.29966   0.00000  Uiso   1.00
H175   H     0.11362   0.60621   0.82095   0.00000  Uiso   1.00
O176   O     0.77322   0.32330   0.43594   0.00000  Uiso   1.00
O177   O     0.07414   0.31659   0.43600   0.00000  Uiso   1.00
O178   O     0.00956   0.45190   0.80795   0.00000  Uiso   1.00
N179   N     0.75081   0.09178   0.42233   0.00000  Uiso   1.00
N180   N     0.96529   0.37440   0.42239   0.00000  Uiso   1.00
N181   N     0.20667   0.47078   0.97484   0.00000  Uiso   1.00
N182   N     0.70685   0.19503   0.32919   0.00000  Uiso   1.00
N183   N     0.92133   0.47765   0.32925   0.00000  Uiso   1.00
N184   N     0.16272   0.57404   0.88169   0.00000  Uiso   1.00
