data_job_01058
_audit_creation_date              2018-12-19
_audit_creation_method            'Materials Studio'
_symmetry_space_group_name_H-M    'P1'
_symmetry_Int_Tables_number       1
_symmetry_cell_setting            triclinic
loop_
_symmetry_equiv_pos_as_xyz
  x,y,z
_cell_length_a                    12.5626
_cell_length_b                    16.3212
_cell_length_c                    23.1706
_cell_angle_alpha                 96.0397
_cell_angle_beta                  74.3452
_cell_angle_gamma                 99.3664
loop_
_atom_site_label
_atom_site_type_symbol
_atom_site_fract_x
_atom_site_fract_y
_atom_site_fract_z
_atom_site_U_iso_or_equiv
_atom_site_adp_type
_atom_site_occupancy
C1     C     0.81879   0.49605   0.31346   0.00000  Uiso   1.00
C2     C     0.90621   0.50994   0.34944   0.00000  Uiso   1.00
C3     C     0.97770   0.58316   0.35444   0.00000  Uiso   1.00
C4     C     0.05168   0.58332   0.38945   0.00000  Uiso   1.00
C5     C     0.18711   0.61561   0.44088   0.00000  Uiso   1.00
C6     C     0.84537   0.42106   0.26975   0.00000  Uiso   1.00
C7     C     0.86570   0.41954   0.20775   0.00000  Uiso   1.00
C8     C     0.88845   0.34486   0.17568   0.00000  Uiso   1.00
C9     C     0.92934   0.23914   0.10339   0.00000  Uiso   1.00
C10    C     0.70772   0.46811   0.35771   0.00000  Uiso   1.00
C11    C     0.61230   0.50615   0.36967   0.00000  Uiso   1.00
C12    C     0.51916   0.47108   0.41164   0.00000  Uiso   1.00
C13    C     0.34633   0.43842   0.47594   0.00000  Uiso   1.00
C14    C     0.82305   0.36612   0.36674   0.00000  Uiso   1.00
C15    C     0.90852   0.43936   0.37837   0.00000  Uiso   1.00
C16    C     0.98241   0.43941   0.41339   0.00000  Uiso   1.00
C17    C     0.05400   0.51262   0.41844   0.00000  Uiso   1.00
C18    C     0.84768   0.35048   0.29868   0.00000  Uiso   1.00
C19    C     0.87041   0.27578   0.26669   0.00000  Uiso   1.00
C20    C     0.89077   0.27416   0.20466   0.00000  Uiso   1.00
C21    C     0.71003   0.39754   0.38665   0.00000  Uiso   1.00
C22    C     0.61702   0.36239   0.42861   0.00000  Uiso   1.00
C23    C     0.52147   0.40037   0.44063   0.00000  Uiso   1.00
H24    H     0.81699   0.55099   0.29093   0.00000  Uiso   1.00
H25    H     0.97589   0.63777   0.33203   0.00000  Uiso   1.00
H26    H     0.86389   0.47416   0.18537   0.00000  Uiso   1.00
H27    H     0.61054   0.56076   0.34726   0.00000  Uiso   1.00
H28    H     0.15311   0.70283   0.39035   0.00000  Uiso   1.00
H29    H     0.91691   0.35787   0.08110   0.00000  Uiso   1.00
H30    H     0.38267   0.54047   0.42248   0.00000  Uiso   1.00
H31    H     0.82485   0.31117   0.38927   0.00000  Uiso   1.00
H32    H     0.98418   0.38478   0.43577   0.00000  Uiso   1.00
H33    H     0.87218   0.22118   0.28910   0.00000  Uiso   1.00
H34    H     0.61883   0.30778   0.45100   0.00000  Uiso   1.00
H35    H     0.15984   0.49750   0.47454   0.00000  Uiso   1.00
H36    H     0.92364   0.15253   0.16529   0.00000  Uiso   1.00
H37    H     0.38940   0.33514   0.50668   0.00000  Uiso   1.00
O38    O     0.26117   0.65291   0.46125   0.00000  Uiso   1.00
O39    O     0.95127   0.20032   0.05552   0.00000  Uiso   1.00
O40    O     0.25036   0.43990   0.50341   0.00000  Uiso   1.00
N41    N     0.13281   0.64441   0.40379   0.00000  Uiso   1.00
N42    N     0.91200   0.32189   0.11466   0.00000  Uiso   1.00
N43    N     0.41252   0.49260   0.43381   0.00000  Uiso   1.00
N44    N     0.13643   0.53392   0.44910   0.00000  Uiso   1.00
N45    N     0.91562   0.21140   0.15996   0.00000  Uiso   1.00
N46    N     0.41614   0.38211   0.47912   0.00000  Uiso   1.00
C47    C     0.26977   0.13296   0.80220   0.00000  Uiso   1.00
C48    C     0.35480   0.14743   0.83967   0.00000  Uiso   1.00
C49    C     0.42419   0.22129   0.84611   0.00000  Uiso   1.00
C50    C     0.49618   0.22191   0.88234   0.00000  Uiso   1.00
C51    C     0.62787   0.25513   0.93612   0.00000  Uiso   1.00
C52    C     0.29983   0.05892   0.75816   0.00000  Uiso   1.00
C53    C     0.32299   0.05836   0.69608   0.00000  Uiso   1.00
C54    C     0.34870   0.98446   0.66370   0.00000  Uiso   1.00
C55    C     0.39498   0.88024   0.59094   0.00000  Uiso   1.00
C56    C     0.15774   0.10326   0.84501   0.00000  Uiso   1.00
C57    C     0.06142   0.13997   0.85595   0.00000  Uiso   1.00
C58    C     0.96748   0.10338   0.89667   0.00000  Uiso   1.00
C59    C     0.79315   0.06802   0.95876   0.00000  Uiso   1.00
C60    C     0.27422   0.00270   0.85508   0.00000  Uiso   1.00
C61    C     0.35721   0.07668   0.86838   0.00000  Uiso   1.00
C62    C     0.42911   0.07718   0.90461   0.00000  Uiso   1.00
C63    C     0.49860   0.15103   0.91111   0.00000  Uiso   1.00
C64    C     0.30225   0.98817   0.78688   0.00000  Uiso   1.00
C65    C     0.32792   0.91425   0.75458   0.00000  Uiso   1.00
C66    C     0.35112   0.91358   0.69247   0.00000  Uiso   1.00
C67    C     0.16016   0.03251   0.87373   0.00000  Uiso   1.00
C68    C     0.06635   0.99585   0.91445   0.00000  Uiso   1.00
C69    C     0.96991   0.03250   0.92544   0.00000  Uiso   1.00
H70    H     0.26789   0.18804   0.77984   0.00000  Uiso   1.00
H71    H     0.42230   0.27603   0.82388   0.00000  Uiso   1.00
H72    H     0.32110   0.11312   0.67387   0.00000  Uiso   1.00
H73    H     0.05958   0.19472   0.83371   0.00000  Uiso   1.00
H74    H     0.59458   0.34238   0.88534   0.00000  Uiso   1.00
H75    H     0.38118   0.99886   0.56905   0.00000  Uiso   1.00
H76    H     0.82969   0.17093   0.90611   0.00000  Uiso   1.00
H77    H     0.27611   0.94761   0.87743   0.00000  Uiso   1.00
H78    H     0.43097   0.02242   0.92683   0.00000  Uiso   1.00
H79    H     0.32978   0.85950   0.77682   0.00000  Uiso   1.00
H80    H     0.06825   0.94110   0.93666   0.00000  Uiso   1.00
H81    H     0.60163   0.13654   0.96890   0.00000  Uiso   1.00
H82    H     0.38822   0.79302   0.65260   0.00000  Uiso   1.00
H83    H     0.83674   0.96508   0.98966   0.00000  Uiso   1.00
O84    O     0.69986   0.29300   0.95784   0.00000  Uiso   1.00
O85    O     0.41986   0.84231   0.54287   0.00000  Uiso   1.00
O86    O     0.69633   0.06806   0.98508   0.00000  Uiso   1.00
N87    N     0.57497   0.28367   0.89824   0.00000  Uiso   1.00
N88    N     0.37547   0.96251   0.60252   0.00000  Uiso   1.00
N89    N     0.85987   0.12336   0.91763   0.00000  Uiso   1.00
N90    N     0.57876   0.17291   0.94320   0.00000  Uiso   1.00
N91    N     0.37926   0.85175   0.64748   0.00000  Uiso   1.00
N92    N     0.86366   0.01260   0.96259   0.00000  Uiso   1.00
C93    C     0.33618   0.50563   0.22988   0.00000  Uiso   1.00
C94    C     0.25384   0.52165   0.19598   0.00000  Uiso   1.00
C95    C     0.20637   0.59407   0.20145   0.00000  Uiso   1.00
C96    C     0.13296   0.59651   0.16655   0.00000  Uiso   1.00
C97    C     0.00886   0.63166   0.11985   0.00000  Uiso   1.00
C98    C     0.28411   0.42658   0.26244   0.00000  Uiso   1.00
C99    C     0.26212   0.41906   0.32379   0.00000  Uiso   1.00
C100   C     0.21420   0.34145   0.34483   0.00000  Uiso   1.00
C101   C     0.13719   0.22898   0.40132   0.00000  Uiso   1.00
C102   C     0.43907   0.48336   0.18208   0.00000  Uiso   1.00
C103   C     0.54737   0.52357   0.17587   0.00000  Uiso   1.00
C104   C     0.62992   0.49375   0.12926   0.00000  Uiso   1.00
C105   C     0.79349   0.46944   0.06097   0.00000  Uiso   1.00
C106   C     0.29021   0.38117   0.15815   0.00000  Uiso   1.00
C107   C     0.22887   0.45405   0.15702   0.00000  Uiso   1.00
C108   C     0.15552   0.45638   0.12209   0.00000  Uiso   1.00
C109   C     0.10795   0.52879   0.12751   0.00000  Uiso   1.00
C110   C     0.25915   0.35898   0.22348   0.00000  Uiso   1.00
C111   C     0.21126   0.28136   0.24444   0.00000  Uiso   1.00
C112   C     0.18919   0.27373   0.30581   0.00000  Uiso   1.00
C113   C     0.41410   0.41576   0.14312   0.00000  Uiso   1.00
C114   C     0.49651   0.38587   0.09651   0.00000  Uiso   1.00
C115   C     0.60491   0.42603   0.09023   0.00000  Uiso   1.00
H116   H     0.35561   0.55825   0.26021   0.00000  Uiso   1.00
H117   H     0.22571   0.64637   0.23161   0.00000  Uiso   1.00
H118   H     0.28146   0.47138   0.35393   0.00000  Uiso   1.00
H119   H     0.56666   0.57588   0.20603   0.00000  Uiso   1.00
H120   H     0.07064   0.71425   0.18273   0.00000  Uiso   1.00
H121   H     0.18823   0.34526   0.44065   0.00000  Uiso   1.00
H122   H     0.78963   0.56561   0.12877   0.00000  Uiso   1.00
H123   H     0.27077   0.32853   0.12782   0.00000  Uiso   1.00
H124   H     0.13621   0.40405   0.09195   0.00000  Uiso   1.00
H125   H     0.19196   0.22906   0.21427   0.00000  Uiso   1.00
H126   H     0.47716   0.33355   0.06637   0.00000  Uiso   1.00
H127   H     0.99799   0.51757   0.06938   0.00000  Uiso   1.00
H128   H     0.11559   0.14858   0.32730   0.00000  Uiso   1.00
H129   H     0.71699   0.36893   0.01542   0.00000  Uiso   1.00
O130   O     0.94730   0.66972   0.10486   0.00000  Uiso   1.00
O131   O     0.10159   0.18562   0.44324   0.00000  Uiso   1.00
O132   O     0.89061   0.47472   0.03406   0.00000  Uiso   1.00
N133   N     0.07203   0.65760   0.16097   0.00000  Uiso   1.00
N134   N     0.18195   0.31263   0.40211   0.00000  Uiso   1.00
N135   N     0.74421   0.51862   0.11054   0.00000  Uiso   1.00
N136   N     0.03294   0.55177   0.09997   0.00000  Uiso   1.00
N137   N     0.14286   0.20680   0.34112   0.00000  Uiso   1.00
N138   N     0.70513   0.41279   0.04954   0.00000  Uiso   1.00
C139   C     0.78543   0.13388   0.71678   0.00000  Uiso   1.00
C140   C     0.70583   0.15106   0.68154   0.00000  Uiso   1.00
C141   C     0.66076   0.22436   0.68594   0.00000  Uiso   1.00
C142   C     0.58963   0.22778   0.64990   0.00000  Uiso   1.00
C143   C     0.46980   0.26470   0.60114   0.00000  Uiso   1.00
C144   C     0.73007   0.05547   0.74949   0.00000  Uiso   1.00
C145   C     0.70541   0.04841   0.81101   0.00000  Uiso   1.00
C146   C     0.65471   0.97136   0.83217   0.00000  Uiso   1.00
C147   C     0.57260   0.85988   0.88889   0.00000  Uiso   1.00
C148   C     0.88873   0.10994   0.67010   0.00000  Uiso   1.00
C149   C     0.99747   0.14866   0.66488   0.00000  Uiso   1.00
C150   C     0.08035   0.11746   0.61921   0.00000  Uiso   1.00
C151   C     0.24457   0.09054   0.55267   0.00000  Uiso   1.00
C152   C     0.73925   0.00961   0.64496   0.00000  Uiso   1.00
C153   C     0.68075   0.08355   0.64253   0.00000  Uiso   1.00
C154   C     0.60967   0.08686   0.60648   0.00000  Uiso   1.00
C155   C     0.56451   0.16016   0.61082   0.00000  Uiso   1.00
C156   C     0.70499   0.98797   0.71048   0.00000  Uiso   1.00
C157   C     0.65432   0.91092   0.73155   0.00000  Uiso   1.00
C158   C     0.62958   0.90374   0.79309   0.00000  Uiso   1.00
C159   C     0.86365   0.04244   0.63109   0.00000  Uiso   1.00
C160   C     0.94638   0.01117   0.58542   0.00000  Uiso   1.00
C161   C     0.05522   0.04983   0.58013   0.00000  Uiso   1.00
H162   H     0.80495   0.18642   0.74716   0.00000  Uiso   1.00
H163   H     0.68018   0.27658   0.71614   0.00000  Uiso   1.00
H164   H     0.72484   0.10065   0.84119   0.00000  Uiso   1.00
H165   H     0.01684   0.20089   0.69508   0.00000  Uiso   1.00
H166   H     0.53075   0.34675   0.66457   0.00000  Uiso   1.00
H167   H     0.62495   0.97580   0.92824   0.00000  Uiso   1.00
H168   H     0.24071   0.18716   0.62014   0.00000  Uiso   1.00
H169   H     0.71973   0.95705   0.61459   0.00000  Uiso   1.00
H170   H     0.59028   0.03462   0.57629   0.00000  Uiso   1.00
H171   H     0.63493   0.85870   0.70135   0.00000  Uiso   1.00
H172   H     0.92694   0.95893   0.55524   0.00000  Uiso   1.00
H173   H     0.45778   0.15036   0.55106   0.00000  Uiso   1.00
H174   H     0.55199   0.77942   0.81474   0.00000  Uiso   1.00
H175   H     0.16774   0.99078   0.50663   0.00000  Uiso   1.00
O176   O     0.41062   0.30371   0.58503   0.00000  Uiso   1.00
O177   O     0.53423   0.81704   0.93096   0.00000  Uiso   1.00
O178   O     0.34208   0.09435   0.52674   0.00000  Uiso   1.00
N179   N     0.53136   0.28989   0.64310   0.00000  Uiso   1.00
N180   N     0.61942   0.94308   0.88962   0.00000  Uiso   1.00
N181   N     0.19510   0.14067   0.60158   0.00000  Uiso   1.00
N182   N     0.49210   0.18422   0.58202   0.00000  Uiso   1.00
N183   N     0.58015   0.83741   0.82854   0.00000  Uiso   1.00
N184   N     0.15584   0.03500   0.54050   0.00000  Uiso   1.00
C185   C     0.18121   0.50395   0.68654   0.00000  Uiso   1.00
C186   C     0.09379   0.49006   0.65056   0.00000  Uiso   1.00
C187   C     0.02230   0.41684   0.64556   0.00000  Uiso   1.00
C188   C     0.94832   0.41668   0.61055   0.00000  Uiso   1.00
C189   C     0.81289   0.38439   0.55912   0.00000  Uiso   1.00
C190   C     0.15463   0.57894   0.73025   0.00000  Uiso   1.00
C191   C     0.13430   0.58046   0.79225   0.00000  Uiso   1.00
C192   C     0.11155   0.65514   0.82432   0.00000  Uiso   1.00
C193   C     0.07066   0.76086   0.89661   0.00000  Uiso   1.00
C194   C     0.29228   0.53189   0.64229   0.00000  Uiso   1.00
C195   C     0.38770   0.49385   0.63033   0.00000  Uiso   1.00
C196   C     0.48084   0.52892   0.58836   0.00000  Uiso   1.00
C197   C     0.65367   0.56158   0.52406   0.00000  Uiso   1.00
C198   C     0.17695   0.63388   0.63326   0.00000  Uiso   1.00
C199   C     0.09148   0.56064   0.62163   0.00000  Uiso   1.00
C200   C     0.01759   0.56059   0.58661   0.00000  Uiso   1.00
C201   C     0.94600   0.48738   0.58156   0.00000  Uiso   1.00
C202   C     0.15232   0.64952   0.70132   0.00000  Uiso   1.00
C203   C     0.12959   0.72422   0.73331   0.00000  Uiso   1.00
C204   C     0.10923   0.72584   0.79534   0.00000  Uiso   1.00
C205   C     0.28997   0.60246   0.61335   0.00000  Uiso   1.00
C206   C     0.38298   0.63761   0.57139   0.00000  Uiso   1.00
C207   C     0.47853   0.59963   0.55937   0.00000  Uiso   1.00
H208   H     0.18301   0.44901   0.70907   0.00000  Uiso   1.00
H209   H     0.02411   0.36223   0.66797   0.00000  Uiso   1.00
H210   H     0.13611   0.52584   0.81463   0.00000  Uiso   1.00
H211   H     0.38946   0.43924   0.65274   0.00000  Uiso   1.00
H212   H     0.84689   0.29717   0.60965   0.00000  Uiso   1.00
H213   H     0.08309   0.64213   0.91890   0.00000  Uiso   1.00
H214   H     0.61733   0.45953   0.57752   0.00000  Uiso   1.00
H215   H     0.17515   0.68883   0.61073   0.00000  Uiso   1.00
H216   H     0.01582   0.61522   0.56423   0.00000  Uiso   1.00
H217   H     0.12782   0.77882   0.71090   0.00000  Uiso   1.00
H218   H     0.38117   0.69222   0.54900   0.00000  Uiso   1.00
H219   H     0.84016   0.50250   0.52546   0.00000  Uiso   1.00
H220   H     0.07636   0.84747   0.83471   0.00000  Uiso   1.00
H221   H     0.61060   0.66486   0.49332   0.00000  Uiso   1.00
O222   O     0.73883   0.34709   0.53875   0.00000  Uiso   1.00
O223   O     0.04873   0.79968   0.94448   0.00000  Uiso   1.00
O224   O     0.74964   0.56010   0.49659   0.00000  Uiso   1.00
N225   N     0.86719   0.35559   0.59621   0.00000  Uiso   1.00
N226   N     0.08800   0.67811   0.88534   0.00000  Uiso   1.00
N227   N     0.58748   0.50740   0.56619   0.00000  Uiso   1.00
N228   N     0.86357   0.46608   0.55090   0.00000  Uiso   1.00
N229   N     0.08438   0.78860   0.84004   0.00000  Uiso   1.00
N230   N     0.58386   0.61789   0.52088   0.00000  Uiso   1.00
C231   C     0.73023   0.86704   0.19780   0.00000  Uiso   1.00
C232   C     0.64520   0.85257   0.16033   0.00000  Uiso   1.00
C233   C     0.57581   0.77871   0.15389   0.00000  Uiso   1.00
C234   C     0.50382   0.77809   0.11766   0.00000  Uiso   1.00
C235   C     0.37213   0.74487   0.06388   0.00000  Uiso   1.00
C236   C     0.70017   0.94108   0.24184   0.00000  Uiso   1.00
C237   C     0.67701   0.94164   0.30392   0.00000  Uiso   1.00
C238   C     0.65130   0.01554   0.33630   0.00000  Uiso   1.00
C239   C     0.60502   0.11976   0.40906   0.00000  Uiso   1.00
C240   C     0.84226   0.89674   0.15499   0.00000  Uiso   1.00
C241   C     0.93858   0.86003   0.14405   0.00000  Uiso   1.00
C242   C     0.03252   0.89662   0.10333   0.00000  Uiso   1.00
C243   C     0.20685   0.93198   0.04124   0.00000  Uiso   1.00
C244   C     0.72578   0.99730   0.14492   0.00000  Uiso   1.00
C245   C     0.64279   0.92332   0.13162   0.00000  Uiso   1.00
C246   C     0.57089   0.92282   0.09539   0.00000  Uiso   1.00
C247   C     0.50140   0.84897   0.08889   0.00000  Uiso   1.00
C248   C     0.69775   0.01183   0.21312   0.00000  Uiso   1.00
C249   C     0.67208   0.08575   0.24542   0.00000  Uiso   1.00
C250   C     0.64888   0.08642   0.30753   0.00000  Uiso   1.00
C251   C     0.83984   0.96749   0.12627   0.00000  Uiso   1.00
C252   C     0.93365   0.00415   0.08555   0.00000  Uiso   1.00
C253   C     0.03009   0.96750   0.07456   0.00000  Uiso   1.00
H254   H     0.73211   0.81196   0.22016   0.00000  Uiso   1.00
H255   H     0.57770   0.72397   0.17612   0.00000  Uiso   1.00
H256   H     0.67890   0.88688   0.32613   0.00000  Uiso   1.00
H257   H     0.94042   0.80528   0.16629   0.00000  Uiso   1.00
H258   H     0.40542   0.65762   0.11466   0.00000  Uiso   1.00
H259   H     0.61882   0.00114   0.43095   0.00000  Uiso   1.00
H260   H     0.17031   0.82907   0.09389   0.00000  Uiso   1.00
H261   H     0.72389   0.05239   0.12257   0.00000  Uiso   1.00
H262   H     0.56903   0.97758   0.07317   0.00000  Uiso   1.00
H263   H     0.67022   0.14050   0.22318   0.00000  Uiso   1.00
H264   H     0.93175   0.05890   0.06334   0.00000  Uiso   1.00
H265   H     0.39837   0.86346   0.03110   0.00000  Uiso   1.00
H266   H     0.61178   0.20698   0.34740   0.00000  Uiso   1.00
H267   H     0.16326   0.03492   0.01034   0.00000  Uiso   1.00
O268   O     0.30014   0.70700   0.04216   0.00000  Uiso   1.00
O269   O     0.58014   0.15769   0.45713   0.00000  Uiso   1.00
O270   O     0.30367   0.93194   0.01492   0.00000  Uiso   1.00
N271   N     0.42503   0.71633   0.10176   0.00000  Uiso   1.00
N272   N     0.62453   0.03749   0.39748   0.00000  Uiso   1.00
N273   N     0.14013   0.87664   0.08237   0.00000  Uiso   1.00
N274   N     0.42124   0.82709   0.05680   0.00000  Uiso   1.00
N275   N     0.62074   0.14825   0.35252   0.00000  Uiso   1.00
N276   N     0.13634   0.98740   0.03741   0.00000  Uiso   1.00
C277   C     0.66382   0.49437   0.77012   0.00000  Uiso   1.00
C278   C     0.74616   0.47835   0.80402   0.00000  Uiso   1.00
C279   C     0.79363   0.40593   0.79855   0.00000  Uiso   1.00
C280   C     0.86704   0.40349   0.83345   0.00000  Uiso   1.00
C281   C     0.99114   0.36834   0.88015   0.00000  Uiso   1.00
C282   C     0.71589   0.57342   0.73756   0.00000  Uiso   1.00
C283   C     0.73788   0.58094   0.67621   0.00000  Uiso   1.00
C284   C     0.78580   0.65855   0.65517   0.00000  Uiso   1.00
C285   C     0.86281   0.77102   0.59868   0.00000  Uiso   1.00
C286   C     0.56093   0.51664   0.81792   0.00000  Uiso   1.00
C287   C     0.45263   0.47643   0.82413   0.00000  Uiso   1.00
C288   C     0.37008   0.50625   0.87074   0.00000  Uiso   1.00
C289   C     0.20651   0.53056   0.93903   0.00000  Uiso   1.00
C290   C     0.70979   0.61883   0.84185   0.00000  Uiso   1.00
C291   C     0.77113   0.54595   0.84298   0.00000  Uiso   1.00
C292   C     0.84448   0.54362   0.87791   0.00000  Uiso   1.00
C293   C     0.89205   0.47121   0.87249   0.00000  Uiso   1.00
C294   C     0.74085   0.64102   0.77652   0.00000  Uiso   1.00
C295   C     0.78874   0.71864   0.75556   0.00000  Uiso   1.00
C296   C     0.81081   0.72627   0.69419   0.00000  Uiso   1.00
C297   C     0.58590   0.58424   0.85688   0.00000  Uiso   1.00
C298   C     0.50349   0.61413   0.90349   0.00000  Uiso   1.00
C299   C     0.39509   0.57397   0.90977   0.00000  Uiso   1.00
H300   H     0.64439   0.44175   0.73979   0.00000  Uiso   1.00
H301   H     0.77429   0.35363   0.76839   0.00000  Uiso   1.00
H302   H     0.71854   0.52862   0.64607   0.00000  Uiso   1.00
H303   H     0.43334   0.42412   0.79397   0.00000  Uiso   1.00
H304   H     0.92936   0.28575   0.81727   0.00000  Uiso   1.00
H305   H     0.81177   0.65474   0.55935   0.00000  Uiso   1.00
H306   H     0.21037   0.43439   0.87123   0.00000  Uiso   1.00
H307   H     0.72923   0.67147   0.87218   0.00000  Uiso   1.00
H308   H     0.86379   0.59595   0.90805   0.00000  Uiso   1.00
H309   H     0.80804   0.77094   0.78573   0.00000  Uiso   1.00
H310   H     0.52284   0.66645   0.93363   0.00000  Uiso   1.00
H311   H     0.00201   0.48243   0.93062   0.00000  Uiso   1.00
H312   H     0.88441   0.85142   0.67270   0.00000  Uiso   1.00
H313   H     0.28301   0.63107   0.98458   0.00000  Uiso   1.00
O314   O     0.05270   0.33028   0.89514   0.00000  Uiso   1.00
O315   O     0.89841   0.81438   0.55676   0.00000  Uiso   1.00
O316   O     0.10939   0.52528   0.96594   0.00000  Uiso   1.00
N317   N     0.92797   0.34240   0.83903   0.00000  Uiso   1.00
N318   N     0.81805   0.68737   0.59789   0.00000  Uiso   1.00
N319   N     0.25579   0.48138   0.88946   0.00000  Uiso   1.00
N320   N     0.96706   0.44823   0.90003   0.00000  Uiso   1.00
N321   N     0.85714   0.79320   0.65888   0.00000  Uiso   1.00
N322   N     0.29487   0.58721   0.95046   0.00000  Uiso   1.00
C323   C     0.21457   0.86612   0.28322   0.00000  Uiso   1.00
C324   C     0.29417   0.84894   0.31846   0.00000  Uiso   1.00
C325   C     0.33924   0.77564   0.31406   0.00000  Uiso   1.00
C326   C     0.41037   0.77222   0.35010   0.00000  Uiso   1.00
C327   C     0.53020   0.73530   0.39886   0.00000  Uiso   1.00
C328   C     0.26993   0.94453   0.25051   0.00000  Uiso   1.00
C329   C     0.29459   0.95159   0.18899   0.00000  Uiso   1.00
C330   C     0.34529   0.02864   0.16783   0.00000  Uiso   1.00
C331   C     0.42740   0.14012   0.11111   0.00000  Uiso   1.00
C332   C     0.11127   0.89006   0.32990   0.00000  Uiso   1.00
C333   C     0.00253   0.85134   0.33512   0.00000  Uiso   1.00
C334   C     0.91965   0.88254   0.38079   0.00000  Uiso   1.00
C335   C     0.75543   0.90946   0.44733   0.00000  Uiso   1.00
C336   C     0.26075   0.99039   0.35504   0.00000  Uiso   1.00
C337   C     0.31925   0.91645   0.35747   0.00000  Uiso   1.00
C338   C     0.39033   0.91314   0.39352   0.00000  Uiso   1.00
C339   C     0.43549   0.83984   0.38918   0.00000  Uiso   1.00
C340   C     0.29501   0.01203   0.28952   0.00000  Uiso   1.00
C341   C     0.34568   0.08908   0.26845   0.00000  Uiso   1.00
C342   C     0.37042   0.09626   0.20691   0.00000  Uiso   1.00
C343   C     0.13635   0.95756   0.36891   0.00000  Uiso   1.00
C344   C     0.05362   0.98883   0.41458   0.00000  Uiso   1.00
C345   C     0.94478   0.95017   0.41987   0.00000  Uiso   1.00
H346   H     0.19505   0.81358   0.25284   0.00000  Uiso   1.00
H347   H     0.31982   0.72342   0.28386   0.00000  Uiso   1.00
H348   H     0.27516   0.89935   0.15881   0.00000  Uiso   1.00
H349   H     0.98316   0.79911   0.30492   0.00000  Uiso   1.00
H350   H     0.46925   0.65325   0.33543   0.00000  Uiso   1.00
H351   H     0.37505   0.02420   0.07176   0.00000  Uiso   1.00
H352   H     0.75929   0.81284   0.37986   0.00000  Uiso   1.00
H353   H     0.28027   0.04295   0.38541   0.00000  Uiso   1.00
H354   H     0.40972   0.96538   0.42371   0.00000  Uiso   1.00
H355   H     0.36507   0.14130   0.29865   0.00000  Uiso   1.00
H356   H     0.07306   0.04107   0.44476   0.00000  Uiso   1.00
H357   H     0.54222   0.84964   0.44894   0.00000  Uiso   1.00
H358   H     0.44801   0.22058   0.18526   0.00000  Uiso   1.00
H359   H     0.83226   0.00922   0.49337   0.00000  Uiso   1.00
O360   O     0.58938   0.69629   0.41497   0.00000  Uiso   1.00
O361   O     0.46577   0.18296   0.06904   0.00000  Uiso   1.00
O362   O     0.65792   0.90565   0.47326   0.00000  Uiso   1.00
N363   N     0.46864   0.71011   0.35690   0.00000  Uiso   1.00
N364   N     0.38058   0.05692   0.11038   0.00000  Uiso   1.00
N365   N     0.80490   0.85933   0.39842   0.00000  Uiso   1.00
N366   N     0.50790   0.81578   0.41798   0.00000  Uiso   1.00
N367   N     0.41985   0.16259   0.17146   0.00000  Uiso   1.00
N368   N     0.84416   0.96500   0.45950   0.00000  Uiso   1.00
