data_job_06778
_audit_creation_date              2018-12-19
_audit_creation_method            'Materials Studio'
_symmetry_space_group_name_H-M    'P1'
_symmetry_Int_Tables_number       1
_symmetry_cell_setting            triclinic
loop_
_symmetry_equiv_pos_as_xyz
  x,y,z
_cell_length_a                    19.5260
_cell_length_b                    19.8721
_cell_length_c                    21.2019
_cell_angle_alpha                 71.8619
_cell_angle_beta                  83.1540
_cell_angle_gamma                 81.7918
loop_
_atom_site_label
_atom_site_type_symbol
_atom_site_fract_x
_atom_site_fract_y
_atom_site_fract_z
_atom_site_U_iso_or_equiv
_atom_site_adp_type
_atom_site_occupancy
C1     C     0.35928   0.37086   0.90516   0.00000  Uiso   1.00
C2     C     0.37945   0.35165   0.97646   0.00000  Uiso   1.00
C3     C     0.36718   0.28954   0.02689   0.00000  Uiso   1.00
C4     C     0.38963   0.28200   0.08870   0.00000  Uiso   1.00
C5     C     0.41582   0.24418   0.19775   0.00000  Uiso   1.00
C6     C     0.31446   0.44248   0.89225   0.00000  Uiso   1.00
C7     C     0.24756   0.45674   0.87187   0.00000  Uiso   1.00
C8     C     0.21531   0.52566   0.86278   0.00000  Uiso   1.00
C9     C     0.14063   0.62886   0.84105   0.00000  Uiso   1.00
C10    C     0.42619   0.38495   0.86054   0.00000  Uiso   1.00
C11    C     0.45323   0.35085   0.81350   0.00000  Uiso   1.00
C12    C     0.51503   0.37134   0.77770   0.00000  Uiso   1.00
C13    C     0.61383   0.38521   0.70675   0.00000  Uiso   1.00
C14    C     0.42097   0.46791   0.92524   0.00000  Uiso   1.00
C15    C     0.41295   0.40437   0.98736   0.00000  Uiso   1.00
C16    C     0.43543   0.39692   0.04911   0.00000  Uiso   1.00
C17    C     0.42320   0.33480   0.09962   0.00000  Uiso   1.00
C18    C     0.34797   0.49520   0.90315   0.00000  Uiso   1.00
C19    C     0.31581   0.56411   0.89408   0.00000  Uiso   1.00
C20    C     0.24887   0.57847   0.87371   0.00000  Uiso   1.00
C21    C     0.45970   0.43766   0.87145   0.00000  Uiso   1.00
C22    C     0.52147   0.45821   0.83571   0.00000  Uiso   1.00
C23    C     0.54860   0.42415   0.78863   0.00000  Uiso   1.00
H24    H     0.33319   0.32983   0.89667   0.00000  Uiso   1.00
H25    H     0.34125   0.24877   0.01844   0.00000  Uiso   1.00
H26    H     0.22165   0.41594   0.86343   0.00000  Uiso   1.00
H27    H     0.42728   0.31006   0.80507   0.00000  Uiso   1.00
H28    H     0.36493   0.18216   0.15825   0.00000  Uiso   1.00
H29    H     0.11276   0.53466   0.83140   0.00000  Uiso   1.00
H30    H     0.54638   0.31139   0.70833   0.00000  Uiso   1.00
H31    H     0.44705   0.50895   0.93373   0.00000  Uiso   1.00
H32    H     0.46136   0.43772   0.05753   0.00000  Uiso   1.00
H33    H     0.34175   0.60489   0.90252   0.00000  Uiso   1.00
H34    H     0.54739   0.49901   0.84416   0.00000  Uiso   1.00
H35    H     0.46241   0.33552   0.18998   0.00000  Uiso   1.00
H36    H     0.21024   0.68802   0.86312   0.00000  Uiso   1.00
H37    H     0.64386   0.46474   0.74006   0.00000  Uiso   1.00
O38    O     0.42100   0.20876   0.25489   0.00000  Uiso   1.00
O39    O     0.09017   0.67122   0.82606   0.00000  Uiso   1.00
O40    O     0.65907   0.37830   0.66460   0.00000  Uiso   1.00
N41    N     0.38592   0.22802   0.14873   0.00000  Uiso   1.00
N42    N     0.15015   0.55758   0.84314   0.00000  Uiso   1.00
N43    N     0.55554   0.34886   0.72807   0.00000  Uiso   1.00
N44    N     0.43837   0.31054   0.16580   0.00000  Uiso   1.00
N45    N     0.20261   0.64010   0.86022   0.00000  Uiso   1.00
N46    N     0.60799   0.43138   0.74515   0.00000  Uiso   1.00
C47    C     0.81052   0.31184   0.39380   0.00000  Uiso   1.00
C48    C     0.87198   0.31567   0.43021   0.00000  Uiso   1.00
C49    C     0.94070   0.31592   0.40434   0.00000  Uiso   1.00
C50    C     0.98925   0.31968   0.44559   0.00000  Uiso   1.00
C51    C     0.08765   0.32507   0.49229   0.00000  Uiso   1.00
C52    C     0.77572   0.24725   0.43746   0.00000  Uiso   1.00
C53    C     0.76349   0.18999   0.41769   0.00000  Uiso   1.00
C54    C     0.73100   0.13617   0.46504   0.00000  Uiso   1.00
C55    C     0.67992   0.03537   0.52299   0.00000  Uiso   1.00
C56    C     0.75920   0.37688   0.39544   0.00000  Uiso   1.00
C57    C     0.73307   0.42859   0.34033   0.00000  Uiso   1.00
C58    C     0.68666   0.48389   0.35231   0.00000  Uiso   1.00
C59    C     0.60994   0.58434   0.34500   0.00000  Uiso   1.00
C60    C     0.77454   0.31809   0.51304   0.00000  Uiso   1.00
C61    C     0.85243   0.31906   0.49498   0.00000  Uiso   1.00
C62    C     0.90089   0.32283   0.53627   0.00000  Uiso   1.00
C63    C     0.96967   0.32309   0.51047   0.00000  Uiso   1.00
C64    C     0.75618   0.25064   0.50223   0.00000  Uiso   1.00
C65    C     0.72369   0.19690   0.54962   0.00000  Uiso   1.00
C66    C     0.71142   0.13956   0.52993   0.00000  Uiso   1.00
C67    C     0.73966   0.38027   0.46021   0.00000  Uiso   1.00
C68    C     0.69327   0.43550   0.47226   0.00000  Uiso   1.00
C69    C     0.66709   0.48729   0.41719   0.00000  Uiso   1.00
H70    H     0.82573   0.30920   0.34337   0.00000  Uiso   1.00
H71    H     0.95580   0.31329   0.35422   0.00000  Uiso   1.00
H72    H     0.77862   0.18738   0.36756   0.00000  Uiso   1.00
H73    H     0.74821   0.42594   0.29022   0.00000  Uiso   1.00
H74    H     0.09139   0.31929   0.39482   0.00000  Uiso   1.00
H75    H     0.71777   0.05382   0.42295   0.00000  Uiso   1.00
H76    H     0.65365   0.55688   0.25986   0.00000  Uiso   1.00
H77    H     0.75932   0.32073   0.56347   0.00000  Uiso   1.00
H78    H     0.88575   0.32545   0.58639   0.00000  Uiso   1.00
H79    H     0.70857   0.19954   0.59973   0.00000  Uiso   1.00
H80    H     0.67816   0.43811   0.52239   0.00000  Uiso   1.00
H81    H     0.03454   0.32916   0.58326   0.00000  Uiso   1.00
H82    H     0.66092   0.06369   0.61139   0.00000  Uiso   1.00
H83    H     0.59680   0.56675   0.44829   0.00000  Uiso   1.00
O84    O     0.14734   0.32710   0.50016   0.00000  Uiso   1.00
O85    O     0.65715   0.97882   0.53705   0.00000  Uiso   1.00
O86    O     0.57303   0.63882   0.32308   0.00000  Uiso   1.00
N87    N     0.06066   0.32098   0.43602   0.00000  Uiso   1.00
N88    N     0.71136   0.07278   0.46232   0.00000  Uiso   1.00
N89    N     0.65139   0.54308   0.30984   0.00000  Uiso   1.00
N90    N     0.03007   0.32629   0.53741   0.00000  Uiso   1.00
N91    N     0.68076   0.07809   0.56372   0.00000  Uiso   1.00
N92    N     0.62080   0.54839   0.41124   0.00000  Uiso   1.00
C93    C     0.33184   0.77005   0.56507   0.00000  Uiso   1.00
C94    C     0.33544   0.84979   0.53332   0.00000  Uiso   1.00
C95    C     0.28052   0.90288   0.53149   0.00000  Uiso   1.00
C96    C     0.29441   0.97263   0.50009   0.00000  Uiso   1.00
C97    C     0.28989   0.09401   0.45511   0.00000  Uiso   1.00
C98    C     0.35736   0.73557   0.51031   0.00000  Uiso   1.00
C99    C     0.32087   0.69262   0.48914   0.00000  Uiso   1.00
C100   C     0.35323   0.66621   0.43838   0.00000  Uiso   1.00
C101   C     0.38276   0.61022   0.35770   0.00000  Uiso   1.00
C102   C     0.38654   0.74498   0.61559   0.00000  Uiso   1.00
C103   C     0.37460   0.70991   0.68293   0.00000  Uiso   1.00
C104   C     0.43153   0.69141   0.72080   0.00000  Uiso   1.00
C105   C     0.50637   0.65002   0.80358   0.00000  Uiso   1.00
C106   C     0.45418   0.79951   0.51257   0.00000  Uiso   1.00
C107   C     0.40189   0.86579   0.50481   0.00000  Uiso   1.00
C108   C     0.41587   0.93548   0.47341   0.00000  Uiso   1.00
C109   C     0.36098   0.98866   0.47153   0.00000  Uiso   1.00
C110   C     0.42381   0.75157   0.48180   0.00000  Uiso   1.00
C111   C     0.45623   0.72521   0.43106   0.00000  Uiso   1.00
C112   C     0.41980   0.68224   0.40981   0.00000  Uiso   1.00
C113   C     0.45300   0.76098   0.58708   0.00000  Uiso   1.00
C114   C     0.50995   0.74252   0.62485   0.00000  Uiso   1.00
C115   C     0.49810   0.70744   0.69224   0.00000  Uiso   1.00
H116   H     0.28010   0.75759   0.58726   0.00000  Uiso   1.00
H117   H     0.22910   0.89047   0.55355   0.00000  Uiso   1.00
H118   H     0.26945   0.68024   0.51121   0.00000  Uiso   1.00
H119   H     0.32317   0.69754   0.70497   0.00000  Uiso   1.00
H120   H     0.20185   0.04486   0.50358   0.00000  Uiso   1.00
H121   H     0.28695   0.60155   0.41433   0.00000  Uiso   1.00
H122   H     0.40022   0.63802   0.82291   0.00000  Uiso   1.00
H123   H     0.50591   0.81197   0.49037   0.00000  Uiso   1.00
H124   H     0.46730   0.94784   0.45135   0.00000  Uiso   1.00
H125   H     0.50765   0.73760   0.40901   0.00000  Uiso   1.00
H126   H     0.56137   0.75491   0.60277   0.00000  Uiso   1.00
H127   H     0.39518   0.09142   0.42063   0.00000  Uiso   1.00
H128   H     0.48028   0.64810   0.33138   0.00000  Uiso   1.00
H129   H     0.59356   0.68459   0.73996   0.00000  Uiso   1.00
O130   O     0.26904   0.15654   0.43816   0.00000  Uiso   1.00
O131   O     0.38069   0.57492   0.32108   0.00000  Uiso   1.00
O132   O     0.52930   0.62278   0.85712   0.00000  Uiso   1.00
N133   N     0.25265   0.03717   0.48943   0.00000  Uiso   1.00
N134   N     0.33221   0.62271   0.40597   0.00000  Uiso   1.00
N135   N     0.43812   0.65680   0.78796   0.00000  Uiso   1.00
N136   N     0.35668   0.06222   0.44479   0.00000  Uiso   1.00
N137   N     0.43624   0.64776   0.36134   0.00000  Uiso   1.00
N138   N     0.54215   0.68185   0.74332   0.00000  Uiso   1.00
C139   C     0.90606   0.29387   0.92100   0.00000  Uiso   1.00
C140   C     0.90683   0.36681   0.93031   0.00000  Uiso   1.00
C141   C     0.90310   0.43147   0.88024   0.00000  Uiso   1.00
C142   C     0.90456   0.49226   0.89894   0.00000  Uiso   1.00
C143   C     0.90496   0.60610   0.90331   0.00000  Uiso   1.00
C144   C     0.84576   0.26086   0.96734   0.00000  Uiso   1.00
C145   C     0.79069   0.23644   0.94841   0.00000  Uiso   1.00
C146   C     0.74075   0.20803   0.99828   0.00000  Uiso   1.00
C147   C     0.64636   0.15734   0.06015   0.00000  Uiso   1.00
C148   C     0.97190   0.24910   0.94911   0.00000  Uiso   1.00
C149   C     0.02288   0.21478   0.91485   0.00000  Uiso   1.00
C150   C     0.07913   0.17645   0.94938   0.00000  Uiso   1.00
C151   C     0.18059   0.10751   0.98294   0.00000  Uiso   1.00
C152   C     0.91528   0.28682   0.04324   0.00000  Uiso   1.00
C153   C     0.91184   0.36298   0.99671   0.00000  Uiso   1.00
C154   C     0.91330   0.42368   0.01549   0.00000  Uiso   1.00
C155   C     0.90958   0.48843   0.96546   0.00000  Uiso   1.00
C156   C     0.85077   0.25704   0.03374   0.00000  Uiso   1.00
C157   C     0.80089   0.22865   0.08366   0.00000  Uiso   1.00
C158   C     0.74576   0.20420   0.06480   0.00000  Uiso   1.00
C159   C     0.97691   0.24528   0.01551   0.00000  Uiso   1.00
C160   C     0.03308   0.20699   0.05010   0.00000  Uiso   1.00
C161   C     0.08414   0.17262   0.01590   0.00000  Uiso   1.00
H162   H     0.90216   0.29684   0.86931   0.00000  Uiso   1.00
H163   H     0.89922   0.43441   0.82886   0.00000  Uiso   1.00
H164   H     0.78684   0.23940   0.89702   0.00000  Uiso   1.00
H165   H     0.01899   0.21775   0.86347   0.00000  Uiso   1.00
H166   H     0.89815   0.58525   0.81331   0.00000  Uiso   1.00
H167   H     0.66119   0.17404   0.95703   0.00000  Uiso   1.00
H168   H     0.15073   0.12838   0.88628   0.00000  Uiso   1.00
H169   H     0.91918   0.28384   0.09494   0.00000  Uiso   1.00
H170   H     0.91718   0.42071   0.06688   0.00000  Uiso   1.00
H171   H     0.80479   0.22569   0.13503   0.00000  Uiso   1.00
H172   H     0.03694   0.20404   0.10148   0.00000  Uiso   1.00
H173   H     0.91272   0.57412   0.00649   0.00000  Uiso   1.00
H174   H     0.67575   0.16291   0.15021   0.00000  Uiso   1.00
H175   H     0.16530   0.11725   0.07946   0.00000  Uiso   1.00
O176   O     0.90378   0.66995   0.88737   0.00000  Uiso   1.00
O177   O     0.59291   0.13045   0.07593   0.00000  Uiso   1.00
O178   O     0.23517   0.07055   0.98311   0.00000  Uiso   1.00
N179   N     0.90186   0.56385   0.86263   0.00000  Uiso   1.00
N180   N     0.68031   0.17940   0.99699   0.00000  Uiso   1.00
N181   N     0.13799   0.13669   0.93085   0.00000  Uiso   1.00
N182   N     0.90971   0.55786   0.96657   0.00000  Uiso   1.00
N183   N     0.68815   0.17341   0.10094   0.00000  Uiso   1.00
N184   N     0.14583   0.13071   0.03480   0.00000  Uiso   1.00
C185   C     0.30465   0.78158   0.91976   0.00000  Uiso   1.00
C186   C     0.37922   0.78792   0.92989   0.00000  Uiso   1.00
C187   C     0.43581   0.73756   0.92767   0.00000  Uiso   1.00
C188   C     0.49973   0.75335   0.93819   0.00000  Uiso   1.00
C189   C     0.61445   0.75349   0.95201   0.00000  Uiso   1.00
C190   C     0.28247   0.84720   0.86291   0.00000  Uiso   1.00
C191   C     0.25771   0.84668   0.80438   0.00000  Uiso   1.00
C192   C     0.24018   0.91236   0.75853   0.00000  Uiso   1.00
C193   C     0.20465   0.00454   0.66838   0.00000  Uiso   1.00
C194   C     0.26110   0.79021   0.98200   0.00000  Uiso   1.00
C195   C     0.21835   0.74178   0.02359   0.00000  Uiso   1.00
C196   C     0.18282   0.75948   0.07799   0.00000  Uiso   1.00
C197   C     0.11411   0.76317   0.17275   0.00000  Uiso   1.00
C198   C     0.31753   0.89916   0.94240   0.00000  Uiso   1.00
C199   C     0.38621   0.85179   0.94218   0.00000  Uiso   1.00
C200   C     0.45006   0.86765   0.95271   0.00000  Uiso   1.00
C201   C     0.50674   0.81732   0.95051   0.00000  Uiso   1.00
C202   C     0.28947   0.91106   0.87520   0.00000  Uiso   1.00
C203   C     0.27196   0.97676   0.82943   0.00000  Uiso   1.00
C204   C     0.24719   0.97634   0.77084   0.00000  Uiso   1.00
C205   C     0.26810   0.85407   0.99429   0.00000  Uiso   1.00
C206   C     0.23261   0.87186   0.04864   0.00000  Uiso   1.00
C207   C     0.18983   0.82346   0.09031   0.00000  Uiso   1.00
H208   H     0.29920   0.73187   0.91019   0.00000  Uiso   1.00
H209   H     0.43037   0.68815   0.91814   0.00000  Uiso   1.00
H210   H     0.25229   0.79725   0.79488   0.00000  Uiso   1.00
H211   H     0.21295   0.69236   0.01406   0.00000  Uiso   1.00
H212   H     0.57889   0.66786   0.93237   0.00000  Uiso   1.00
H213   H     0.20338   0.89790   0.67247   0.00000  Uiso   1.00
H214   H     0.12042   0.67672   0.13465   0.00000  Uiso   1.00
H215   H     0.32298   0.94888   0.95197   0.00000  Uiso   1.00
H216   H     0.45546   0.91708   0.96223   0.00000  Uiso   1.00
H217   H     0.27738   0.02617   0.83896   0.00000  Uiso   1.00
H218   H     0.23804   0.92129   0.05814   0.00000  Uiso   1.00
H219   H     0.59925   0.85366   0.96814   0.00000  Uiso   1.00
H220   H     0.22374   0.08370   0.70825   0.00000  Uiso   1.00
H221   H     0.14078   0.86253   0.17042   0.00000  Uiso   1.00
O222   O     0.67580   0.73593   0.95622   0.00000  Uiso   1.00
O223   O     0.18313   0.03773   0.61526   0.00000  Uiso   1.00
O224   O     0.07429   0.74755   0.22162   0.00000  Uiso   1.00
N225   N     0.56550   0.71595   0.93939   0.00000  Uiso   1.00
N226   N     0.21443   0.93102   0.69640   0.00000  Uiso   1.00
N227   N     0.13685   0.72425   0.12849   0.00000  Uiso   1.00
N228   N     0.57646   0.81593   0.95864   0.00000  Uiso   1.00
N229   N     0.22539   0.03100   0.71565   0.00000  Uiso   1.00
N230   N     0.14781   0.82423   0.14774   0.00000  Uiso   1.00
C231   C     0.83915   0.90755   0.40697   0.00000  Uiso   1.00
C232   C     0.85755   0.88431   0.47910   0.00000  Uiso   1.00
C233   C     0.81089   0.88175   0.53433   0.00000  Uiso   1.00
C234   C     0.83802   0.85899   0.59608   0.00000  Uiso   1.00
C235   C     0.85575   0.82583   0.70715   0.00000  Uiso   1.00
C236   C     0.86740   0.84558   0.37977   0.00000  Uiso   1.00
C237   C     0.82901   0.81047   0.35147   0.00000  Uiso   1.00
C238   C     0.86444   0.75511   0.32958   0.00000  Uiso   1.00
C239   C     0.89746   0.66187   0.28638   0.00000  Uiso   1.00
C240   C     0.88241   0.96817   0.36987   0.00000  Uiso   1.00
C241   C     0.85664   0.03612   0.33324   0.00000  Uiso   1.00
C242   C     0.90471   0.08397   0.30302   0.00000  Uiso   1.00
C243   C     0.96103   0.18106   0.24446   0.00000  Uiso   1.00
C244   C     0.97034   0.87168   0.41841   0.00000  Uiso   1.00
C245   C     0.92881   0.86483   0.48532   0.00000  Uiso   1.00
C246   C     0.95603   0.84207   0.54700   0.00000  Uiso   1.00
C247   C     0.90941   0.83948   0.60231   0.00000  Uiso   1.00
C248   C     0.93865   0.82610   0.38598   0.00000  Uiso   1.00
C249   C     0.97415   0.77079   0.36413   0.00000  Uiso   1.00
C250   C     0.93582   0.73560   0.33581   0.00000  Uiso   1.00
C251   C     0.95366   0.94869   0.37609   0.00000  Uiso   1.00
C252   C     0.00178   0.99644   0.34591   0.00000  Uiso   1.00
C253   C     0.97609   0.06445   0.30924   0.00000  Uiso   1.00
H254   H     0.78368   0.92271   0.40212   0.00000  Uiso   1.00
H255   H     0.75574   0.89682   0.52950   0.00000  Uiso   1.00
H256   H     0.77387   0.82556   0.34666   0.00000  Uiso   1.00
H257   H     0.80149   0.05117   0.32844   0.00000  Uiso   1.00
H258   H     0.75620   0.85950   0.67346   0.00000  Uiso   1.00
H259   H     0.79441   0.70926   0.28791   0.00000  Uiso   1.00
H260   H     0.85267   0.18501   0.24949   0.00000  Uiso   1.00
H261   H     0.02582   0.85652   0.42325   0.00000  Uiso   1.00
H262   H     0.01117   0.82700   0.55179   0.00000  Uiso   1.00
H263   H     0.02929   0.75573   0.36895   0.00000  Uiso   1.00
H264   H     0.05692   0.98135   0.35073   0.00000  Uiso   1.00
H265   H     0.96351   0.80283   0.69156   0.00000  Uiso   1.00
H266   H     0.00172   0.65258   0.30600   0.00000  Uiso   1.00
H267   H     0.05998   0.12834   0.26759   0.00000  Uiso   1.00
O268   O     0.84585   0.81292   0.76669   0.00000  Uiso   1.00
O269   O     0.89598   0.61581   0.26085   0.00000  Uiso   1.00
O270   O     0.97241   0.23999   0.21045   0.00000  Uiso   1.00
N271   N     0.80700   0.85023   0.66008   0.00000  Uiso   1.00
N272   N     0.84272   0.70975   0.29962   0.00000  Uiso   1.00
N273   N     0.89719   0.15454   0.26369   0.00000  Uiso   1.00
N274   N     0.91855   0.81974   0.66982   0.00000  Uiso   1.00
N275   N     0.95428   0.67926   0.30936   0.00000  Uiso   1.00
N276   N     0.00875   0.12404   0.27343   0.00000  Uiso   1.00
C277   C     0.69027   0.51527   0.12066   0.00000  Uiso   1.00
C278   C     0.69373   0.50358   0.05254   0.00000  Uiso   1.00
C279   C     0.68552   0.55665   0.99243   0.00000  Uiso   1.00
C280   C     0.69052   0.53502   0.93561   0.00000  Uiso   1.00
C281   C     0.69397   0.52785   0.82934   0.00000  Uiso   1.00
C282   C     0.75882   0.47983   0.14977   0.00000  Uiso   1.00
C283   C     0.80534   0.51294   0.17141   0.00000  Uiso   1.00
C284   C     0.86514   0.47132   0.19645   0.00000  Uiso   1.00
C285   C     0.96963   0.42727   0.24117   0.00000  Uiso   1.00
C286   C     0.63437   0.47139   0.16379   0.00000  Uiso   1.00
C287   C     0.57625   0.49739   0.19722   0.00000  Uiso   1.00
C288   C     0.53127   0.44865   0.23407   0.00000  Uiso   1.00
C289   C     0.44253   0.39150   0.30055   0.00000  Uiso   1.00
C290   C     0.71375   0.38249   0.12666   0.00000  Uiso   1.00
C291   C     0.70648   0.43146   0.05581   0.00000  Uiso   1.00
C292   C     0.71149   0.40975   0.99907   0.00000  Uiso   1.00
C293   C     0.70329   0.46277   0.93888   0.00000  Uiso   1.00
C294   C     0.77157   0.40772   0.15303   0.00000  Uiso   1.00
C295   C     0.83131   0.36604   0.17805   0.00000  Uiso   1.00
C296   C     0.87791   0.39907   0.19971   0.00000  Uiso   1.00
C297   C     0.64711   0.39927   0.16704   0.00000  Uiso   1.00
C298   C     0.60222   0.35049   0.20386   0.00000  Uiso   1.00
C299   C     0.54405   0.37641   0.23734   0.00000  Uiso   1.00
H300   H     0.68035   0.57141   0.11813   0.00000  Uiso   1.00
H301   H     0.67566   0.61246   0.98993   0.00000  Uiso   1.00
H302   H     0.79546   0.56875   0.16889   0.00000  Uiso   1.00
H303   H     0.56640   0.55320   0.19469   0.00000  Uiso   1.00
H304   H     0.67611   0.62616   0.84923   0.00000  Uiso   1.00
H305   H     0.92870   0.53399   0.22659   0.00000  Uiso   1.00
H306   H     0.44569   0.50121   0.28101   0.00000  Uiso   1.00
H307   H     0.72367   0.32634   0.12920   0.00000  Uiso   1.00
H308   H     0.72135   0.35393   0.00160   0.00000  Uiso   1.00
H309   H     0.84116   0.31023   0.18057   0.00000  Uiso   1.00
H310   H     0.61210   0.29468   0.20637   0.00000  Uiso   1.00
H311   H     0.71320   0.41633   0.85870   0.00000  Uiso   1.00
H312   H     0.96579   0.32416   0.23608   0.00000  Uiso   1.00
H313   H     0.48278   0.29139   0.29049   0.00000  Uiso   1.00
O314   O     0.69237   0.54382   0.76982   0.00000  Uiso   1.00
O315   O     0.02375   0.42290   0.26493   0.00000  Uiso   1.00
O316   O     0.39006   0.37989   0.33632   0.00000  Uiso   1.00
N317   N     0.68514   0.57299   0.86897   0.00000  Uiso   1.00
N318   N     0.92130   0.48682   0.22178   0.00000  Uiso   1.00
N319   N     0.46974   0.45617   0.27266   0.00000  Uiso   1.00
N320   N     0.70510   0.46008   0.87407   0.00000  Uiso   1.00
N321   N     0.94126   0.37391   0.22688   0.00000  Uiso   1.00
N322   N     0.48970   0.34326   0.27776   0.00000  Uiso   1.00
C323   C     0.98707   0.52449   0.69917   0.00000  Uiso   1.00
C324   C     0.92972   0.53755   0.65242   0.00000  Uiso   1.00
C325   C     0.85911   0.53860   0.67120   0.00000  Uiso   1.00
C326   C     0.81502   0.55147   0.62095   0.00000  Uiso   1.00
C327   C     0.72206   0.57005   0.55849   0.00000  Uiso   1.00
C328   C     0.02788   0.58890   0.67286   0.00000  Uiso   1.00
C329   C     0.03982   0.63312   0.70883   0.00000  Uiso   1.00
C330   C     0.07837   0.68922   0.67580   0.00000  Uiso   1.00
C331   C     0.13785   0.78750   0.64509   0.00000  Uiso   1.00
C332   C     0.03601   0.46141   0.68819   0.00000  Uiso   1.00
C333   C     0.05478   0.39843   0.73705   0.00000  Uiso   1.00
C334   C     0.10019   0.34718   0.71691   0.00000  Uiso   1.00
C335   C     0.17228   0.24750   0.71000   0.00000  Uiso   1.00
C336   C     0.03434   0.54548   0.57655   0.00000  Uiso   1.00
C337   C     0.95539   0.54895   0.58582   0.00000  Uiso   1.00
C338   C     0.91140   0.56182   0.53553   0.00000  Uiso   1.00
C339   C     0.84073   0.56288   0.55423   0.00000  Uiso   1.00
C340   C     0.05355   0.60031   0.60626   0.00000  Uiso   1.00
C341   C     0.09211   0.65635   0.57317   0.00000  Uiso   1.00
C342   C     0.10409   0.70064   0.60907   0.00000  Uiso   1.00
C343   C     0.06168   0.47280   0.62158   0.00000  Uiso   1.00
C344   C     0.10707   0.42165   0.60137   0.00000  Uiso   1.00
C345   C     0.12591   0.35861   0.65019   0.00000  Uiso   1.00
H346   H     0.96709   0.51562   0.75102   0.00000  Uiso   1.00
H347   H     0.83926   0.52978   0.72275   0.00000  Uiso   1.00
H348   H     0.01995   0.62428   0.76038   0.00000  Uiso   1.00
H349   H     0.03491   0.38963   0.78858   0.00000  Uiso   1.00
H350   H     0.70886   0.55053   0.66202   0.00000  Uiso   1.00
H351   H     0.08987   0.74979   0.74138   0.00000  Uiso   1.00
H352   H     0.12142   0.25497   0.80085   0.00000  Uiso   1.00
H353   H     0.05432   0.55436   0.52469   0.00000  Uiso   1.00
H354   H     0.93128   0.57064   0.48399   0.00000  Uiso   1.00
H355   H     0.11197   0.66515   0.52162   0.00000  Uiso   1.00
H356   H     0.12692   0.43049   0.54983   0.00000  Uiso   1.00
H357   H     0.78354   0.58370   0.46824   0.00000  Uiso   1.00
H358   H     0.16455   0.78296   0.54759   0.00000  Uiso   1.00
H359   H     0.19610   0.28814   0.60707   0.00000  Uiso   1.00
O360   O     0.66369   0.57716   0.54243   0.00000  Uiso   1.00
O361   O     0.16356   0.83856   0.64655   0.00000  Uiso   1.00
O362   O     0.20495   0.18937   0.72459   0.00000  Uiso   1.00
N363   N     0.74333   0.55609   0.62200   0.00000  Uiso   1.00
N364   N     0.09953   0.74239   0.69619   0.00000  Uiso   1.00
N365   N     0.12904   0.27978   0.75180   0.00000  Uiso   1.00
N366   N     0.78351   0.57394   0.51773   0.00000  Uiso   1.00
N367   N     0.13972   0.76024   0.59192   0.00000  Uiso   1.00
N368   N     0.16923   0.29763   0.64753   0.00000  Uiso   1.00
C369   C     0.58816   0.07577   0.81065   0.00000  Uiso   1.00
C370   C     0.58972   0.00286   0.80053   0.00000  Uiso   1.00
C371   C     0.64715   0.95215   0.80484   0.00000  Uiso   1.00
C372   C     0.63793   0.88878   0.79394   0.00000  Uiso   1.00
C373   C     0.65013   0.77741   0.78049   0.00000  Uiso   1.00
C374   C     0.53097   0.07898   0.86563   0.00000  Uiso   1.00
C375   C     0.53901   0.09227   0.92467   0.00000  Uiso   1.00
C376   C     0.48035   0.09298   0.96856   0.00000  Uiso   1.00
C377   C     0.40133   0.09983   0.05616   0.00000  Uiso   1.00
C378   C     0.56259   0.13015   0.74725   0.00000  Uiso   1.00
C379   C     0.59720   0.18648   0.70677   0.00000  Uiso   1.00
C380   C     0.56514   0.23029   0.65100   0.00000  Uiso   1.00
C381   C     0.53522   0.31659   0.55481   0.00000  Uiso   1.00
C382   C     0.46967   0.05342   0.78359   0.00000  Uiso   1.00
C383   C     0.52536   0.99072   0.78584   0.00000  Uiso   1.00
C384   C     0.51605   0.92742   0.77491   0.00000  Uiso   1.00
C385   C     0.57346   0.87662   0.77921   0.00000  Uiso   1.00
C386   C     0.46662   0.06684   0.85094   0.00000  Uiso   1.00
C387   C     0.40792   0.06753   0.89474   0.00000  Uiso   1.00
C388   C     0.41587   0.08082   0.95384   0.00000  Uiso   1.00
C389   C     0.49823   0.11801   0.73256   0.00000  Uiso   1.00
C390   C     0.46611   0.16175   0.67684   0.00000  Uiso   1.00
C391   C     0.50067   0.21813   0.63628   0.00000  Uiso   1.00
H392   H     0.63826   0.08523   0.82209   0.00000  Uiso   1.00
H393   H     0.69694   0.96156   0.81622   0.00000  Uiso   1.00
H394   H     0.58882   0.10167   0.93603   0.00000  Uiso   1.00
H395   H     0.64701   0.19586   0.71816   0.00000  Uiso   1.00
H396   H     0.73361   0.81910   0.80326   0.00000  Uiso   1.00
H397   H     0.50563   0.11454   0.05587   0.00000  Uiso   1.00
H398   H     0.62832   0.31317   0.59645   0.00000  Uiso   1.00
H399   H     0.41956   0.04396   0.77216   0.00000  Uiso   1.00
H400   H     0.46624   0.91803   0.76355   0.00000  Uiso   1.00
H401   H     0.35812   0.05814   0.88335   0.00000  Uiso   1.00
H402   H     0.41630   0.15233   0.66549   0.00000  Uiso   1.00
H403   H     0.54637   0.78376   0.76051   0.00000  Uiso   1.00
H404   H     0.31839   0.07921   0.01312   0.00000  Uiso   1.00
H405   H     0.44107   0.27784   0.55370   0.00000  Uiso   1.00
O406   O     0.67464   0.71932   0.77715   0.00000  Uiso   1.00
O407   O     0.37554   0.10695   0.10855   0.00000  Uiso   1.00
O408   O     0.53650   0.36754   0.50581   0.00000  Uiso   1.00
N409   N     0.68314   0.82807   0.79437   0.00000  Uiso   1.00
N410   N     0.47000   0.10428   0.03055   0.00000  Uiso   1.00
N411   N     0.58469   0.28999   0.60104   0.00000  Uiso   1.00
N412   N     0.58238   0.80906   0.77136   0.00000  Uiso   1.00
N413   N     0.36924   0.08527   0.00754   0.00000  Uiso   1.00
N414   N     0.48393   0.27098   0.57803   0.00000  Uiso   1.00
C415   C     0.16254   0.49876   0.18215   0.00000  Uiso   1.00
C416   C     0.17219   0.43121   0.16087   0.00000  Uiso   1.00
C417   C     0.16553   0.36277   0.20274   0.00000  Uiso   1.00
C418   C     0.17644   0.30808   0.17362   0.00000  Uiso   1.00
C419   C     0.18889   0.20116   0.15101   0.00000  Uiso   1.00
C420   C     0.22986   0.53293   0.15868   0.00000  Uiso   1.00
C421   C     0.27167   0.55003   0.19871   0.00000  Uiso   1.00
C422   C     0.33112   0.58098   0.16774   0.00000  Uiso   1.00
C423   C     0.43307   0.63204   0.14172   0.00000  Uiso   1.00
C424   C     0.10697   0.54897   0.14044   0.00000  Uiso   1.00
C425   C     0.04546   0.57958   0.16513   0.00000  Uiso   1.00
C426   C     0.00145   0.62405   0.11881   0.00000  Uiso   1.00
C427   C     0.91259   0.70002   0.06447   0.00000  Uiso   1.00
C428   C     0.19377   0.52334   0.05599   0.00000  Uiso   1.00
C429   C     0.18916   0.44456   0.09235   0.00000  Uiso   1.00
C430   C     0.20008   0.38996   0.06316   0.00000  Uiso   1.00
C431   C     0.19343   0.32145   0.10498   0.00000  Uiso   1.00
C432   C     0.24682   0.54628   0.09016   0.00000  Uiso   1.00
C433   C     0.30623   0.57723   0.05913   0.00000  Uiso   1.00
C434   C     0.34812   0.59436   0.09910   0.00000  Uiso   1.00
C435   C     0.12393   0.56233   0.07191   0.00000  Uiso   1.00
C436   C     0.08001   0.60677   0.02555   0.00000  Uiso   1.00
C437   C     0.01845   0.63743   0.05016   0.00000  Uiso   1.00
H438   H     0.14933   0.48836   0.23549   0.00000  Uiso   1.00
H439   H     0.15240   0.35246   0.25577   0.00000  Uiso   1.00
H440   H     0.25853   0.53970   0.25173   0.00000  Uiso   1.00
H441   H     0.03235   0.56924   0.21816   0.00000  Uiso   1.00
H442   H     0.16332   0.20766   0.24802   0.00000  Uiso   1.00
H443   H     0.38707   0.60249   0.23951   0.00000  Uiso   1.00
H444   H     0.91013   0.66478   0.16872   0.00000  Uiso   1.00
H445   H     0.20698   0.53373   0.00264   0.00000  Uiso   1.00
H446   H     0.21321   0.40031   0.01013   0.00000  Uiso   1.00
H447   H     0.31933   0.58755   0.00610   0.00000  Uiso   1.00
H448   H     0.09316   0.61709   0.97252   0.00000  Uiso   1.00
H449   H     0.21267   0.24650   0.04866   0.00000  Uiso   1.00
H450   H     0.43642   0.64134   0.04015   0.00000  Uiso   1.00
H451   H     0.95948   0.70362   0.96935   0.00000  Uiso   1.00
O452   O     0.19108   0.13849   0.15747   0.00000  Uiso   1.00
O453   O     0.48462   0.65651   0.14631   0.00000  Uiso   1.00
O454   O     0.85889   0.73822   0.05343   0.00000  Uiso   1.00
N455   N     0.17406   0.23512   0.20007   0.00000  Uiso   1.00
N456   N     0.38326   0.60425   0.19212   0.00000  Uiso   1.00
N457   N     0.93737   0.66250   0.12593   0.00000  Uiso   1.00
N458   N     0.20062   0.25602   0.09280   0.00000  Uiso   1.00
N459   N     0.40982   0.62515   0.08484   0.00000  Uiso   1.00
N460   N     0.96393   0.68340   0.01865   0.00000  Uiso   1.00
C461   C     0.59206   0.94537   0.24826   0.00000  Uiso   1.00
C462   C     0.52517   0.92289   0.23465   0.00000  Uiso   1.00
C463   C     0.46337   0.96672   0.22082   0.00000  Uiso   1.00
C464   C     0.40810   0.93604   0.20982   0.00000  Uiso   1.00
C465   C     0.30325   0.91207   0.18830   0.00000  Uiso   1.00
C466   C     0.61115   0.89529   0.31604   0.00000  Uiso   1.00
C467   C     0.62165   0.91591   0.37064   0.00000  Uiso   1.00
C468   C     0.63876   0.86199   0.42814   0.00000  Uiso   1.00
C469   C     0.66745   0.79518   0.53296   0.00000  Uiso   1.00
C470   C     0.64791   0.92717   0.19756   0.00000  Uiso   1.00
C471   C     0.68932   0.97458   0.15256   0.00000  Uiso   1.00
C472   C     0.73739   0.94750   0.11033   0.00000  Uiso   1.00
C473   C     0.82314   0.93018   0.03120   0.00000  Uiso   1.00
C474   C     0.60380   0.81294   0.25330   0.00000  Uiso   1.00
C475   C     0.53155   0.85096   0.23738   0.00000  Uiso   1.00
C476   C     0.47635   0.82021   0.22639   0.00000  Uiso   1.00
C477   C     0.41448   0.86398   0.21256   0.00000  Uiso   1.00
C478   C     0.61753   0.82337   0.31877   0.00000  Uiso   1.00
C479   C     0.63463   0.76940   0.37621   0.00000  Uiso   1.00
C480   C     0.64515   0.78994   0.43088   0.00000  Uiso   1.00
C481   C     0.65428   0.85524   0.20029   0.00000  Uiso   1.00
C482   C     0.70230   0.82807   0.15813   0.00000  Uiso   1.00
C483   C     0.74378   0.87544   0.11307   0.00000  Uiso   1.00
H484   H     0.58710   0.00136   0.24614   0.00000  Uiso   1.00
H485   H     0.45846   0.02238   0.21872   0.00000  Uiso   1.00
H486   H     0.61672   0.97158   0.36850   0.00000  Uiso   1.00
H487   H     0.68437   0.03024   0.15046   0.00000  Uiso   1.00
H488   H     0.31863   0.01395   0.18955   0.00000  Uiso   1.00
H489   H     0.65236   0.90684   0.50538   0.00000  Uiso   1.00
H490   H     0.79503   0.03054   0.04559   0.00000  Uiso   1.00
H491   H     0.60876   0.75694   0.25543   0.00000  Uiso   1.00
H492   H     0.48130   0.76454   0.22851   0.00000  Uiso   1.00
H493   H     0.63956   0.71375   0.37830   0.00000  Uiso   1.00
H494   H     0.70722   0.77241   0.16026   0.00000  Uiso   1.00
H495   H     0.33717   0.80468   0.19750   0.00000  Uiso   1.00
H496   H     0.67091   0.69757   0.51333   0.00000  Uiso   1.00
H497   H     0.81357   0.82127   0.05354   0.00000  Uiso   1.00
O498   O     0.24366   0.91872   0.17568   0.00000  Uiso   1.00
O499   O     0.68151   0.77820   0.59002   0.00000  Uiso   1.00
O500   O     0.86868   0.94049   0.98679   0.00000  Uiso   1.00
N501   N     0.34049   0.96366   0.19510   0.00000  Uiso   1.00
N502   N     0.65250   0.86352   0.49038   0.00000  Uiso   1.00
N503   N     0.78589   0.97916   0.06053   0.00000  Uiso   1.00
N504   N     0.35047   0.85105   0.19938   0.00000  Uiso   1.00
N505   N     0.66247   0.75091   0.49466   0.00000  Uiso   1.00
N506   N     0.79587   0.86656   0.06481   0.00000  Uiso   1.00
C507   C     0.02682   0.12904   0.68073   0.00000  Uiso   1.00
C508   C     0.03031   0.13238   0.60760   0.00000  Uiso   1.00
C509   C     0.08613   0.15065   0.56109   0.00000  Uiso   1.00
C510   C     0.07915   0.15057   0.49671   0.00000  Uiso   1.00
C511   C     0.09379   0.15849   0.38576   0.00000  Uiso   1.00
C512   C     0.96263   0.17855   0.69240   0.00000  Uiso   1.00
C513   C     0.96156   0.23564   0.71721   0.00000  Uiso   1.00
C514   C     0.89761   0.27443   0.72422   0.00000  Uiso   1.00
C515   C     0.80717   0.35400   0.74497   0.00000  Uiso   1.00
C516   C     0.01098   0.05384   0.72051   0.00000  Uiso   1.00
C517   C     0.05055   0.00607   0.76896   0.00000  Uiso   1.00
C518   C     0.02729   0.93986   0.79965   0.00000  Uiso   1.00
C519   C     0.01193   0.82579   0.86405   0.00000  Uiso   1.00
C520   C     0.91516   0.09641   0.64909   0.00000  Uiso   1.00
C521   C     0.96966   0.11466   0.59041   0.00000  Uiso   1.00
C522   C     0.96259   0.11455   0.52608   0.00000  Uiso   1.00
C523   C     0.01839   0.13282   0.47949   0.00000  Uiso   1.00
C524   C     0.90199   0.16083   0.67521   0.00000  Uiso   1.00
C525   C     0.83802   0.19954   0.68219   0.00000  Uiso   1.00
C526   C     0.83685   0.25668   0.70700   0.00000  Uiso   1.00
C527   C     0.95033   0.03611   0.70332   0.00000  Uiso   1.00
C528   C     0.92701   0.96997   0.73395   0.00000  Uiso   1.00
C529   C     0.96653   0.92210   0.78244   0.00000  Uiso   1.00
H530   H     0.07403   0.14284   0.69412   0.00000  Uiso   1.00
H531   H     0.13306   0.16437   0.57441   0.00000  Uiso   1.00
H532   H     0.00850   0.24934   0.73051   0.00000  Uiso   1.00
H533   H     0.09748   0.01980   0.78225   0.00000  Uiso   1.00
H534   H     0.17174   0.18045   0.43412   0.00000  Uiso   1.00
H535   H     0.90910   0.35960   0.76327   0.00000  Uiso   1.00
H536   H     0.09673   0.87557   0.87239   0.00000  Uiso   1.00
H537   H     0.86793   0.08261   0.63570   0.00000  Uiso   1.00
H538   H     0.91565   0.10083   0.51279   0.00000  Uiso   1.00
H539   H     0.79109   0.18581   0.66889   0.00000  Uiso   1.00
H540   H     0.88007   0.95627   0.72063   0.00000  Uiso   1.00
H541   H     0.99528   0.12888   0.38410   0.00000  Uiso   1.00
H542   H     0.73265   0.30803   0.71326   0.00000  Uiso   1.00
H543   H     0.92028   0.82401   0.82237   0.00000  Uiso   1.00
O544   O     0.11861   0.16776   0.32931   0.00000  Uiso   1.00
O545   O     0.77404   0.40279   0.76116   0.00000  Uiso   1.00
O546   O     0.02021   0.76776   0.90431   0.00000  Uiso   1.00
N547   N     0.12367   0.16579   0.43922   0.00000  Uiso   1.00
N548   N     0.87812   0.33330   0.74695   0.00000  Uiso   1.00
N549   N     0.05353   0.88078   0.84898   0.00000  Uiso   1.00
N550   N     0.02872   0.13805   0.41231   0.00000  Uiso   1.00
N551   N     0.78317   0.30555   0.72004   0.00000  Uiso   1.00
N552   N     0.95858   0.85303   0.82206   0.00000  Uiso   1.00
