data_job_00160
_audit_creation_date              2018-12-19
_audit_creation_method            'Materials Studio'
_symmetry_space_group_name_H-M    'P1'
_symmetry_Int_Tables_number       1
_symmetry_cell_setting            triclinic
loop_
_symmetry_equiv_pos_as_xyz
  x,y,z
_cell_length_a                    7.1135
_cell_length_b                    12.3354
_cell_length_c                    13.8617
_cell_angle_alpha                 92.4121
_cell_angle_beta                  80.5876
_cell_angle_gamma                 74.4244
loop_
_atom_site_label
_atom_site_type_symbol
_atom_site_fract_x
_atom_site_fract_y
_atom_site_fract_z
_atom_site_U_iso_or_equiv
_atom_site_adp_type
_atom_site_occupancy
C1     C     0.81965   0.22354   0.71260   0.00000  Uiso   1.00
C2     C     0.73332   0.21304   0.62007   0.00000  Uiso   1.00
C3     C     0.83434   0.20476   0.52432   0.00000  Uiso   1.00
C4     C     0.72910   0.19584   0.44979   0.00000  Uiso   1.00
C5     C     0.62530   0.17969   0.30298   0.00000  Uiso   1.00
C6     C     0.68541   0.33096   0.77249   0.00000  Uiso   1.00
C7     C     0.74618   0.42182   0.80490   0.00000  Uiso   1.00
C8     C     0.60061   0.51215   0.85869   0.00000  Uiso   1.00
C9     C     0.42247   0.67903   0.94858   0.00000  Uiso   1.00
C10    C     0.78902   0.12585   0.77122   0.00000  Uiso   1.00
C11    C     0.93689   0.04428   0.80259   0.00000  Uiso   1.00
C12    C     0.87854   0.96194   0.85533   0.00000  Uiso   1.00
C13    C     0.86127   0.81037   0.94325   0.00000  Uiso   1.00
C14    C     0.45310   0.22240   0.75052   0.00000  Uiso   1.00
C15    C     0.53422   0.21242   0.64067   0.00000  Uiso   1.00
C16    C     0.42879   0.20350   0.56626   0.00000  Uiso   1.00
C17    C     0.52965   0.19522   0.47041   0.00000  Uiso   1.00
C18    C     0.48632   0.33034   0.79309   0.00000  Uiso   1.00
C19    C     0.34063   0.42056   0.84685   0.00000  Uiso   1.00
C20    C     0.40115   0.51153   0.87932   0.00000  Uiso   1.00
C21    C     0.58992   0.12523   0.79182   0.00000  Uiso   1.00
C22    C     0.53134   0.04301   0.84453   0.00000  Uiso   1.00
C23    C     0.67908   0.96132   0.87596   0.00000  Uiso   1.00
H24    H     0.97465   0.22403   0.69658   0.00000  Uiso   1.00
H25    H     0.98842   0.20526   0.50841   0.00000  Uiso   1.00
H26    H     0.90027   0.42227   0.78896   0.00000  Uiso   1.00
H27    H     0.09094   0.04478   0.78664   0.00000  Uiso   1.00
H28    H     0.91586   0.18422   0.30888   0.00000  Uiso   1.00
H29    H     0.72999   0.64178   0.90046   0.00000  Uiso   1.00
H30    H     0.13208   0.84578   0.89557   0.00000  Uiso   1.00
H31    H     0.29808   0.22192   0.76655   0.00000  Uiso   1.00
H32    H     0.27472   0.20303   0.58222   0.00000  Uiso   1.00
H33    H     0.18657   0.42004   0.86277   0.00000  Uiso   1.00
H34    H     0.37725   0.04256   0.86045   0.00000  Uiso   1.00
H35    H     0.33659   0.18241   0.36879   0.00000  Uiso   1.00
H36    H     0.15073   0.63998   0.96037   0.00000  Uiso   1.00
H37    H     0.55281   0.84398   0.95548   0.00000  Uiso   1.00
O38    O     0.62304   0.17096   0.21632   0.00000  Uiso   1.00
O39    O     0.37921   0.77126   0.99246   0.00000  Uiso   1.00
O40    O     0.90674   0.72693   0.98604   0.00000  Uiso   1.00
N41    N     0.78274   0.18636   0.34828   0.00000  Uiso   1.00
N42    N     0.60897   0.61416   0.90135   0.00000  Uiso   1.00
N43    N     0.98488   0.86999   0.89681   0.00000  Uiso   1.00
N44    N     0.47105   0.18539   0.38051   0.00000  Uiso   1.00
N45    N     0.29727   0.61319   0.93359   0.00000  Uiso   1.00
N46    N     0.67318   0.86902   0.92904   0.00000  Uiso   1.00
C47    C     0.18035   0.77646   0.28740   0.00000  Uiso   1.00
C48    C     0.26668   0.78696   0.37993   0.00000  Uiso   1.00
C49    C     0.16566   0.79524   0.47568   0.00000  Uiso   1.00
C50    C     0.27090   0.80416   0.55021   0.00000  Uiso   1.00
C51    C     0.37470   0.82031   0.69702   0.00000  Uiso   1.00
C52    C     0.31459   0.66904   0.22751   0.00000  Uiso   1.00
C53    C     0.25382   0.57818   0.19510   0.00000  Uiso   1.00
C54    C     0.39939   0.48785   0.14131   0.00000  Uiso   1.00
C55    C     0.57753   0.32097   0.05142   0.00000  Uiso   1.00
C56    C     0.21098   0.87415   0.22878   0.00000  Uiso   1.00
C57    C     0.06311   0.95572   0.19741   0.00000  Uiso   1.00
C58    C     0.12146   0.03806   0.14467   0.00000  Uiso   1.00
C59    C     0.13873   0.18963   0.05675   0.00000  Uiso   1.00
C60    C     0.54690   0.77760   0.24948   0.00000  Uiso   1.00
C61    C     0.46578   0.78758   0.35933   0.00000  Uiso   1.00
C62    C     0.57121   0.79650   0.43374   0.00000  Uiso   1.00
C63    C     0.47035   0.80478   0.52959   0.00000  Uiso   1.00
C64    C     0.51368   0.66966   0.20691   0.00000  Uiso   1.00
C65    C     0.65937   0.57944   0.15315   0.00000  Uiso   1.00
C66    C     0.59885   0.48847   0.12068   0.00000  Uiso   1.00
C67    C     0.41008   0.87477   0.20818   0.00000  Uiso   1.00
C68    C     0.46866   0.95699   0.15547   0.00000  Uiso   1.00
C69    C     0.32092   0.03868   0.12404   0.00000  Uiso   1.00
H70    H     0.02535   0.77597   0.30342   0.00000  Uiso   1.00
H71    H     0.01158   0.79474   0.49159   0.00000  Uiso   1.00
H72    H     0.09973   0.57773   0.21104   0.00000  Uiso   1.00
H73    H     0.90906   0.95522   0.21336   0.00000  Uiso   1.00
H74    H     0.08414   0.81578   0.69112   0.00000  Uiso   1.00
H75    H     0.27001   0.35822   0.09954   0.00000  Uiso   1.00
H76    H     0.86792   0.15422   0.10443   0.00000  Uiso   1.00
H77    H     0.70192   0.77808   0.23345   0.00000  Uiso   1.00
H78    H     0.72528   0.79697   0.41778   0.00000  Uiso   1.00
H79    H     0.81343   0.57996   0.13723   0.00000  Uiso   1.00
H80    H     0.62275   0.95744   0.13955   0.00000  Uiso   1.00
H81    H     0.66341   0.81759   0.63121   0.00000  Uiso   1.00
H82    H     0.84927   0.36002   0.03963   0.00000  Uiso   1.00
H83    H     0.44719   0.15602   0.04452   0.00000  Uiso   1.00
O84    O     0.37696   0.82904   0.78368   0.00000  Uiso   1.00
O85    O     0.62079   0.22874   0.00754   0.00000  Uiso   1.00
O86    O     0.09326   0.27307   0.01396   0.00000  Uiso   1.00
N87    N     0.21726   0.81364   0.65172   0.00000  Uiso   1.00
N88    N     0.39103   0.38584   0.09865   0.00000  Uiso   1.00
N89    N     0.01512   0.13001   0.10319   0.00000  Uiso   1.00
N90    N     0.52895   0.81461   0.61949   0.00000  Uiso   1.00
N91    N     0.70273   0.38681   0.06641   0.00000  Uiso   1.00
N92    N     0.32682   0.13098   0.07096   0.00000  Uiso   1.00
