data_job_03643
_audit_creation_date              2018-12-19
_audit_creation_method            'Materials Studio'
_symmetry_space_group_name_H-M    'P1'
_symmetry_Int_Tables_number       1
_symmetry_cell_setting            triclinic
loop_
_symmetry_equiv_pos_as_xyz
  x,y,z
_cell_length_a                    18.9252
_cell_length_b                    15.1540
_cell_length_c                    22.1778
_cell_angle_alpha                 90.0000
_cell_angle_beta                  90.0000
_cell_angle_gamma                 90.0000
loop_
_atom_site_label
_atom_site_type_symbol
_atom_site_fract_x
_atom_site_fract_y
_atom_site_fract_z
_atom_site_U_iso_or_equiv
_atom_site_adp_type
_atom_site_occupancy
C1     C     0.53963   0.35773   0.51795   0.00000  Uiso   1.00
C2     C     0.56141   0.32681   0.58068   0.00000  Uiso   1.00
C3     C     0.55617   0.37584   0.63335   0.00000  Uiso   1.00
C4     C     0.57894   0.33574   0.68618   0.00000  Uiso   1.00
C5     C     0.60869   0.30083   0.78357   0.00000  Uiso   1.00
C6     C     0.60502   0.34792   0.47834   0.00000  Uiso   1.00
C7     C     0.63645   0.41469   0.44495   0.00000  Uiso   1.00
C8     C     0.69592   0.39236   0.41162   0.00000  Uiso   1.00
C9     C     0.79334   0.39021   0.35008   0.00000  Uiso   1.00
C10    C     0.48655   0.28993   0.49494   0.00000  Uiso   1.00
C11    C     0.41836   0.30795   0.47549   0.00000  Uiso   1.00
C12    C     0.37809   0.23680   0.45612   0.00000  Uiso   1.00
C13    C     0.29156   0.14461   0.42036   0.00000  Uiso   1.00
C14    C     0.58937   0.19934   0.51813   0.00000  Uiso   1.00
C15    C     0.58843   0.24077   0.58078   0.00000  Uiso   1.00
C16    C     0.61121   0.20059   0.63354   0.00000  Uiso   1.00
C17    C     0.60600   0.24955   0.68628   0.00000  Uiso   1.00
C18    C     0.63204   0.26189   0.47844   0.00000  Uiso   1.00
C19    C     0.69148   0.23945   0.44514   0.00000  Uiso   1.00
C20    C     0.72299   0.30617   0.41171   0.00000  Uiso   1.00
C21    C     0.51356   0.20390   0.49504   0.00000  Uiso   1.00
C22    C     0.47339   0.13271   0.47569   0.00000  Uiso   1.00
C23    C     0.40516   0.15061   0.45622   0.00000  Uiso   1.00
H24    H     0.51860   0.42471   0.51787   0.00000  Uiso   1.00
H25    H     0.53527   0.44242   0.63325   0.00000  Uiso   1.00
H26    H     0.61552   0.48126   0.44488   0.00000  Uiso   1.00
H27    H     0.39747   0.37454   0.47542   0.00000  Uiso   1.00
H28    H     0.56569   0.42412   0.76121   0.00000  Uiso   1.00
H29    H     0.73490   0.50602   0.36400   0.00000  Uiso   1.00
H30    H     0.27509   0.28097   0.42840   0.00000  Uiso   1.00
H31    H     0.61041   0.13236   0.51820   0.00000  Uiso   1.00
H32    H     0.63211   0.13401   0.63360   0.00000  Uiso   1.00
H33    H     0.71237   0.17286   0.44523   0.00000  Uiso   1.00
H34    H     0.49432   0.06614   0.47577   0.00000  Uiso   1.00
H35    H     0.64430   0.17381   0.76150   0.00000  Uiso   1.00
H36    H     0.81350   0.25571   0.36428   0.00000  Uiso   1.00
H37    H     0.35369   0.03066   0.42869   0.00000  Uiso   1.00
O38    O     0.61764   0.30534   0.83726   0.00000  Uiso   1.00
O39    O     0.83962   0.41279   0.31612   0.00000  Uiso   1.00
O40    O     0.23636   0.11753   0.40062   0.00000  Uiso   1.00
N41    N     0.58120   0.36497   0.74544   0.00000  Uiso   1.00
N42    N     0.73940   0.44155   0.37408   0.00000  Uiso   1.00
N43    N     0.30952   0.23115   0.43428   0.00000  Uiso   1.00
N44    N     0.62350   0.23028   0.74560   0.00000  Uiso   1.00
N45    N     0.78170   0.30686   0.37423   0.00000  Uiso   1.00
N46    N     0.35182   0.09646   0.43443   0.00000  Uiso   1.00
C47    C     0.03963   0.85773   0.51795   0.00000  Uiso   1.00
C48    C     0.06141   0.82681   0.58068   0.00000  Uiso   1.00
C49    C     0.05617   0.87584   0.63335   0.00000  Uiso   1.00
C50    C     0.07894   0.83574   0.68618   0.00000  Uiso   1.00
C51    C     0.10869   0.80083   0.78357   0.00000  Uiso   1.00
C52    C     0.10502   0.84792   0.47834   0.00000  Uiso   1.00
C53    C     0.13645   0.91469   0.44495   0.00000  Uiso   1.00
C54    C     0.19592   0.89236   0.41162   0.00000  Uiso   1.00
C55    C     0.29334   0.89021   0.35008   0.00000  Uiso   1.00
C56    C     0.98655   0.78993   0.49494   0.00000  Uiso   1.00
C57    C     0.91836   0.80795   0.47549   0.00000  Uiso   1.00
C58    C     0.87809   0.73680   0.45612   0.00000  Uiso   1.00
C59    C     0.79156   0.64461   0.42036   0.00000  Uiso   1.00
C60    C     0.08937   0.69934   0.51813   0.00000  Uiso   1.00
C61    C     0.08843   0.74077   0.58078   0.00000  Uiso   1.00
C62    C     0.11121   0.70059   0.63354   0.00000  Uiso   1.00
C63    C     0.10600   0.74955   0.68628   0.00000  Uiso   1.00
C64    C     0.13204   0.76189   0.47844   0.00000  Uiso   1.00
C65    C     0.19148   0.73945   0.44514   0.00000  Uiso   1.00
C66    C     0.22299   0.80617   0.41171   0.00000  Uiso   1.00
C67    C     0.01356   0.70390   0.49504   0.00000  Uiso   1.00
C68    C     0.97339   0.63271   0.47569   0.00000  Uiso   1.00
C69    C     0.90516   0.65061   0.45622   0.00000  Uiso   1.00
H70    H     0.01860   0.92471   0.51787   0.00000  Uiso   1.00
H71    H     0.03527   0.94242   0.63325   0.00000  Uiso   1.00
H72    H     0.11552   0.98126   0.44488   0.00000  Uiso   1.00
H73    H     0.89747   0.87454   0.47542   0.00000  Uiso   1.00
H74    H     0.06569   0.92412   0.76121   0.00000  Uiso   1.00
H75    H     0.23490   0.00602   0.36400   0.00000  Uiso   1.00
H76    H     0.77509   0.78097   0.42840   0.00000  Uiso   1.00
H77    H     0.11041   0.63236   0.51820   0.00000  Uiso   1.00
H78    H     0.13211   0.63401   0.63360   0.00000  Uiso   1.00
H79    H     0.21237   0.67286   0.44523   0.00000  Uiso   1.00
H80    H     0.99432   0.56614   0.47577   0.00000  Uiso   1.00
H81    H     0.14430   0.67381   0.76150   0.00000  Uiso   1.00
H82    H     0.31350   0.75571   0.36428   0.00000  Uiso   1.00
H83    H     0.85369   0.53066   0.42869   0.00000  Uiso   1.00
O84    O     0.11764   0.80534   0.83726   0.00000  Uiso   1.00
O85    O     0.33962   0.91279   0.31612   0.00000  Uiso   1.00
O86    O     0.73636   0.61753   0.40062   0.00000  Uiso   1.00
N87    N     0.08120   0.86497   0.74544   0.00000  Uiso   1.00
N88    N     0.23940   0.94155   0.37408   0.00000  Uiso   1.00
N89    N     0.80952   0.73115   0.43428   0.00000  Uiso   1.00
N90    N     0.12350   0.73028   0.74560   0.00000  Uiso   1.00
N91    N     0.28170   0.80686   0.37423   0.00000  Uiso   1.00
N92    N     0.85182   0.59646   0.43443   0.00000  Uiso   1.00
C93    C     0.46037   0.64227   0.01795   0.00000  Uiso   1.00
C94    C     0.43859   0.67319   0.08068   0.00000  Uiso   1.00
C95    C     0.44383   0.62416   0.13335   0.00000  Uiso   1.00
C96    C     0.42106   0.66426   0.18618   0.00000  Uiso   1.00
C97    C     0.39131   0.69917   0.28357   0.00000  Uiso   1.00
C98    C     0.39498   0.65208   0.97834   0.00000  Uiso   1.00
C99    C     0.36355   0.58531   0.94495   0.00000  Uiso   1.00
C100   C     0.30408   0.60764   0.91162   0.00000  Uiso   1.00
C101   C     0.20666   0.60979   0.85008   0.00000  Uiso   1.00
C102   C     0.51345   0.71007   0.99494   0.00000  Uiso   1.00
C103   C     0.58164   0.69205   0.97549   0.00000  Uiso   1.00
C104   C     0.62191   0.76320   0.95612   0.00000  Uiso   1.00
C105   C     0.70844   0.85539   0.92036   0.00000  Uiso   1.00
C106   C     0.41063   0.80066   0.01813   0.00000  Uiso   1.00
C107   C     0.41157   0.75923   0.08078   0.00000  Uiso   1.00
C108   C     0.38879   0.79941   0.13354   0.00000  Uiso   1.00
C109   C     0.39400   0.75045   0.18628   0.00000  Uiso   1.00
C110   C     0.36796   0.73811   0.97844   0.00000  Uiso   1.00
C111   C     0.30852   0.76055   0.94514   0.00000  Uiso   1.00
C112   C     0.27701   0.69383   0.91171   0.00000  Uiso   1.00
C113   C     0.48644   0.79610   0.99504   0.00000  Uiso   1.00
C114   C     0.52661   0.86729   0.97569   0.00000  Uiso   1.00
C115   C     0.59484   0.84939   0.95622   0.00000  Uiso   1.00
H116   H     0.48140   0.57529   0.01787   0.00000  Uiso   1.00
H117   H     0.46473   0.55758   0.13325   0.00000  Uiso   1.00
H118   H     0.38448   0.51874   0.94488   0.00000  Uiso   1.00
H119   H     0.60253   0.62546   0.97542   0.00000  Uiso   1.00
H120   H     0.43431   0.57588   0.26121   0.00000  Uiso   1.00
H121   H     0.26510   0.49398   0.86400   0.00000  Uiso   1.00
H122   H     0.72491   0.71903   0.92840   0.00000  Uiso   1.00
H123   H     0.38959   0.86764   0.01820   0.00000  Uiso   1.00
H124   H     0.36789   0.86599   0.13360   0.00000  Uiso   1.00
H125   H     0.28763   0.82714   0.94523   0.00000  Uiso   1.00
H126   H     0.50568   0.93386   0.97577   0.00000  Uiso   1.00
H127   H     0.35570   0.82619   0.26150   0.00000  Uiso   1.00
H128   H     0.18650   0.74429   0.86428   0.00000  Uiso   1.00
H129   H     0.64631   0.96934   0.92869   0.00000  Uiso   1.00
O130   O     0.38236   0.69466   0.33726   0.00000  Uiso   1.00
O131   O     0.16038   0.58721   0.81612   0.00000  Uiso   1.00
O132   O     0.76364   0.88247   0.90062   0.00000  Uiso   1.00
N133   N     0.41880   0.63503   0.24544   0.00000  Uiso   1.00
N134   N     0.26060   0.55845   0.87408   0.00000  Uiso   1.00
N135   N     0.69048   0.76885   0.93428   0.00000  Uiso   1.00
N136   N     0.37650   0.76972   0.24560   0.00000  Uiso   1.00
N137   N     0.21830   0.69314   0.87423   0.00000  Uiso   1.00
N138   N     0.64818   0.90354   0.93443   0.00000  Uiso   1.00
C139   C     0.96037   0.14227   0.01795   0.00000  Uiso   1.00
C140   C     0.93859   0.17319   0.08068   0.00000  Uiso   1.00
C141   C     0.94383   0.12416   0.13335   0.00000  Uiso   1.00
C142   C     0.92106   0.16426   0.18618   0.00000  Uiso   1.00
C143   C     0.89131   0.19917   0.28357   0.00000  Uiso   1.00
C144   C     0.89498   0.15208   0.97834   0.00000  Uiso   1.00
C145   C     0.86355   0.08531   0.94495   0.00000  Uiso   1.00
C146   C     0.80408   0.10764   0.91162   0.00000  Uiso   1.00
C147   C     0.70666   0.10979   0.85008   0.00000  Uiso   1.00
C148   C     0.01345   0.21007   0.99494   0.00000  Uiso   1.00
C149   C     0.08164   0.19205   0.97549   0.00000  Uiso   1.00
C150   C     0.12191   0.26320   0.95612   0.00000  Uiso   1.00
C151   C     0.20844   0.35539   0.92036   0.00000  Uiso   1.00
C152   C     0.91063   0.30066   0.01813   0.00000  Uiso   1.00
C153   C     0.91157   0.25923   0.08078   0.00000  Uiso   1.00
C154   C     0.88879   0.29941   0.13354   0.00000  Uiso   1.00
C155   C     0.89400   0.25045   0.18628   0.00000  Uiso   1.00
C156   C     0.86796   0.23811   0.97844   0.00000  Uiso   1.00
C157   C     0.80852   0.26055   0.94514   0.00000  Uiso   1.00
C158   C     0.77701   0.19383   0.91171   0.00000  Uiso   1.00
C159   C     0.98644   0.29610   0.99504   0.00000  Uiso   1.00
C160   C     0.02661   0.36729   0.97569   0.00000  Uiso   1.00
C161   C     0.09484   0.34939   0.95622   0.00000  Uiso   1.00
H162   H     0.98140   0.07529   0.01787   0.00000  Uiso   1.00
H163   H     0.96473   0.05758   0.13325   0.00000  Uiso   1.00
H164   H     0.88448   0.01874   0.94488   0.00000  Uiso   1.00
H165   H     0.10253   0.12546   0.97542   0.00000  Uiso   1.00
H166   H     0.93431   0.07588   0.26121   0.00000  Uiso   1.00
H167   H     0.76510   0.99398   0.86400   0.00000  Uiso   1.00
H168   H     0.22491   0.21903   0.92840   0.00000  Uiso   1.00
H169   H     0.88959   0.36764   0.01820   0.00000  Uiso   1.00
H170   H     0.86789   0.36599   0.13360   0.00000  Uiso   1.00
H171   H     0.78763   0.32714   0.94523   0.00000  Uiso   1.00
H172   H     0.00568   0.43386   0.97577   0.00000  Uiso   1.00
H173   H     0.85570   0.32619   0.26150   0.00000  Uiso   1.00
H174   H     0.68650   0.24429   0.86428   0.00000  Uiso   1.00
H175   H     0.14631   0.46934   0.92869   0.00000  Uiso   1.00
O176   O     0.88236   0.19466   0.33726   0.00000  Uiso   1.00
O177   O     0.66038   0.08721   0.81612   0.00000  Uiso   1.00
O178   O     0.26364   0.38247   0.90062   0.00000  Uiso   1.00
N179   N     0.91880   0.13503   0.24544   0.00000  Uiso   1.00
N180   N     0.76060   0.05845   0.87408   0.00000  Uiso   1.00
N181   N     0.19048   0.26885   0.93428   0.00000  Uiso   1.00
N182   N     0.87650   0.26972   0.24560   0.00000  Uiso   1.00
N183   N     0.71830   0.19314   0.87423   0.00000  Uiso   1.00
N184   N     0.14818   0.40354   0.93443   0.00000  Uiso   1.00
C185   C     0.46037   0.35773   0.98205   0.00000  Uiso   1.00
C186   C     0.43859   0.32681   0.91932   0.00000  Uiso   1.00
C187   C     0.44383   0.37584   0.86665   0.00000  Uiso   1.00
C188   C     0.42106   0.33574   0.81382   0.00000  Uiso   1.00
C189   C     0.39131   0.30083   0.71643   0.00000  Uiso   1.00
C190   C     0.39498   0.34792   0.02166   0.00000  Uiso   1.00
C191   C     0.36355   0.41469   0.05505   0.00000  Uiso   1.00
C192   C     0.30408   0.39236   0.08838   0.00000  Uiso   1.00
C193   C     0.20666   0.39021   0.14992   0.00000  Uiso   1.00
C194   C     0.51345   0.28993   0.00506   0.00000  Uiso   1.00
C195   C     0.58164   0.30795   0.02451   0.00000  Uiso   1.00
C196   C     0.62191   0.23680   0.04388   0.00000  Uiso   1.00
C197   C     0.70844   0.14461   0.07964   0.00000  Uiso   1.00
C198   C     0.41063   0.19934   0.98187   0.00000  Uiso   1.00
C199   C     0.41157   0.24077   0.91922   0.00000  Uiso   1.00
C200   C     0.38879   0.20059   0.86646   0.00000  Uiso   1.00
C201   C     0.39400   0.24955   0.81372   0.00000  Uiso   1.00
C202   C     0.36796   0.26189   0.02156   0.00000  Uiso   1.00
C203   C     0.30852   0.23945   0.05486   0.00000  Uiso   1.00
C204   C     0.27701   0.30617   0.08829   0.00000  Uiso   1.00
C205   C     0.48644   0.20390   0.00496   0.00000  Uiso   1.00
C206   C     0.52661   0.13271   0.02431   0.00000  Uiso   1.00
C207   C     0.59484   0.15061   0.04378   0.00000  Uiso   1.00
H208   H     0.48140   0.42471   0.98213   0.00000  Uiso   1.00
H209   H     0.46473   0.44242   0.86675   0.00000  Uiso   1.00
H210   H     0.38448   0.48126   0.05512   0.00000  Uiso   1.00
H211   H     0.60253   0.37454   0.02458   0.00000  Uiso   1.00
H212   H     0.43431   0.42412   0.73879   0.00000  Uiso   1.00
H213   H     0.26510   0.50602   0.13600   0.00000  Uiso   1.00
H214   H     0.72491   0.28097   0.07160   0.00000  Uiso   1.00
H215   H     0.38959   0.13236   0.98180   0.00000  Uiso   1.00
H216   H     0.36789   0.13401   0.86640   0.00000  Uiso   1.00
H217   H     0.28763   0.17286   0.05477   0.00000  Uiso   1.00
H218   H     0.50568   0.06614   0.02423   0.00000  Uiso   1.00
H219   H     0.35570   0.17381   0.73850   0.00000  Uiso   1.00
H220   H     0.18650   0.25571   0.13572   0.00000  Uiso   1.00
H221   H     0.64631   0.03066   0.07131   0.00000  Uiso   1.00
O222   O     0.38236   0.30534   0.66274   0.00000  Uiso   1.00
O223   O     0.16038   0.41279   0.18388   0.00000  Uiso   1.00
O224   O     0.76364   0.11753   0.09938   0.00000  Uiso   1.00
N225   N     0.41880   0.36497   0.75456   0.00000  Uiso   1.00
N226   N     0.26060   0.44155   0.12592   0.00000  Uiso   1.00
N227   N     0.69048   0.23115   0.06572   0.00000  Uiso   1.00
N228   N     0.37650   0.23028   0.75440   0.00000  Uiso   1.00
N229   N     0.21830   0.30686   0.12577   0.00000  Uiso   1.00
N230   N     0.64818   0.09646   0.06557   0.00000  Uiso   1.00
C231   C     0.96037   0.85773   0.98205   0.00000  Uiso   1.00
C232   C     0.93859   0.82681   0.91932   0.00000  Uiso   1.00
C233   C     0.94383   0.87584   0.86665   0.00000  Uiso   1.00
C234   C     0.92106   0.83574   0.81382   0.00000  Uiso   1.00
C235   C     0.89131   0.80083   0.71643   0.00000  Uiso   1.00
C236   C     0.89498   0.84792   0.02166   0.00000  Uiso   1.00
C237   C     0.86355   0.91469   0.05505   0.00000  Uiso   1.00
C238   C     0.80408   0.89236   0.08838   0.00000  Uiso   1.00
C239   C     0.70666   0.89021   0.14992   0.00000  Uiso   1.00
C240   C     0.01345   0.78993   0.00506   0.00000  Uiso   1.00
C241   C     0.08164   0.80795   0.02451   0.00000  Uiso   1.00
C242   C     0.12191   0.73680   0.04388   0.00000  Uiso   1.00
C243   C     0.20844   0.64461   0.07964   0.00000  Uiso   1.00
C244   C     0.91063   0.69934   0.98187   0.00000  Uiso   1.00
C245   C     0.91157   0.74077   0.91922   0.00000  Uiso   1.00
C246   C     0.88879   0.70059   0.86646   0.00000  Uiso   1.00
C247   C     0.89400   0.74955   0.81372   0.00000  Uiso   1.00
C248   C     0.86796   0.76189   0.02156   0.00000  Uiso   1.00
C249   C     0.80852   0.73945   0.05486   0.00000  Uiso   1.00
C250   C     0.77701   0.80617   0.08829   0.00000  Uiso   1.00
C251   C     0.98644   0.70390   0.00496   0.00000  Uiso   1.00
C252   C     0.02661   0.63271   0.02431   0.00000  Uiso   1.00
C253   C     0.09484   0.65061   0.04378   0.00000  Uiso   1.00
H254   H     0.98140   0.92471   0.98213   0.00000  Uiso   1.00
H255   H     0.96473   0.94242   0.86675   0.00000  Uiso   1.00
H256   H     0.88448   0.98126   0.05512   0.00000  Uiso   1.00
H257   H     0.10253   0.87454   0.02458   0.00000  Uiso   1.00
H258   H     0.93431   0.92412   0.73879   0.00000  Uiso   1.00
H259   H     0.76510   0.00602   0.13600   0.00000  Uiso   1.00
H260   H     0.22491   0.78097   0.07160   0.00000  Uiso   1.00
H261   H     0.88959   0.63236   0.98180   0.00000  Uiso   1.00
H262   H     0.86789   0.63401   0.86640   0.00000  Uiso   1.00
H263   H     0.78763   0.67286   0.05477   0.00000  Uiso   1.00
H264   H     0.00568   0.56614   0.02423   0.00000  Uiso   1.00
H265   H     0.85570   0.67381   0.73850   0.00000  Uiso   1.00
H266   H     0.68650   0.75571   0.13572   0.00000  Uiso   1.00
H267   H     0.14631   0.53066   0.07131   0.00000  Uiso   1.00
O268   O     0.88236   0.80534   0.66274   0.00000  Uiso   1.00
O269   O     0.66038   0.91279   0.18388   0.00000  Uiso   1.00
O270   O     0.26364   0.61753   0.09938   0.00000  Uiso   1.00
N271   N     0.91880   0.86497   0.75456   0.00000  Uiso   1.00
N272   N     0.76060   0.94155   0.12592   0.00000  Uiso   1.00
N273   N     0.19048   0.73115   0.06572   0.00000  Uiso   1.00
N274   N     0.87650   0.73028   0.75440   0.00000  Uiso   1.00
N275   N     0.71830   0.80686   0.12577   0.00000  Uiso   1.00
N276   N     0.14818   0.59646   0.06557   0.00000  Uiso   1.00
C277   C     0.53963   0.64227   0.48205   0.00000  Uiso   1.00
C278   C     0.56141   0.67319   0.41932   0.00000  Uiso   1.00
C279   C     0.55617   0.62416   0.36665   0.00000  Uiso   1.00
C280   C     0.57894   0.66426   0.31382   0.00000  Uiso   1.00
C281   C     0.60869   0.69917   0.21643   0.00000  Uiso   1.00
C282   C     0.60502   0.65208   0.52166   0.00000  Uiso   1.00
C283   C     0.63645   0.58531   0.55505   0.00000  Uiso   1.00
C284   C     0.69592   0.60764   0.58838   0.00000  Uiso   1.00
C285   C     0.79334   0.60979   0.64992   0.00000  Uiso   1.00
C286   C     0.48655   0.71007   0.50506   0.00000  Uiso   1.00
C287   C     0.41836   0.69205   0.52451   0.00000  Uiso   1.00
C288   C     0.37809   0.76320   0.54388   0.00000  Uiso   1.00
C289   C     0.29156   0.85539   0.57964   0.00000  Uiso   1.00
C290   C     0.58937   0.80066   0.48187   0.00000  Uiso   1.00
C291   C     0.58843   0.75923   0.41922   0.00000  Uiso   1.00
C292   C     0.61121   0.79941   0.36646   0.00000  Uiso   1.00
C293   C     0.60600   0.75045   0.31372   0.00000  Uiso   1.00
C294   C     0.63204   0.73811   0.52156   0.00000  Uiso   1.00
C295   C     0.69148   0.76055   0.55486   0.00000  Uiso   1.00
C296   C     0.72299   0.69383   0.58829   0.00000  Uiso   1.00
C297   C     0.51356   0.79610   0.50496   0.00000  Uiso   1.00
C298   C     0.47339   0.86729   0.52431   0.00000  Uiso   1.00
C299   C     0.40516   0.84939   0.54378   0.00000  Uiso   1.00
H300   H     0.51860   0.57529   0.48213   0.00000  Uiso   1.00
H301   H     0.53527   0.55758   0.36675   0.00000  Uiso   1.00
H302   H     0.61552   0.51874   0.55512   0.00000  Uiso   1.00
H303   H     0.39747   0.62546   0.52458   0.00000  Uiso   1.00
H304   H     0.56569   0.57588   0.23879   0.00000  Uiso   1.00
H305   H     0.73490   0.49398   0.63600   0.00000  Uiso   1.00
H306   H     0.27509   0.71903   0.57160   0.00000  Uiso   1.00
H307   H     0.61041   0.86764   0.48180   0.00000  Uiso   1.00
H308   H     0.63211   0.86599   0.36640   0.00000  Uiso   1.00
H309   H     0.71237   0.82714   0.55477   0.00000  Uiso   1.00
H310   H     0.49432   0.93386   0.52423   0.00000  Uiso   1.00
H311   H     0.64430   0.82619   0.23850   0.00000  Uiso   1.00
H312   H     0.81350   0.74429   0.63572   0.00000  Uiso   1.00
H313   H     0.35369   0.96934   0.57131   0.00000  Uiso   1.00
O314   O     0.61764   0.69466   0.16274   0.00000  Uiso   1.00
O315   O     0.83962   0.58721   0.68388   0.00000  Uiso   1.00
O316   O     0.23636   0.88247   0.59938   0.00000  Uiso   1.00
N317   N     0.58120   0.63503   0.25456   0.00000  Uiso   1.00
N318   N     0.73940   0.55845   0.62592   0.00000  Uiso   1.00
N319   N     0.30952   0.76885   0.56572   0.00000  Uiso   1.00
N320   N     0.62350   0.76972   0.25440   0.00000  Uiso   1.00
N321   N     0.78170   0.69314   0.62577   0.00000  Uiso   1.00
N322   N     0.35182   0.90354   0.56557   0.00000  Uiso   1.00
C323   C     0.03963   0.14227   0.48205   0.00000  Uiso   1.00
C324   C     0.06141   0.17319   0.41932   0.00000  Uiso   1.00
C325   C     0.05617   0.12416   0.36665   0.00000  Uiso   1.00
C326   C     0.07894   0.16426   0.31382   0.00000  Uiso   1.00
C327   C     0.10869   0.19917   0.21643   0.00000  Uiso   1.00
C328   C     0.10502   0.15208   0.52166   0.00000  Uiso   1.00
C329   C     0.13645   0.08531   0.55505   0.00000  Uiso   1.00
C330   C     0.19592   0.10764   0.58838   0.00000  Uiso   1.00
C331   C     0.29334   0.10979   0.64992   0.00000  Uiso   1.00
C332   C     0.98655   0.21007   0.50506   0.00000  Uiso   1.00
C333   C     0.91836   0.19205   0.52451   0.00000  Uiso   1.00
C334   C     0.87809   0.26320   0.54388   0.00000  Uiso   1.00
C335   C     0.79156   0.35539   0.57964   0.00000  Uiso   1.00
C336   C     0.08937   0.30066   0.48187   0.00000  Uiso   1.00
C337   C     0.08843   0.25923   0.41922   0.00000  Uiso   1.00
C338   C     0.11121   0.29941   0.36646   0.00000  Uiso   1.00
C339   C     0.10600   0.25045   0.31372   0.00000  Uiso   1.00
C340   C     0.13204   0.23811   0.52156   0.00000  Uiso   1.00
C341   C     0.19148   0.26055   0.55486   0.00000  Uiso   1.00
C342   C     0.22299   0.19383   0.58829   0.00000  Uiso   1.00
C343   C     0.01356   0.29610   0.50496   0.00000  Uiso   1.00
C344   C     0.97339   0.36729   0.52431   0.00000  Uiso   1.00
C345   C     0.90516   0.34939   0.54378   0.00000  Uiso   1.00
H346   H     0.01860   0.07529   0.48213   0.00000  Uiso   1.00
H347   H     0.03527   0.05758   0.36675   0.00000  Uiso   1.00
H348   H     0.11552   0.01874   0.55512   0.00000  Uiso   1.00
H349   H     0.89747   0.12546   0.52458   0.00000  Uiso   1.00
H350   H     0.06569   0.07588   0.23879   0.00000  Uiso   1.00
H351   H     0.23490   0.99398   0.63600   0.00000  Uiso   1.00
H352   H     0.77509   0.21903   0.57160   0.00000  Uiso   1.00
H353   H     0.11041   0.36764   0.48180   0.00000  Uiso   1.00
H354   H     0.13211   0.36599   0.36640   0.00000  Uiso   1.00
H355   H     0.21237   0.32714   0.55477   0.00000  Uiso   1.00
H356   H     0.99432   0.43386   0.52423   0.00000  Uiso   1.00
H357   H     0.14430   0.32619   0.23850   0.00000  Uiso   1.00
H358   H     0.31350   0.24429   0.63572   0.00000  Uiso   1.00
H359   H     0.85369   0.46934   0.57131   0.00000  Uiso   1.00
O360   O     0.11764   0.19466   0.16274   0.00000  Uiso   1.00
O361   O     0.33962   0.08721   0.68388   0.00000  Uiso   1.00
O362   O     0.73636   0.38247   0.59938   0.00000  Uiso   1.00
N363   N     0.08120   0.13503   0.25456   0.00000  Uiso   1.00
N364   N     0.23940   0.05845   0.62592   0.00000  Uiso   1.00
N365   N     0.80952   0.26885   0.56572   0.00000  Uiso   1.00
N366   N     0.12350   0.26972   0.25440   0.00000  Uiso   1.00
N367   N     0.28170   0.19314   0.62577   0.00000  Uiso   1.00
N368   N     0.85182   0.40354   0.56557   0.00000  Uiso   1.00
