data_job_03683
_audit_creation_date              2018-12-19
_audit_creation_method            'Materials Studio'
_symmetry_space_group_name_H-M    'P1'
_symmetry_Int_Tables_number       1
_symmetry_cell_setting            triclinic
loop_
_symmetry_equiv_pos_as_xyz
  x,y,z
_cell_length_a                    20.7631
_cell_length_b                    13.9214
_cell_length_c                    31.5924
_cell_angle_alpha                 90.0000
_cell_angle_beta                  90.0000
_cell_angle_gamma                 90.0000
loop_
_atom_site_label
_atom_site_type_symbol
_atom_site_fract_x
_atom_site_fract_y
_atom_site_fract_z
_atom_site_U_iso_or_equiv
_atom_site_adp_type
_atom_site_occupancy
C1     C     0.39298   0.78280   0.82391   0.00000  Uiso   1.00
C2     C     0.46062   0.80676   0.83948   0.00000  Uiso   1.00
C3     C     0.51761   0.78429   0.81878   0.00000  Uiso   1.00
C4     C     0.57453   0.81243   0.83823   0.00000  Uiso   1.00
C5     C     0.67958   0.84216   0.85652   0.00000  Uiso   1.00
C6     C     0.36127   0.72521   0.85928   0.00000  Uiso   1.00
C7     C     0.33473   0.63418   0.85523   0.00000  Uiso   1.00
C8     C     0.30801   0.59367   0.89135   0.00000  Uiso   1.00
C9     C     0.25877   0.49682   0.94038   0.00000  Uiso   1.00
C10    C     0.35687   0.87807   0.82185   0.00000  Uiso   1.00
C11    C     0.32661   0.91555   0.78634   0.00000  Uiso   1.00
C12    C     0.29617   0.00374   0.79094   0.00000  Uiso   1.00
C13    C     0.24010   0.14422   0.78186   0.00000  Uiso   1.00
C14    C     0.39271   0.87275   0.89525   0.00000  Uiso   1.00
C15    C     0.46047   0.85561   0.87823   0.00000  Uiso   1.00
C16    C     0.51732   0.88380   0.89771   0.00000  Uiso   1.00
C17    C     0.57439   0.86137   0.87705   0.00000  Uiso   1.00
C18    C     0.36112   0.77406   0.89803   0.00000  Uiso   1.00
C19    C     0.33443   0.73368   0.93416   0.00000  Uiso   1.00
C20    C     0.30786   0.64261   0.93017   0.00000  Uiso   1.00
C21    C     0.35672   0.92692   0.86060   0.00000  Uiso   1.00
C22    C     0.32632   0.01507   0.86527   0.00000  Uiso   1.00
C23    C     0.29602   0.05268   0.82976   0.00000  Uiso   1.00
H24    H     0.39309   0.74477   0.79374   0.00000  Uiso   1.00
H25    H     0.51771   0.74647   0.78879   0.00000  Uiso   1.00
H26    H     0.33484   0.59639   0.82524   0.00000  Uiso   1.00
H27    H     0.32673   0.87773   0.75635   0.00000  Uiso   1.00
H28    H     0.65580   0.76988   0.80041   0.00000  Uiso   1.00
H29    H     0.27021   0.45344   0.87725   0.00000  Uiso   1.00
H30    H     0.25310   0.04669   0.73199   0.00000  Uiso   1.00
H31    H     0.39260   0.91078   0.92542   0.00000  Uiso   1.00
H32    H     0.51719   0.92160   0.92770   0.00000  Uiso   1.00
H33    H     0.33432   0.77151   0.96414   0.00000  Uiso   1.00
H34    H     0.32621   0.05285   0.89526   0.00000  Uiso   1.00
H35    H     0.65538   0.91202   0.91315   0.00000  Uiso   1.00
H36    H     0.26978   0.59557   0.98999   0.00000  Uiso   1.00
H37    H     0.25268   0.18882   0.84473   0.00000  Uiso   1.00
O38    O     0.73756   0.84504   0.85591   0.00000  Uiso   1.00
O39    O     0.23166   0.42989   0.95672   0.00000  Uiso   1.00
O40    O     0.20923   0.20822   0.76615   0.00000  Uiso   1.00
N41    N     0.63861   0.80187   0.82662   0.00000  Uiso   1.00
N42    N     0.27810   0.50600   0.89847   0.00000  Uiso   1.00
N43    N     0.26210   0.06063   0.76267   0.00000  Uiso   1.00
N44    N     0.63838   0.87835   0.88729   0.00000  Uiso   1.00
N45    N     0.27788   0.58248   0.95914   0.00000  Uiso   1.00
N46    N     0.26187   0.13711   0.82333   0.00000  Uiso   1.00
C47    C     0.89298   0.28280   0.82391   0.00000  Uiso   1.00
C48    C     0.96062   0.30676   0.83948   0.00000  Uiso   1.00
C49    C     0.01761   0.28429   0.81878   0.00000  Uiso   1.00
C50    C     0.07453   0.31243   0.83823   0.00000  Uiso   1.00
C51    C     0.17958   0.34216   0.85652   0.00000  Uiso   1.00
C52    C     0.86127   0.22521   0.85928   0.00000  Uiso   1.00
C53    C     0.83473   0.13418   0.85523   0.00000  Uiso   1.00
C54    C     0.80801   0.09367   0.89135   0.00000  Uiso   1.00
C55    C     0.75877   0.99682   0.94038   0.00000  Uiso   1.00
C56    C     0.85687   0.37807   0.82185   0.00000  Uiso   1.00
C57    C     0.82661   0.41555   0.78634   0.00000  Uiso   1.00
C58    C     0.79617   0.50374   0.79094   0.00000  Uiso   1.00
C59    C     0.74010   0.64422   0.78186   0.00000  Uiso   1.00
C60    C     0.89271   0.37275   0.89525   0.00000  Uiso   1.00
C61    C     0.96047   0.35561   0.87823   0.00000  Uiso   1.00
C62    C     0.01732   0.38380   0.89771   0.00000  Uiso   1.00
C63    C     0.07439   0.36137   0.87705   0.00000  Uiso   1.00
C64    C     0.86112   0.27406   0.89803   0.00000  Uiso   1.00
C65    C     0.83443   0.23368   0.93416   0.00000  Uiso   1.00
C66    C     0.80786   0.14261   0.93017   0.00000  Uiso   1.00
C67    C     0.85672   0.42692   0.86060   0.00000  Uiso   1.00
C68    C     0.82632   0.51507   0.86527   0.00000  Uiso   1.00
C69    C     0.79602   0.55268   0.82976   0.00000  Uiso   1.00
H70    H     0.89309   0.24477   0.79374   0.00000  Uiso   1.00
H71    H     0.01771   0.24647   0.78879   0.00000  Uiso   1.00
H72    H     0.83484   0.09639   0.82524   0.00000  Uiso   1.00
H73    H     0.82673   0.37773   0.75635   0.00000  Uiso   1.00
H74    H     0.15580   0.26988   0.80041   0.00000  Uiso   1.00
H75    H     0.77021   0.95344   0.87725   0.00000  Uiso   1.00
H76    H     0.75310   0.54669   0.73199   0.00000  Uiso   1.00
H77    H     0.89260   0.41078   0.92542   0.00000  Uiso   1.00
H78    H     0.01719   0.42160   0.92770   0.00000  Uiso   1.00
H79    H     0.83432   0.27151   0.96414   0.00000  Uiso   1.00
H80    H     0.82621   0.55285   0.89526   0.00000  Uiso   1.00
H81    H     0.15538   0.41202   0.91315   0.00000  Uiso   1.00
H82    H     0.76978   0.09557   0.98999   0.00000  Uiso   1.00
H83    H     0.75268   0.68882   0.84473   0.00000  Uiso   1.00
O84    O     0.23756   0.34504   0.85591   0.00000  Uiso   1.00
O85    O     0.73166   0.92989   0.95672   0.00000  Uiso   1.00
O86    O     0.70923   0.70822   0.76615   0.00000  Uiso   1.00
N87    N     0.13861   0.30187   0.82662   0.00000  Uiso   1.00
N88    N     0.77810   0.00600   0.89847   0.00000  Uiso   1.00
N89    N     0.76210   0.56063   0.76267   0.00000  Uiso   1.00
N90    N     0.13838   0.37835   0.88729   0.00000  Uiso   1.00
N91    N     0.77788   0.08248   0.95914   0.00000  Uiso   1.00
N92    N     0.76187   0.63711   0.82333   0.00000  Uiso   1.00
C93    C     0.60702   0.21720   0.32391   0.00000  Uiso   1.00
C94    C     0.53938   0.19324   0.33948   0.00000  Uiso   1.00
C95    C     0.48239   0.21571   0.31878   0.00000  Uiso   1.00
C96    C     0.42547   0.18757   0.33823   0.00000  Uiso   1.00
C97    C     0.32042   0.15784   0.35652   0.00000  Uiso   1.00
C98    C     0.63873   0.27479   0.35928   0.00000  Uiso   1.00
C99    C     0.66527   0.36582   0.35523   0.00000  Uiso   1.00
C100   C     0.69199   0.40633   0.39135   0.00000  Uiso   1.00
C101   C     0.74123   0.50318   0.44038   0.00000  Uiso   1.00
C102   C     0.64313   0.12193   0.32185   0.00000  Uiso   1.00
C103   C     0.67339   0.08445   0.28634   0.00000  Uiso   1.00
C104   C     0.70383   0.99626   0.29094   0.00000  Uiso   1.00
C105   C     0.75990   0.85578   0.28186   0.00000  Uiso   1.00
C106   C     0.60729   0.12725   0.39525   0.00000  Uiso   1.00
C107   C     0.53953   0.14439   0.37823   0.00000  Uiso   1.00
C108   C     0.48268   0.11620   0.39771   0.00000  Uiso   1.00
C109   C     0.42561   0.13863   0.37705   0.00000  Uiso   1.00
C110   C     0.63888   0.22594   0.39803   0.00000  Uiso   1.00
C111   C     0.66557   0.26632   0.43416   0.00000  Uiso   1.00
C112   C     0.69214   0.35739   0.43017   0.00000  Uiso   1.00
C113   C     0.64328   0.07308   0.36060   0.00000  Uiso   1.00
C114   C     0.67368   0.98493   0.36527   0.00000  Uiso   1.00
C115   C     0.70398   0.94732   0.32976   0.00000  Uiso   1.00
H116   H     0.60691   0.25523   0.29374   0.00000  Uiso   1.00
H117   H     0.48229   0.25353   0.28879   0.00000  Uiso   1.00
H118   H     0.66516   0.40361   0.32524   0.00000  Uiso   1.00
H119   H     0.67327   0.12227   0.25635   0.00000  Uiso   1.00
H120   H     0.34420   0.23012   0.30041   0.00000  Uiso   1.00
H121   H     0.72979   0.54656   0.37725   0.00000  Uiso   1.00
H122   H     0.74690   0.95331   0.23199   0.00000  Uiso   1.00
H123   H     0.60740   0.08922   0.42542   0.00000  Uiso   1.00
H124   H     0.48281   0.07840   0.42770   0.00000  Uiso   1.00
H125   H     0.66568   0.22849   0.46414   0.00000  Uiso   1.00
H126   H     0.67379   0.94715   0.39526   0.00000  Uiso   1.00
H127   H     0.34462   0.08798   0.41315   0.00000  Uiso   1.00
H128   H     0.73022   0.40443   0.48999   0.00000  Uiso   1.00
H129   H     0.74732   0.81118   0.34473   0.00000  Uiso   1.00
O130   O     0.26244   0.15496   0.35591   0.00000  Uiso   1.00
O131   O     0.76834   0.57011   0.45672   0.00000  Uiso   1.00
O132   O     0.79077   0.79178   0.26615   0.00000  Uiso   1.00
N133   N     0.36139   0.19813   0.32662   0.00000  Uiso   1.00
N134   N     0.72190   0.49400   0.39847   0.00000  Uiso   1.00
N135   N     0.73790   0.93937   0.26267   0.00000  Uiso   1.00
N136   N     0.36162   0.12165   0.38729   0.00000  Uiso   1.00
N137   N     0.72212   0.41752   0.45914   0.00000  Uiso   1.00
N138   N     0.73813   0.86289   0.32333   0.00000  Uiso   1.00
C139   C     0.10702   0.71720   0.32391   0.00000  Uiso   1.00
C140   C     0.03938   0.69324   0.33948   0.00000  Uiso   1.00
C141   C     0.98239   0.71571   0.31878   0.00000  Uiso   1.00
C142   C     0.92547   0.68757   0.33823   0.00000  Uiso   1.00
C143   C     0.82042   0.65784   0.35652   0.00000  Uiso   1.00
C144   C     0.13873   0.77479   0.35928   0.00000  Uiso   1.00
C145   C     0.16527   0.86582   0.35523   0.00000  Uiso   1.00
C146   C     0.19199   0.90633   0.39135   0.00000  Uiso   1.00
C147   C     0.24123   0.00318   0.44038   0.00000  Uiso   1.00
C148   C     0.14313   0.62193   0.32185   0.00000  Uiso   1.00
C149   C     0.17339   0.58445   0.28634   0.00000  Uiso   1.00
C150   C     0.20383   0.49626   0.29094   0.00000  Uiso   1.00
C151   C     0.25990   0.35578   0.28186   0.00000  Uiso   1.00
C152   C     0.10729   0.62725   0.39525   0.00000  Uiso   1.00
C153   C     0.03953   0.64439   0.37823   0.00000  Uiso   1.00
C154   C     0.98268   0.61620   0.39771   0.00000  Uiso   1.00
C155   C     0.92561   0.63863   0.37705   0.00000  Uiso   1.00
C156   C     0.13888   0.72594   0.39803   0.00000  Uiso   1.00
C157   C     0.16557   0.76632   0.43416   0.00000  Uiso   1.00
C158   C     0.19214   0.85739   0.43017   0.00000  Uiso   1.00
C159   C     0.14328   0.57308   0.36060   0.00000  Uiso   1.00
C160   C     0.17368   0.48493   0.36527   0.00000  Uiso   1.00
C161   C     0.20398   0.44732   0.32976   0.00000  Uiso   1.00
H162   H     0.10691   0.75523   0.29374   0.00000  Uiso   1.00
H163   H     0.98229   0.75353   0.28879   0.00000  Uiso   1.00
H164   H     0.16516   0.90361   0.32524   0.00000  Uiso   1.00
H165   H     0.17327   0.62227   0.25635   0.00000  Uiso   1.00
H166   H     0.84420   0.73012   0.30041   0.00000  Uiso   1.00
H167   H     0.22979   0.04656   0.37725   0.00000  Uiso   1.00
H168   H     0.24690   0.45331   0.23199   0.00000  Uiso   1.00
H169   H     0.10740   0.58922   0.42542   0.00000  Uiso   1.00
H170   H     0.98281   0.57840   0.42770   0.00000  Uiso   1.00
H171   H     0.16568   0.72849   0.46414   0.00000  Uiso   1.00
H172   H     0.17379   0.44715   0.39526   0.00000  Uiso   1.00
H173   H     0.84462   0.58798   0.41315   0.00000  Uiso   1.00
H174   H     0.23022   0.90443   0.48999   0.00000  Uiso   1.00
H175   H     0.24732   0.31118   0.34473   0.00000  Uiso   1.00
O176   O     0.76244   0.65496   0.35591   0.00000  Uiso   1.00
O177   O     0.26834   0.07011   0.45672   0.00000  Uiso   1.00
O178   O     0.29077   0.29178   0.26615   0.00000  Uiso   1.00
N179   N     0.86139   0.69813   0.32662   0.00000  Uiso   1.00
N180   N     0.22190   0.99400   0.39847   0.00000  Uiso   1.00
N181   N     0.23790   0.43937   0.26267   0.00000  Uiso   1.00
N182   N     0.86162   0.62165   0.38729   0.00000  Uiso   1.00
N183   N     0.22212   0.91752   0.45914   0.00000  Uiso   1.00
N184   N     0.23813   0.36289   0.32333   0.00000  Uiso   1.00
C185   C     0.60702   0.78280   0.67609   0.00000  Uiso   1.00
C186   C     0.53938   0.80676   0.66052   0.00000  Uiso   1.00
C187   C     0.48239   0.78429   0.68122   0.00000  Uiso   1.00
C188   C     0.42547   0.81243   0.66177   0.00000  Uiso   1.00
C189   C     0.32042   0.84216   0.64348   0.00000  Uiso   1.00
C190   C     0.63873   0.72521   0.64072   0.00000  Uiso   1.00
C191   C     0.66527   0.63418   0.64477   0.00000  Uiso   1.00
C192   C     0.69199   0.59367   0.60865   0.00000  Uiso   1.00
C193   C     0.74123   0.49682   0.55962   0.00000  Uiso   1.00
C194   C     0.64313   0.87807   0.67815   0.00000  Uiso   1.00
C195   C     0.67339   0.91555   0.71366   0.00000  Uiso   1.00
C196   C     0.70383   0.00374   0.70906   0.00000  Uiso   1.00
C197   C     0.75990   0.14422   0.71814   0.00000  Uiso   1.00
C198   C     0.60729   0.87275   0.60475   0.00000  Uiso   1.00
C199   C     0.53953   0.85561   0.62177   0.00000  Uiso   1.00
C200   C     0.48268   0.88380   0.60229   0.00000  Uiso   1.00
C201   C     0.42561   0.86137   0.62295   0.00000  Uiso   1.00
C202   C     0.63888   0.77406   0.60197   0.00000  Uiso   1.00
C203   C     0.66557   0.73368   0.56584   0.00000  Uiso   1.00
C204   C     0.69214   0.64261   0.56983   0.00000  Uiso   1.00
C205   C     0.64328   0.92692   0.63940   0.00000  Uiso   1.00
C206   C     0.67368   0.01507   0.63473   0.00000  Uiso   1.00
C207   C     0.70398   0.05268   0.67024   0.00000  Uiso   1.00
H208   H     0.60691   0.74477   0.70626   0.00000  Uiso   1.00
H209   H     0.48229   0.74647   0.71121   0.00000  Uiso   1.00
H210   H     0.66516   0.59639   0.67476   0.00000  Uiso   1.00
H211   H     0.67327   0.87773   0.74365   0.00000  Uiso   1.00
H212   H     0.34420   0.76988   0.69959   0.00000  Uiso   1.00
H213   H     0.72979   0.45344   0.62275   0.00000  Uiso   1.00
H214   H     0.74690   0.04669   0.76801   0.00000  Uiso   1.00
H215   H     0.60740   0.91078   0.57458   0.00000  Uiso   1.00
H216   H     0.48281   0.92160   0.57230   0.00000  Uiso   1.00
H217   H     0.66568   0.77151   0.53586   0.00000  Uiso   1.00
H218   H     0.67379   0.05285   0.60474   0.00000  Uiso   1.00
H219   H     0.34462   0.91202   0.58685   0.00000  Uiso   1.00
H220   H     0.73022   0.59557   0.51001   0.00000  Uiso   1.00
H221   H     0.74732   0.18882   0.65527   0.00000  Uiso   1.00
O222   O     0.26244   0.84504   0.64409   0.00000  Uiso   1.00
O223   O     0.76834   0.42989   0.54328   0.00000  Uiso   1.00
O224   O     0.79077   0.20822   0.73385   0.00000  Uiso   1.00
N225   N     0.36139   0.80187   0.67338   0.00000  Uiso   1.00
N226   N     0.72190   0.50600   0.60153   0.00000  Uiso   1.00
N227   N     0.73790   0.06063   0.73733   0.00000  Uiso   1.00
N228   N     0.36162   0.87835   0.61271   0.00000  Uiso   1.00
N229   N     0.72212   0.58248   0.54086   0.00000  Uiso   1.00
N230   N     0.73813   0.13711   0.67667   0.00000  Uiso   1.00
C231   C     0.10702   0.28280   0.67609   0.00000  Uiso   1.00
C232   C     0.03938   0.30676   0.66052   0.00000  Uiso   1.00
C233   C     0.98239   0.28429   0.68122   0.00000  Uiso   1.00
C234   C     0.92547   0.31243   0.66177   0.00000  Uiso   1.00
C235   C     0.82042   0.34216   0.64348   0.00000  Uiso   1.00
C236   C     0.13873   0.22521   0.64072   0.00000  Uiso   1.00
C237   C     0.16527   0.13418   0.64477   0.00000  Uiso   1.00
C238   C     0.19199   0.09367   0.60865   0.00000  Uiso   1.00
C239   C     0.24123   0.99682   0.55962   0.00000  Uiso   1.00
C240   C     0.14313   0.37807   0.67815   0.00000  Uiso   1.00
C241   C     0.17339   0.41555   0.71366   0.00000  Uiso   1.00
C242   C     0.20383   0.50374   0.70906   0.00000  Uiso   1.00
C243   C     0.25990   0.64422   0.71814   0.00000  Uiso   1.00
C244   C     0.10729   0.37275   0.60475   0.00000  Uiso   1.00
C245   C     0.03953   0.35561   0.62177   0.00000  Uiso   1.00
C246   C     0.98268   0.38380   0.60229   0.00000  Uiso   1.00
C247   C     0.92561   0.36137   0.62295   0.00000  Uiso   1.00
C248   C     0.13888   0.27406   0.60197   0.00000  Uiso   1.00
C249   C     0.16557   0.23368   0.56584   0.00000  Uiso   1.00
C250   C     0.19214   0.14261   0.56983   0.00000  Uiso   1.00
C251   C     0.14328   0.42692   0.63940   0.00000  Uiso   1.00
C252   C     0.17368   0.51507   0.63473   0.00000  Uiso   1.00
C253   C     0.20398   0.55268   0.67024   0.00000  Uiso   1.00
H254   H     0.10691   0.24477   0.70626   0.00000  Uiso   1.00
H255   H     0.98229   0.24647   0.71121   0.00000  Uiso   1.00
H256   H     0.16516   0.09639   0.67476   0.00000  Uiso   1.00
H257   H     0.17327   0.37773   0.74365   0.00000  Uiso   1.00
H258   H     0.84420   0.26988   0.69959   0.00000  Uiso   1.00
H259   H     0.22979   0.95344   0.62275   0.00000  Uiso   1.00
H260   H     0.24690   0.54669   0.76801   0.00000  Uiso   1.00
H261   H     0.10740   0.41078   0.57458   0.00000  Uiso   1.00
H262   H     0.98281   0.42160   0.57230   0.00000  Uiso   1.00
H263   H     0.16568   0.27151   0.53586   0.00000  Uiso   1.00
H264   H     0.17379   0.55285   0.60474   0.00000  Uiso   1.00
H265   H     0.84462   0.41202   0.58685   0.00000  Uiso   1.00
H266   H     0.23022   0.09557   0.51001   0.00000  Uiso   1.00
H267   H     0.24732   0.68882   0.65527   0.00000  Uiso   1.00
O268   O     0.76244   0.34504   0.64409   0.00000  Uiso   1.00
O269   O     0.26834   0.92989   0.54328   0.00000  Uiso   1.00
O270   O     0.29077   0.70822   0.73385   0.00000  Uiso   1.00
N271   N     0.86139   0.30187   0.67338   0.00000  Uiso   1.00
N272   N     0.22190   0.00600   0.60153   0.00000  Uiso   1.00
N273   N     0.23790   0.56063   0.73733   0.00000  Uiso   1.00
N274   N     0.86162   0.37835   0.61271   0.00000  Uiso   1.00
N275   N     0.22212   0.08248   0.54086   0.00000  Uiso   1.00
N276   N     0.23813   0.63711   0.67667   0.00000  Uiso   1.00
C277   C     0.39298   0.21720   0.17609   0.00000  Uiso   1.00
C278   C     0.46062   0.19324   0.16052   0.00000  Uiso   1.00
C279   C     0.51761   0.21571   0.18122   0.00000  Uiso   1.00
C280   C     0.57453   0.18757   0.16177   0.00000  Uiso   1.00
C281   C     0.67958   0.15784   0.14348   0.00000  Uiso   1.00
C282   C     0.36127   0.27479   0.14072   0.00000  Uiso   1.00
C283   C     0.33473   0.36582   0.14477   0.00000  Uiso   1.00
C284   C     0.30801   0.40633   0.10865   0.00000  Uiso   1.00
C285   C     0.25877   0.50318   0.05962   0.00000  Uiso   1.00
C286   C     0.35687   0.12193   0.17815   0.00000  Uiso   1.00
C287   C     0.32661   0.08445   0.21366   0.00000  Uiso   1.00
C288   C     0.29617   0.99626   0.20906   0.00000  Uiso   1.00
C289   C     0.24010   0.85578   0.21814   0.00000  Uiso   1.00
C290   C     0.39271   0.12725   0.10475   0.00000  Uiso   1.00
C291   C     0.46047   0.14439   0.12177   0.00000  Uiso   1.00
C292   C     0.51732   0.11620   0.10229   0.00000  Uiso   1.00
C293   C     0.57439   0.13863   0.12295   0.00000  Uiso   1.00
C294   C     0.36112   0.22594   0.10197   0.00000  Uiso   1.00
C295   C     0.33443   0.26632   0.06584   0.00000  Uiso   1.00
C296   C     0.30786   0.35739   0.06983   0.00000  Uiso   1.00
C297   C     0.35672   0.07308   0.13940   0.00000  Uiso   1.00
C298   C     0.32632   0.98493   0.13473   0.00000  Uiso   1.00
C299   C     0.29602   0.94732   0.17024   0.00000  Uiso   1.00
H300   H     0.39309   0.25523   0.20626   0.00000  Uiso   1.00
H301   H     0.51771   0.25353   0.21121   0.00000  Uiso   1.00
H302   H     0.33484   0.40361   0.17476   0.00000  Uiso   1.00
H303   H     0.32673   0.12227   0.24365   0.00000  Uiso   1.00
H304   H     0.65580   0.23012   0.19959   0.00000  Uiso   1.00
H305   H     0.27021   0.54656   0.12275   0.00000  Uiso   1.00
H306   H     0.25310   0.95331   0.26801   0.00000  Uiso   1.00
H307   H     0.39260   0.08922   0.07458   0.00000  Uiso   1.00
H308   H     0.51719   0.07840   0.07230   0.00000  Uiso   1.00
H309   H     0.33432   0.22849   0.03586   0.00000  Uiso   1.00
H310   H     0.32621   0.94715   0.10474   0.00000  Uiso   1.00
H311   H     0.65538   0.08798   0.08685   0.00000  Uiso   1.00
H312   H     0.26978   0.40443   0.01001   0.00000  Uiso   1.00
H313   H     0.25268   0.81118   0.15527   0.00000  Uiso   1.00
O314   O     0.73756   0.15496   0.14409   0.00000  Uiso   1.00
O315   O     0.23166   0.57011   0.04328   0.00000  Uiso   1.00
O316   O     0.20923   0.79178   0.23385   0.00000  Uiso   1.00
N317   N     0.63861   0.19813   0.17338   0.00000  Uiso   1.00
N318   N     0.27810   0.49400   0.10153   0.00000  Uiso   1.00
N319   N     0.26210   0.93937   0.23733   0.00000  Uiso   1.00
N320   N     0.63838   0.12165   0.11271   0.00000  Uiso   1.00
N321   N     0.27788   0.41752   0.04086   0.00000  Uiso   1.00
N322   N     0.26187   0.86289   0.17667   0.00000  Uiso   1.00
C323   C     0.89298   0.71720   0.17609   0.00000  Uiso   1.00
C324   C     0.96062   0.69324   0.16052   0.00000  Uiso   1.00
C325   C     0.01761   0.71571   0.18122   0.00000  Uiso   1.00
C326   C     0.07453   0.68757   0.16177   0.00000  Uiso   1.00
C327   C     0.17958   0.65784   0.14348   0.00000  Uiso   1.00
C328   C     0.86127   0.77479   0.14072   0.00000  Uiso   1.00
C329   C     0.83473   0.86582   0.14477   0.00000  Uiso   1.00
C330   C     0.80801   0.90633   0.10865   0.00000  Uiso   1.00
C331   C     0.75877   0.00318   0.05962   0.00000  Uiso   1.00
C332   C     0.85687   0.62193   0.17815   0.00000  Uiso   1.00
C333   C     0.82661   0.58445   0.21366   0.00000  Uiso   1.00
C334   C     0.79617   0.49626   0.20906   0.00000  Uiso   1.00
C335   C     0.74010   0.35578   0.21814   0.00000  Uiso   1.00
C336   C     0.89271   0.62725   0.10475   0.00000  Uiso   1.00
C337   C     0.96047   0.64439   0.12177   0.00000  Uiso   1.00
C338   C     0.01732   0.61620   0.10229   0.00000  Uiso   1.00
C339   C     0.07439   0.63863   0.12295   0.00000  Uiso   1.00
C340   C     0.86112   0.72594   0.10197   0.00000  Uiso   1.00
C341   C     0.83443   0.76632   0.06584   0.00000  Uiso   1.00
C342   C     0.80786   0.85739   0.06983   0.00000  Uiso   1.00
C343   C     0.85672   0.57308   0.13940   0.00000  Uiso   1.00
C344   C     0.82632   0.48493   0.13473   0.00000  Uiso   1.00
C345   C     0.79602   0.44732   0.17024   0.00000  Uiso   1.00
H346   H     0.89309   0.75523   0.20626   0.00000  Uiso   1.00
H347   H     0.01771   0.75353   0.21121   0.00000  Uiso   1.00
H348   H     0.83484   0.90361   0.17476   0.00000  Uiso   1.00
H349   H     0.82673   0.62227   0.24365   0.00000  Uiso   1.00
H350   H     0.15580   0.73012   0.19959   0.00000  Uiso   1.00
H351   H     0.77021   0.04656   0.12275   0.00000  Uiso   1.00
H352   H     0.75310   0.45331   0.26801   0.00000  Uiso   1.00
H353   H     0.89260   0.58922   0.07458   0.00000  Uiso   1.00
H354   H     0.01719   0.57840   0.07230   0.00000  Uiso   1.00
H355   H     0.83432   0.72849   0.03586   0.00000  Uiso   1.00
H356   H     0.82621   0.44715   0.10474   0.00000  Uiso   1.00
H357   H     0.15538   0.58798   0.08685   0.00000  Uiso   1.00
H358   H     0.76978   0.90443   0.01001   0.00000  Uiso   1.00
H359   H     0.75268   0.31118   0.15527   0.00000  Uiso   1.00
O360   O     0.23756   0.65496   0.14409   0.00000  Uiso   1.00
O361   O     0.73166   0.07011   0.04328   0.00000  Uiso   1.00
O362   O     0.70923   0.29178   0.23385   0.00000  Uiso   1.00
N363   N     0.13861   0.69813   0.17338   0.00000  Uiso   1.00
N364   N     0.77810   0.99400   0.10153   0.00000  Uiso   1.00
N365   N     0.76210   0.43937   0.23733   0.00000  Uiso   1.00
N366   N     0.13838   0.62165   0.11271   0.00000  Uiso   1.00
N367   N     0.77788   0.91752   0.04086   0.00000  Uiso   1.00
N368   N     0.76187   0.36289   0.17667   0.00000  Uiso   1.00
