data_job_02744
_audit_creation_date              2018-12-19
_audit_creation_method            'Materials Studio'
_symmetry_space_group_name_H-M    'P1'
_symmetry_Int_Tables_number       1
_symmetry_cell_setting            triclinic
loop_
_symmetry_equiv_pos_as_xyz
  x,y,z
_cell_length_a                    29.9388
_cell_length_b                    7.2079
_cell_length_c                    23.2592
_cell_angle_alpha                 90.0000
_cell_angle_beta                  117.8300
_cell_angle_gamma                 90.0000
loop_
_atom_site_label
_atom_site_type_symbol
_atom_site_fract_x
_atom_site_fract_y
_atom_site_fract_z
_atom_site_U_iso_or_equiv
_atom_site_adp_type
_atom_site_occupancy
C1     C     0.90096   0.61500   0.83229   0.00000  Uiso   1.00
C2     C     0.94338   0.75757   0.86164   0.00000  Uiso   1.00
C3     C     0.99468   0.71928   0.88956   0.00000  Uiso   1.00
C4     C     0.02746   0.86895   0.91367   0.00000  Uiso   1.00
C5     C     0.09606   0.06272   0.95984   0.00000  Uiso   1.00
C6     C     0.86964   0.63865   0.86801   0.00000  Uiso   1.00
C7     C     0.85894   0.50036   0.90127   0.00000  Uiso   1.00
C8     C     0.82965   0.54992   0.93074   0.00000  Uiso   1.00
C9     C     0.78374   0.55903   0.98675   0.00000  Uiso   1.00
C10    C     0.86723   0.67760   0.76255   0.00000  Uiso   1.00
C11    C     0.85449   0.57206   0.70714   0.00000  Uiso   1.00
C12    C     0.82315   0.65440   0.64782   0.00000  Uiso   1.00
C13    C     0.77349   0.72400   0.54009   0.00000  Uiso   1.00
C14    C     0.86794   0.94890   0.82546   0.00000  Uiso   1.00
C15    C     0.92544   0.93892   0.85793   0.00000  Uiso   1.00
C16    C     0.95816   0.08869   0.88200   0.00000  Uiso   1.00
C17    C     0.00950   0.05063   0.90995   0.00000  Uiso   1.00
C18    C     0.85171   0.82000   0.86430   0.00000  Uiso   1.00
C19    C     0.82242   0.86977   0.89371   0.00000  Uiso   1.00
C20    C     0.81168   0.73160   0.92702   0.00000  Uiso   1.00
C21    C     0.84929   0.85896   0.75883   0.00000  Uiso   1.00
C22    C     0.81796   0.94148   0.69958   0.00000  Uiso   1.00
C23    C     0.80518   0.83609   0.64410   0.00000  Uiso   1.00
H24    H     0.91492   0.47381   0.83518   0.00000  Uiso   1.00
H25    H     0.00855   0.57891   0.89243   0.00000  Uiso   1.00
H26    H     0.87282   0.36002   0.90413   0.00000  Uiso   1.00
H27    H     0.86837   0.43172   0.71003   0.00000  Uiso   1.00
H28    H     0.10444   0.77540   0.95428   0.00000  Uiso   1.00
H29    H     0.81825   0.31386   0.97894   0.00000  Uiso   1.00
H30    H     0.80886   0.46503   0.56965   0.00000  Uiso   1.00
H31    H     0.85398   0.09010   0.82257   0.00000  Uiso   1.00
H32    H     0.94427   0.22902   0.87912   0.00000  Uiso   1.00
H33    H     0.80854   0.01013   0.89083   0.00000  Uiso   1.00
H34    H     0.80409   0.08183   0.69673   0.00000  Uiso   1.00
H35    H     0.05227   0.30306   0.94349   0.00000  Uiso   1.00
H36    H     0.76608   0.84150   0.96814   0.00000  Uiso   1.00
H37    H     0.75669   0.99269   0.55885   0.00000  Uiso   1.00
O38    O     0.13885   0.11949   0.98634   0.00000  Uiso   1.00
O39    O     0.76337   0.51395   0.01867   0.00000  Uiso   1.00
O40    O     0.75106   0.71230   0.48169   0.00000  Uiso   1.00
N41    N     0.07977   0.88053   0.94397   0.00000  Uiso   1.00
N42    N     0.81221   0.44901   0.96703   0.00000  Uiso   1.00
N43    N     0.80342   0.59033   0.58438   0.00000  Uiso   1.00
N44    N     0.05170   0.16445   0.93816   0.00000  Uiso   1.00
N45    N     0.78414   0.73294   0.96122   0.00000  Uiso   1.00
N46    N     0.77535   0.87426   0.57856   0.00000  Uiso   1.00
C47    C     0.40096   0.11500   0.83229   0.00000  Uiso   1.00
C48    C     0.44338   0.25757   0.86164   0.00000  Uiso   1.00
C49    C     0.49468   0.21928   0.88956   0.00000  Uiso   1.00
C50    C     0.52746   0.36895   0.91367   0.00000  Uiso   1.00
C51    C     0.59606   0.56272   0.95984   0.00000  Uiso   1.00
C52    C     0.36964   0.13865   0.86801   0.00000  Uiso   1.00
C53    C     0.35894   0.00036   0.90127   0.00000  Uiso   1.00
C54    C     0.32965   0.04992   0.93074   0.00000  Uiso   1.00
C55    C     0.28374   0.05903   0.98675   0.00000  Uiso   1.00
C56    C     0.36723   0.17760   0.76255   0.00000  Uiso   1.00
C57    C     0.35449   0.07206   0.70714   0.00000  Uiso   1.00
C58    C     0.32315   0.15440   0.64782   0.00000  Uiso   1.00
C59    C     0.27349   0.22400   0.54009   0.00000  Uiso   1.00
C60    C     0.36794   0.44890   0.82546   0.00000  Uiso   1.00
C61    C     0.42544   0.43892   0.85793   0.00000  Uiso   1.00
C62    C     0.45816   0.58869   0.88200   0.00000  Uiso   1.00
C63    C     0.50950   0.55063   0.90995   0.00000  Uiso   1.00
C64    C     0.35171   0.32000   0.86430   0.00000  Uiso   1.00
C65    C     0.32242   0.36977   0.89371   0.00000  Uiso   1.00
C66    C     0.31168   0.23160   0.92702   0.00000  Uiso   1.00
C67    C     0.34929   0.35896   0.75883   0.00000  Uiso   1.00
C68    C     0.31796   0.44148   0.69958   0.00000  Uiso   1.00
C69    C     0.30518   0.33609   0.64410   0.00000  Uiso   1.00
H70    H     0.41492   0.97381   0.83518   0.00000  Uiso   1.00
H71    H     0.50855   0.07891   0.89243   0.00000  Uiso   1.00
H72    H     0.37282   0.86002   0.90413   0.00000  Uiso   1.00
H73    H     0.36837   0.93172   0.71003   0.00000  Uiso   1.00
H74    H     0.60444   0.27540   0.95428   0.00000  Uiso   1.00
H75    H     0.31825   0.81386   0.97894   0.00000  Uiso   1.00
H76    H     0.30886   0.96503   0.56965   0.00000  Uiso   1.00
H77    H     0.35398   0.59010   0.82257   0.00000  Uiso   1.00
H78    H     0.44427   0.72902   0.87912   0.00000  Uiso   1.00
H79    H     0.30854   0.51013   0.89083   0.00000  Uiso   1.00
H80    H     0.30409   0.58183   0.69673   0.00000  Uiso   1.00
H81    H     0.55227   0.80306   0.94349   0.00000  Uiso   1.00
H82    H     0.26608   0.34150   0.96814   0.00000  Uiso   1.00
H83    H     0.25669   0.49269   0.55885   0.00000  Uiso   1.00
O84    O     0.63885   0.61949   0.98634   0.00000  Uiso   1.00
O85    O     0.26337   0.01395   0.01867   0.00000  Uiso   1.00
O86    O     0.25106   0.21230   0.48169   0.00000  Uiso   1.00
N87    N     0.57977   0.38053   0.94397   0.00000  Uiso   1.00
N88    N     0.31221   0.94901   0.96703   0.00000  Uiso   1.00
N89    N     0.30342   0.09033   0.58438   0.00000  Uiso   1.00
N90    N     0.55170   0.66445   0.93816   0.00000  Uiso   1.00
N91    N     0.28414   0.23294   0.96122   0.00000  Uiso   1.00
N92    N     0.27535   0.37426   0.57856   0.00000  Uiso   1.00
C93    C     0.09904   0.61500   0.16771   0.00000  Uiso   1.00
C94    C     0.05662   0.75757   0.13836   0.00000  Uiso   1.00
C95    C     0.00532   0.71928   0.11044   0.00000  Uiso   1.00
C96    C     0.97254   0.86895   0.08633   0.00000  Uiso   1.00
C97    C     0.90394   0.06272   0.04016   0.00000  Uiso   1.00
C98    C     0.13036   0.63865   0.13199   0.00000  Uiso   1.00
C99    C     0.14106   0.50036   0.09873   0.00000  Uiso   1.00
C100   C     0.17035   0.54992   0.06926   0.00000  Uiso   1.00
C101   C     0.21626   0.55903   0.01325   0.00000  Uiso   1.00
C102   C     0.13277   0.67760   0.23745   0.00000  Uiso   1.00
C103   C     0.14551   0.57206   0.29286   0.00000  Uiso   1.00
C104   C     0.17685   0.65440   0.35218   0.00000  Uiso   1.00
C105   C     0.22651   0.72400   0.45991   0.00000  Uiso   1.00
C106   C     0.13206   0.94890   0.17454   0.00000  Uiso   1.00
C107   C     0.07456   0.93892   0.14207   0.00000  Uiso   1.00
C108   C     0.04184   0.08869   0.11800   0.00000  Uiso   1.00
C109   C     0.99050   0.05063   0.09005   0.00000  Uiso   1.00
C110   C     0.14829   0.82000   0.13570   0.00000  Uiso   1.00
C111   C     0.17758   0.86977   0.10629   0.00000  Uiso   1.00
C112   C     0.18832   0.73160   0.07298   0.00000  Uiso   1.00
C113   C     0.15071   0.85896   0.24117   0.00000  Uiso   1.00
C114   C     0.18204   0.94148   0.30042   0.00000  Uiso   1.00
C115   C     0.19482   0.83609   0.35590   0.00000  Uiso   1.00
H116   H     0.08508   0.47381   0.16482   0.00000  Uiso   1.00
H117   H     0.99145   0.57891   0.10757   0.00000  Uiso   1.00
H118   H     0.12718   0.36002   0.09587   0.00000  Uiso   1.00
H119   H     0.13163   0.43172   0.28997   0.00000  Uiso   1.00
H120   H     0.89556   0.77540   0.04572   0.00000  Uiso   1.00
H121   H     0.18175   0.31386   0.02106   0.00000  Uiso   1.00
H122   H     0.19114   0.46503   0.43035   0.00000  Uiso   1.00
H123   H     0.14602   0.09010   0.17743   0.00000  Uiso   1.00
H124   H     0.05573   0.22902   0.12088   0.00000  Uiso   1.00
H125   H     0.19146   0.01013   0.10917   0.00000  Uiso   1.00
H126   H     0.19591   0.08183   0.30327   0.00000  Uiso   1.00
H127   H     0.94773   0.30306   0.05651   0.00000  Uiso   1.00
H128   H     0.23392   0.84150   0.03186   0.00000  Uiso   1.00
H129   H     0.24331   0.99269   0.44115   0.00000  Uiso   1.00
O130   O     0.86115   0.11949   0.01366   0.00000  Uiso   1.00
O131   O     0.23663   0.51395   0.98133   0.00000  Uiso   1.00
O132   O     0.24894   0.71230   0.51831   0.00000  Uiso   1.00
N133   N     0.92023   0.88053   0.05603   0.00000  Uiso   1.00
N134   N     0.18779   0.44901   0.03297   0.00000  Uiso   1.00
N135   N     0.19658   0.59033   0.41562   0.00000  Uiso   1.00
N136   N     0.94830   0.16445   0.06184   0.00000  Uiso   1.00
N137   N     0.21586   0.73294   0.03878   0.00000  Uiso   1.00
N138   N     0.22465   0.87426   0.42144   0.00000  Uiso   1.00
C139   C     0.59904   0.11500   0.16771   0.00000  Uiso   1.00
C140   C     0.55662   0.25757   0.13836   0.00000  Uiso   1.00
C141   C     0.50532   0.21928   0.11044   0.00000  Uiso   1.00
C142   C     0.47254   0.36895   0.08633   0.00000  Uiso   1.00
C143   C     0.40394   0.56272   0.04016   0.00000  Uiso   1.00
C144   C     0.63036   0.13865   0.13199   0.00000  Uiso   1.00
C145   C     0.64106   0.00036   0.09873   0.00000  Uiso   1.00
C146   C     0.67035   0.04992   0.06926   0.00000  Uiso   1.00
C147   C     0.71626   0.05903   0.01325   0.00000  Uiso   1.00
C148   C     0.63277   0.17760   0.23745   0.00000  Uiso   1.00
C149   C     0.64551   0.07206   0.29286   0.00000  Uiso   1.00
C150   C     0.67685   0.15440   0.35218   0.00000  Uiso   1.00
C151   C     0.72651   0.22400   0.45991   0.00000  Uiso   1.00
C152   C     0.63206   0.44890   0.17454   0.00000  Uiso   1.00
C153   C     0.57456   0.43892   0.14207   0.00000  Uiso   1.00
C154   C     0.54184   0.58869   0.11800   0.00000  Uiso   1.00
C155   C     0.49050   0.55063   0.09005   0.00000  Uiso   1.00
C156   C     0.64829   0.32000   0.13570   0.00000  Uiso   1.00
C157   C     0.67758   0.36977   0.10629   0.00000  Uiso   1.00
C158   C     0.68832   0.23160   0.07298   0.00000  Uiso   1.00
C159   C     0.65071   0.35896   0.24117   0.00000  Uiso   1.00
C160   C     0.68204   0.44148   0.30042   0.00000  Uiso   1.00
C161   C     0.69482   0.33609   0.35590   0.00000  Uiso   1.00
H162   H     0.58508   0.97381   0.16482   0.00000  Uiso   1.00
H163   H     0.49145   0.07891   0.10757   0.00000  Uiso   1.00
H164   H     0.62718   0.86002   0.09587   0.00000  Uiso   1.00
H165   H     0.63163   0.93172   0.28997   0.00000  Uiso   1.00
H166   H     0.39556   0.27540   0.04572   0.00000  Uiso   1.00
H167   H     0.68175   0.81386   0.02106   0.00000  Uiso   1.00
H168   H     0.69114   0.96503   0.43035   0.00000  Uiso   1.00
H169   H     0.64602   0.59010   0.17743   0.00000  Uiso   1.00
H170   H     0.55573   0.72902   0.12088   0.00000  Uiso   1.00
H171   H     0.69146   0.51013   0.10917   0.00000  Uiso   1.00
H172   H     0.69591   0.58183   0.30327   0.00000  Uiso   1.00
H173   H     0.44773   0.80306   0.05651   0.00000  Uiso   1.00
H174   H     0.73392   0.34150   0.03186   0.00000  Uiso   1.00
H175   H     0.74331   0.49269   0.44115   0.00000  Uiso   1.00
O176   O     0.36115   0.61949   0.01366   0.00000  Uiso   1.00
O177   O     0.73663   0.01395   0.98133   0.00000  Uiso   1.00
O178   O     0.74894   0.21230   0.51831   0.00000  Uiso   1.00
N179   N     0.42023   0.38053   0.05603   0.00000  Uiso   1.00
N180   N     0.68779   0.94901   0.03297   0.00000  Uiso   1.00
N181   N     0.69658   0.09033   0.41562   0.00000  Uiso   1.00
N182   N     0.44830   0.66445   0.06184   0.00000  Uiso   1.00
N183   N     0.71586   0.23294   0.03878   0.00000  Uiso   1.00
N184   N     0.72465   0.37426   0.42144   0.00000  Uiso   1.00
