data_job_00633
_audit_creation_date              2018-12-19
_audit_creation_method            'Materials Studio'
_symmetry_space_group_name_H-M    'P1'
_symmetry_Int_Tables_number       1
_symmetry_cell_setting            triclinic
loop_
_symmetry_equiv_pos_as_xyz
  x,y,z
_cell_length_a                    17.6064
_cell_length_b                    22.4050
_cell_length_c                    12.5090
_cell_angle_alpha                 85.2551
_cell_angle_beta                  89.3220
_cell_angle_gamma                 93.6041
loop_
_atom_site_label
_atom_site_type_symbol
_atom_site_fract_x
_atom_site_fract_y
_atom_site_fract_z
_atom_site_U_iso_or_equiv
_atom_site_adp_type
_atom_site_occupancy
C1     C     0.18170   0.04922   0.13248   0.00000  Uiso   1.00
C2     C     0.24725   0.04047   0.20964   0.00000  Uiso   1.00
C3     C     0.26417   0.07449   0.29509   0.00000  Uiso   1.00
C4     C     0.32652   0.05938   0.35618   0.00000  Uiso   1.00
C5     C     0.42166   0.05303   0.47956   0.00000  Uiso   1.00
C6     C     0.21768   0.05819   0.02034   0.00000  Uiso   1.00
C7     C     0.20972   0.10710   0.94662   0.00000  Uiso   1.00
C8     C     0.24717   0.10690   0.84836   0.00000  Uiso   1.00
C9     C     0.29635   0.12803   0.67782   0.00000  Uiso   1.00
C10    C     0.13545   0.98915   0.13767   0.00000  Uiso   1.00
C11    C     0.05835   0.98001   0.16257   0.00000  Uiso   1.00
C12    C     0.02657   0.92168   0.16307   0.00000  Uiso   1.00
C13    C     0.94808   0.83562   0.17469   0.00000  Uiso   1.00
C14    C     0.26235   0.96188   0.08904   0.00000  Uiso   1.00
C15    C     0.29105   0.99303   0.18604   0.00000  Uiso   1.00
C16    C     0.35339   0.97786   0.24703   0.00000  Uiso   1.00
C17    C     0.37040   0.01185   0.33255   0.00000  Uiso   1.00
C18    C     0.26148   0.01075   0.99675   0.00000  Uiso   1.00
C19    C     0.29895   0.01047   0.89857   0.00000  Uiso   1.00
C20    C     0.29106   0.05937   0.82472   0.00000  Uiso   1.00
C21    C     0.17926   0.94171   0.11408   0.00000  Uiso   1.00
C22    C     0.14758   0.88338   0.11452   0.00000  Uiso   1.00
C23    C     0.07045   0.87416   0.13943   0.00000  Uiso   1.00
H24    H     0.14760   0.08615   0.15084   0.00000  Uiso   1.00
H25    H     0.23026   0.11121   0.31331   0.00000  Uiso   1.00
H26    H     0.17582   0.14380   0.96490   0.00000  Uiso   1.00
H27    H     0.02448   0.01673   0.18083   0.00000  Uiso   1.00
H28    H     0.34124   0.11807   0.48302   0.00000  Uiso   1.00
H29    H     0.22642   0.18680   0.74836   0.00000  Uiso   1.00
H30    H     0.90728   0.91885   0.20368   0.00000  Uiso   1.00
H31    H     0.29645   0.92494   0.07067   0.00000  Uiso   1.00
H32    H     0.38728   0.94115   0.22875   0.00000  Uiso   1.00
H33    H     0.33284   0.97375   0.88033   0.00000  Uiso   1.00
H34    H     0.18150   0.84668   0.09626   0.00000  Uiso   1.00
H35    H     0.46868   0.98005   0.41438   0.00000  Uiso   1.00
H36    H     0.35386   0.04878   0.67972   0.00000  Uiso   1.00
H37    H     0.03473   0.78082   0.13504   0.00000  Uiso   1.00
O38    O     0.46204   0.06264   0.55411   0.00000  Uiso   1.00
O39    O     0.31138   0.15280   0.59027   0.00000  Uiso   1.00
O40    O     0.89269   0.80126   0.18764   0.00000  Uiso   1.00
N41    N     0.35876   0.08336   0.44518   0.00000  Uiso   1.00
N42    N     0.25142   0.14762   0.75833   0.00000  Uiso   1.00
N43    N     0.95305   0.89711   0.18398   0.00000  Uiso   1.00
N44    N     0.42733   0.00909   0.40825   0.00000  Uiso   1.00
N45    N     0.31999   0.07335   0.72140   0.00000  Uiso   1.00
N46    N     0.02163   0.82284   0.14705   0.00000  Uiso   1.00
C47    C     0.68192   0.45323   0.89512   0.00000  Uiso   1.00
C48    C     0.74781   0.46088   0.81390   0.00000  Uiso   1.00
C49    C     0.75599   0.42754   0.72627   0.00000  Uiso   1.00
C50    C     0.82032   0.44144   0.66154   0.00000  Uiso   1.00
C51    C     0.91441   0.44637   0.53209   0.00000  Uiso   1.00
C52    C     0.71771   0.44191   0.00476   0.00000  Uiso   1.00
C53    C     0.70057   0.39262   0.07760   0.00000  Uiso   1.00
C54    C     0.73955   0.39055   0.17355   0.00000  Uiso   1.00
C55    C     0.78686   0.36605   0.34044   0.00000  Uiso   1.00
C56    C     0.64857   0.51443   0.89470   0.00000  Uiso   1.00
C57    C     0.57330   0.52611   0.87503   0.00000  Uiso   1.00
C58    C     0.55407   0.58509   0.87833   0.00000  Uiso   1.00
C59    C     0.49404   0.67319   0.87434   0.00000  Uiso   1.00
C60    C     0.78161   0.53721   0.93599   0.00000  Uiso   1.00
C61    C     0.80196   0.50650   0.83611   0.00000  Uiso   1.00
C62    C     0.86629   0.52045   0.77149   0.00000  Uiso   1.00
C63    C     0.87456   0.48713   0.68377   0.00000  Uiso   1.00
C64    C     0.77185   0.48752   0.02697   0.00000  Uiso   1.00
C65    C     0.81086   0.48553   0.12283   0.00000  Uiso   1.00
C66    C     0.79379   0.43625   0.19579   0.00000  Uiso   1.00
C67    C     0.70272   0.56004   0.91690   0.00000  Uiso   1.00
C68    C     0.68360   0.61902   0.92024   0.00000  Uiso   1.00
C69    C     0.60831   0.63079   0.90057   0.00000  Uiso   1.00
H70    H     0.63976   0.41771   0.87784   0.00000  Uiso   1.00
H71    H     0.71408   0.39224   0.70912   0.00000  Uiso   1.00
H72    H     0.65866   0.35733   0.06040   0.00000  Uiso   1.00
H73    H     0.53141   0.49080   0.85785   0.00000  Uiso   1.00
H74    H     0.82036   0.38410   0.53188   0.00000  Uiso   1.00
H75    H     0.70348   0.31050   0.27259   0.00000  Uiso   1.00
H76    H     0.43516   0.59194   0.84548   0.00000  Uiso   1.00
H77    H     0.82377   0.57272   0.95328   0.00000  Uiso   1.00
H78    H     0.90818   0.55575   0.78869   0.00000  Uiso   1.00
H79    H     0.85276   0.52084   0.13998   0.00000  Uiso   1.00
H80    H     0.72552   0.65431   0.93743   0.00000  Uiso   1.00
H81    H     0.97791   0.51681   0.59646   0.00000  Uiso   1.00
H82    H     0.86102   0.44321   0.33719   0.00000  Uiso   1.00
H83    H     0.59270   0.72466   0.91007   0.00000  Uiso   1.00
O84    O     0.95135   0.43648   0.45456   0.00000  Uiso   1.00
O85    O     0.79800   0.33993   0.42636   0.00000  Uiso   1.00
O86    O     0.44597   0.70918   0.86599   0.00000  Uiso   1.00
N87    N     0.84585   0.41767   0.56965   0.00000  Uiso   1.00
N88    N     0.73658   0.34885   0.26217   0.00000  Uiso   1.00
N89    N     0.48572   0.61198   0.86288   0.00000  Uiso   1.00
N90    N     0.93062   0.48908   0.60440   0.00000  Uiso   1.00
N91    N     0.82135   0.42026   0.29693   0.00000  Uiso   1.00
N92    N     0.57049   0.68339   0.89764   0.00000  Uiso   1.00
C93    C     0.92072   0.16959   0.36013   0.00000  Uiso   1.00
C94    C     0.86389   0.19059   0.27626   0.00000  Uiso   1.00
C95    C     0.88216   0.21891   0.17553   0.00000  Uiso   1.00
C96    C     0.82194   0.23460   0.11059   0.00000  Uiso   1.00
C97    C     0.74523   0.26910   0.97511   0.00000  Uiso   1.00
C98    C     0.90202   0.20000   0.46100   0.00000  Uiso   1.00
C99    C     0.95235   0.23623   0.51562   0.00000  Uiso   1.00
C100   C     0.92423   0.25983   0.60621   0.00000  Uiso   1.00
C101   C     0.90674   0.30890   0.75759   0.00000  Uiso   1.00
C102   C     0.90069   0.10277   0.38684   0.00000  Uiso   1.00
C103   C     0.94990   0.05724   0.37913   0.00000  Uiso   1.00
C104   C     0.92065   0.99899   0.40731   0.00000  Uiso   1.00
C105   C     0.90108   0.89709   0.44355   0.00000  Uiso   1.00
C106   C     0.78129   0.14711   0.42391   0.00000  Uiso   1.00
C107   C     0.78816   0.17838   0.31090   0.00000  Uiso   1.00
C108   C     0.72790   0.19403   0.24610   0.00000  Uiso   1.00
C109   C     0.74607   0.22237   0.14529   0.00000  Uiso   1.00
C110   C     0.82630   0.18779   0.49565   0.00000  Uiso   1.00
C111   C     0.79810   0.21135   0.58618   0.00000  Uiso   1.00
C112   C     0.84837   0.24760   0.64091   0.00000  Uiso   1.00
C113   C     0.82496   0.09056   0.42148   0.00000  Uiso   1.00
C114   C     0.79564   0.03237   0.44969   0.00000  Uiso   1.00
C115   C     0.84479   0.98675   0.44202   0.00000  Uiso   1.00
H116   H     0.97967   0.17910   0.33317   0.00000  Uiso   1.00
H117   H     0.94077   0.22836   0.14876   0.00000  Uiso   1.00
H118   H     0.01095   0.24566   0.48880   0.00000  Uiso   1.00
H119   H     0.00849   0.06671   0.35232   0.00000  Uiso   1.00
H120   H     0.86424   0.27760   0.95960   0.00000  Uiso   1.00
H121   H     0.01224   0.31408   0.67661   0.00000  Uiso   1.00
H122   H     0.00705   0.93672   0.38883   0.00000  Uiso   1.00
H123   H     0.72233   0.13760   0.45088   0.00000  Uiso   1.00
H124   H     0.66930   0.18457   0.27293   0.00000  Uiso   1.00
H125   H     0.73949   0.20188   0.61297   0.00000  Uiso   1.00
H126   H     0.73703   0.02293   0.47649   0.00000  Uiso   1.00
H127   H     0.64391   0.24207   0.06038   0.00000  Uiso   1.00
H128   H     0.79191   0.27854   0.77740   0.00000  Uiso   1.00
H129   H     0.78672   0.90118   0.48961   0.00000  Uiso   1.00
O130   O     0.72383   0.29151   0.89081   0.00000  Uiso   1.00
O131   O     0.91801   0.33935   0.83152   0.00000  Uiso   1.00
O132   O     0.91120   0.84426   0.45395   0.00000  Uiso   1.00
N133   N     0.81966   0.26278   0.00773   0.00000  Uiso   1.00
N134   N     0.95803   0.29689   0.67808   0.00000  Uiso   1.00
N135   N     0.95319   0.94409   0.40906   0.00000  Uiso   1.00
N136   N     0.70110   0.24366   0.06196   0.00000  Uiso   1.00
N137   N     0.83947   0.27777   0.73231   0.00000  Uiso   1.00
N138   N     0.83463   0.92497   0.46329   0.00000  Uiso   1.00
C139   C     0.33042   0.34850   0.63778   0.00000  Uiso   1.00
C140   C     0.26361   0.34248   0.71746   0.00000  Uiso   1.00
C141   C     0.26039   0.30809   0.81511   0.00000  Uiso   1.00
C142   C     0.19422   0.30850   0.87644   0.00000  Uiso   1.00
C143   C     0.09970   0.29401   0.00550   0.00000  Uiso   1.00
C144   C     0.29831   0.32995   0.53191   0.00000  Uiso   1.00
C145   C     0.32428   0.28503   0.47354   0.00000  Uiso   1.00
C146   C     0.28732   0.27491   0.37866   0.00000  Uiso   1.00
C147   C     0.24672   0.24099   0.21960   0.00000  Uiso   1.00
C148   C     0.35271   0.41548   0.61960   0.00000  Uiso   1.00
C149   C     0.42442   0.44249   0.63493   0.00000  Uiso   1.00
C150   C     0.43326   0.50438   0.61386   0.00000  Uiso   1.00
C151   C     0.47712   0.60328   0.59095   0.00000  Uiso   1.00
C152   C     0.21861   0.41038   0.57305   0.00000  Uiso   1.00
C153   C     0.20288   0.37608   0.68230   0.00000  Uiso   1.00
C154   C     0.13669   0.37655   0.74350   0.00000  Uiso   1.00
C155   C     0.13338   0.34217   0.84123   0.00000  Uiso   1.00
C156   C     0.23758   0.36355   0.49675   0.00000  Uiso   1.00
C157   C     0.20058   0.35349   0.40193   0.00000  Uiso   1.00
C158   C     0.22648   0.30857   0.34344   0.00000  Uiso   1.00
C159   C     0.29198   0.44909   0.58444   0.00000  Uiso   1.00
C160   C     0.30071   0.51095   0.56333   0.00000  Uiso   1.00
C161   C     0.37242   0.53805   0.57863   0.00000  Uiso   1.00
H162   H     0.37770   0.32234   0.66514   0.00000  Uiso   1.00
H163   H     0.30740   0.28209   0.84229   0.00000  Uiso   1.00
H164   H     0.37129   0.25904   0.50076   0.00000  Uiso   1.00
H165   H     0.47140   0.41647   0.66214   0.00000  Uiso   1.00
H166   H     0.20267   0.25226   0.02317   0.00000  Uiso   1.00
H167   H     0.33739   0.20368   0.30303   0.00000  Uiso   1.00
H168   H     0.54851   0.53566   0.64331   0.00000  Uiso   1.00
H169   H     0.17133   0.43654   0.54568   0.00000  Uiso   1.00
H170   H     0.08970   0.40256   0.71628   0.00000  Uiso   1.00
H171   H     0.15359   0.37951   0.37475   0.00000  Uiso   1.00
H172   H     0.25370   0.53694   0.53612   0.00000  Uiso   1.00
H173   H     0.02598   0.35004   0.92089   0.00000  Uiso   1.00
H174   H     0.16070   0.30146   0.20074   0.00000  Uiso   1.00
H175   H     0.37182   0.63344   0.54103   0.00000  Uiso   1.00
O176   O     0.06434   0.27672   0.08639   0.00000  Uiso   1.00
O177   O     0.24110   0.21299   0.14159   0.00000  Uiso   1.00
O178   O     0.51808   0.64854   0.58804   0.00000  Uiso   1.00
N179   N     0.17229   0.27995   0.97569   0.00000  Uiso   1.00
N180   N     0.29824   0.23452   0.30241   0.00000  Uiso   1.00
N181   N     0.49563   0.54489   0.62052   0.00000  Uiso   1.00
N182   N     0.07722   0.33257   0.92066   0.00000  Uiso   1.00
N183   N     0.20317   0.28713   0.24738   0.00000  Uiso   1.00
N184   N     0.40055   0.59751   0.56549   0.00000  Uiso   1.00
C185   C     0.81830   0.95078   0.86752   0.00000  Uiso   1.00
C186   C     0.75275   0.95953   0.79036   0.00000  Uiso   1.00
C187   C     0.73583   0.92551   0.70491   0.00000  Uiso   1.00
C188   C     0.67348   0.94062   0.64382   0.00000  Uiso   1.00
C189   C     0.57834   0.94697   0.52044   0.00000  Uiso   1.00
C190   C     0.78232   0.94181   0.97966   0.00000  Uiso   1.00
C191   C     0.79028   0.89290   0.05338   0.00000  Uiso   1.00
C192   C     0.75283   0.89310   0.15164   0.00000  Uiso   1.00
C193   C     0.70365   0.87197   0.32218   0.00000  Uiso   1.00
C194   C     0.86455   0.01085   0.86233   0.00000  Uiso   1.00
C195   C     0.94165   0.01999   0.83743   0.00000  Uiso   1.00
C196   C     0.97343   0.07832   0.83693   0.00000  Uiso   1.00
C197   C     0.05192   0.16438   0.82531   0.00000  Uiso   1.00
C198   C     0.73765   0.03812   0.91096   0.00000  Uiso   1.00
C199   C     0.70895   0.00697   0.81396   0.00000  Uiso   1.00
C200   C     0.64661   0.02214   0.75297   0.00000  Uiso   1.00
C201   C     0.62960   0.98815   0.66745   0.00000  Uiso   1.00
C202   C     0.73852   0.98925   0.00325   0.00000  Uiso   1.00
C203   C     0.70105   0.98953   0.10143   0.00000  Uiso   1.00
C204   C     0.70894   0.94063   0.17528   0.00000  Uiso   1.00
C205   C     0.82074   0.05829   0.88592   0.00000  Uiso   1.00
C206   C     0.85242   0.11662   0.88548   0.00000  Uiso   1.00
C207   C     0.92955   0.12584   0.86057   0.00000  Uiso   1.00
H208   H     0.85240   0.91385   0.84916   0.00000  Uiso   1.00
H209   H     0.76974   0.88879   0.68669   0.00000  Uiso   1.00
H210   H     0.82418   0.85620   0.03510   0.00000  Uiso   1.00
H211   H     0.97552   0.98327   0.81917   0.00000  Uiso   1.00
H212   H     0.65876   0.88193   0.51698   0.00000  Uiso   1.00
H213   H     0.77358   0.81320   0.25164   0.00000  Uiso   1.00
H214   H     0.09272   0.08115   0.79632   0.00000  Uiso   1.00
H215   H     0.70355   0.07506   0.92933   0.00000  Uiso   1.00
H216   H     0.61272   0.05885   0.77125   0.00000  Uiso   1.00
H217   H     0.66716   0.02625   0.11967   0.00000  Uiso   1.00
H218   H     0.81850   0.15332   0.90374   0.00000  Uiso   1.00
H219   H     0.53132   0.01995   0.58562   0.00000  Uiso   1.00
H220   H     0.64614   0.95122   0.32028   0.00000  Uiso   1.00
H221   H     0.96527   0.21918   0.86496   0.00000  Uiso   1.00
O222   O     0.53796   0.93736   0.44589   0.00000  Uiso   1.00
O223   O     0.68862   0.84720   0.40973   0.00000  Uiso   1.00
O224   O     0.10731   0.19874   0.81236   0.00000  Uiso   1.00
N225   N     0.64124   0.91664   0.55482   0.00000  Uiso   1.00
N226   N     0.74858   0.85238   0.24167   0.00000  Uiso   1.00
N227   N     0.04695   0.10289   0.81602   0.00000  Uiso   1.00
N228   N     0.57267   0.99091   0.59175   0.00000  Uiso   1.00
N229   N     0.68001   0.92665   0.27860   0.00000  Uiso   1.00
N230   N     0.97837   0.17716   0.85295   0.00000  Uiso   1.00
C231   C     0.31808   0.54677   0.10488   0.00000  Uiso   1.00
C232   C     0.25219   0.53912   0.18610   0.00000  Uiso   1.00
C233   C     0.24401   0.57246   0.27373   0.00000  Uiso   1.00
C234   C     0.17968   0.55856   0.33846   0.00000  Uiso   1.00
C235   C     0.08559   0.55363   0.46791   0.00000  Uiso   1.00
C236   C     0.28229   0.55809   0.99524   0.00000  Uiso   1.00
C237   C     0.29943   0.60738   0.92240   0.00000  Uiso   1.00
C238   C     0.26045   0.60945   0.82645   0.00000  Uiso   1.00
C239   C     0.21314   0.63395   0.65956   0.00000  Uiso   1.00
C240   C     0.35143   0.48557   0.10530   0.00000  Uiso   1.00
C241   C     0.42670   0.47389   0.12497   0.00000  Uiso   1.00
C242   C     0.44593   0.41491   0.12167   0.00000  Uiso   1.00
C243   C     0.50596   0.32681   0.12566   0.00000  Uiso   1.00
C244   C     0.21839   0.46279   0.06401   0.00000  Uiso   1.00
C245   C     0.19804   0.49350   0.16389   0.00000  Uiso   1.00
C246   C     0.13371   0.47955   0.22851   0.00000  Uiso   1.00
C247   C     0.12544   0.51287   0.31623   0.00000  Uiso   1.00
C248   C     0.22815   0.51248   0.97303   0.00000  Uiso   1.00
C249   C     0.18914   0.51447   0.87717   0.00000  Uiso   1.00
C250   C     0.20621   0.56375   0.80421   0.00000  Uiso   1.00
C251   C     0.29728   0.43996   0.08310   0.00000  Uiso   1.00
C252   C     0.31640   0.38098   0.07976   0.00000  Uiso   1.00
C253   C     0.39169   0.36921   0.09943   0.00000  Uiso   1.00
H254   H     0.36024   0.58229   0.12216   0.00000  Uiso   1.00
H255   H     0.28592   0.60776   0.29088   0.00000  Uiso   1.00
H256   H     0.34134   0.64267   0.93960   0.00000  Uiso   1.00
H257   H     0.46859   0.50920   0.14215   0.00000  Uiso   1.00
H258   H     0.17964   0.61590   0.46812   0.00000  Uiso   1.00
H259   H     0.29652   0.68950   0.72741   0.00000  Uiso   1.00
H260   H     0.56484   0.40806   0.15452   0.00000  Uiso   1.00
H261   H     0.17623   0.42728   0.04672   0.00000  Uiso   1.00
H262   H     0.09182   0.44425   0.21131   0.00000  Uiso   1.00
H263   H     0.14724   0.47916   0.86002   0.00000  Uiso   1.00
H264   H     0.27448   0.34569   0.06257   0.00000  Uiso   1.00
H265   H     0.02209   0.48319   0.40354   0.00000  Uiso   1.00
H266   H     0.13898   0.55679   0.66281   0.00000  Uiso   1.00
H267   H     0.40730   0.27534   0.08993   0.00000  Uiso   1.00
O268   O     0.04865   0.56352   0.54544   0.00000  Uiso   1.00
O269   O     0.20200   0.66007   0.57364   0.00000  Uiso   1.00
O270   O     0.55403   0.29082   0.13401   0.00000  Uiso   1.00
N271   N     0.15415   0.58233   0.43035   0.00000  Uiso   1.00
N272   N     0.26342   0.65115   0.73783   0.00000  Uiso   1.00
N273   N     0.51428   0.38802   0.13712   0.00000  Uiso   1.00
N274   N     0.06938   0.51092   0.39560   0.00000  Uiso   1.00
N275   N     0.17865   0.57974   0.70307   0.00000  Uiso   1.00
N276   N     0.42951   0.31661   0.10236   0.00000  Uiso   1.00
C277   C     0.07928   0.83041   0.63987   0.00000  Uiso   1.00
C278   C     0.13611   0.80941   0.72374   0.00000  Uiso   1.00
C279   C     0.11784   0.78109   0.82447   0.00000  Uiso   1.00
C280   C     0.17806   0.76540   0.88941   0.00000  Uiso   1.00
C281   C     0.25477   0.73090   0.02489   0.00000  Uiso   1.00
C282   C     0.09798   0.80000   0.53900   0.00000  Uiso   1.00
C283   C     0.04765   0.76377   0.48438   0.00000  Uiso   1.00
C284   C     0.07577   0.74017   0.39379   0.00000  Uiso   1.00
C285   C     0.09326   0.69110   0.24241   0.00000  Uiso   1.00
C286   C     0.09931   0.89723   0.61316   0.00000  Uiso   1.00
C287   C     0.05010   0.94276   0.62087   0.00000  Uiso   1.00
C288   C     0.07935   0.00101   0.59269   0.00000  Uiso   1.00
C289   C     0.09892   0.10291   0.55645   0.00000  Uiso   1.00
C290   C     0.21871   0.85289   0.57609   0.00000  Uiso   1.00
C291   C     0.21184   0.82162   0.68910   0.00000  Uiso   1.00
C292   C     0.27210   0.80597   0.75390   0.00000  Uiso   1.00
C293   C     0.25393   0.77763   0.85471   0.00000  Uiso   1.00
C294   C     0.17370   0.81221   0.50435   0.00000  Uiso   1.00
C295   C     0.20190   0.78865   0.41382   0.00000  Uiso   1.00
C296   C     0.15163   0.75240   0.35909   0.00000  Uiso   1.00
C297   C     0.17504   0.90944   0.57852   0.00000  Uiso   1.00
C298   C     0.20436   0.96763   0.55031   0.00000  Uiso   1.00
C299   C     0.15521   0.01325   0.55798   0.00000  Uiso   1.00
H300   H     0.02033   0.82090   0.66683   0.00000  Uiso   1.00
H301   H     0.05923   0.77164   0.85124   0.00000  Uiso   1.00
H302   H     0.98905   0.75434   0.51120   0.00000  Uiso   1.00
H303   H     0.99151   0.93329   0.64768   0.00000  Uiso   1.00
H304   H     0.13576   0.72240   0.04040   0.00000  Uiso   1.00
H305   H     0.98776   0.68592   0.32339   0.00000  Uiso   1.00
H306   H     0.99295   0.06328   0.61117   0.00000  Uiso   1.00
H307   H     0.27767   0.86240   0.54912   0.00000  Uiso   1.00
H308   H     0.33070   0.81543   0.72707   0.00000  Uiso   1.00
H309   H     0.26051   0.79812   0.38703   0.00000  Uiso   1.00
H310   H     0.26297   0.97707   0.52351   0.00000  Uiso   1.00
H311   H     0.35609   0.75793   0.93962   0.00000  Uiso   1.00
H312   H     0.20809   0.72146   0.22260   0.00000  Uiso   1.00
H313   H     0.21328   0.09882   0.51039   0.00000  Uiso   1.00
O314   O     0.27617   0.70849   0.10919   0.00000  Uiso   1.00
O315   O     0.08199   0.66065   0.16848   0.00000  Uiso   1.00
O316   O     0.08880   0.15574   0.54605   0.00000  Uiso   1.00
N317   N     0.18034   0.73722   0.99227   0.00000  Uiso   1.00
N318   N     0.04197   0.70311   0.32192   0.00000  Uiso   1.00
N319   N     0.04681   0.05591   0.59094   0.00000  Uiso   1.00
N320   N     0.29890   0.75634   0.93804   0.00000  Uiso   1.00
N321   N     0.16053   0.72223   0.26769   0.00000  Uiso   1.00
N322   N     0.16537   0.07503   0.53671   0.00000  Uiso   1.00
C323   C     0.66958   0.65150   0.36222   0.00000  Uiso   1.00
C324   C     0.73639   0.65752   0.28254   0.00000  Uiso   1.00
C325   C     0.73961   0.69191   0.18489   0.00000  Uiso   1.00
C326   C     0.80578   0.69150   0.12356   0.00000  Uiso   1.00
C327   C     0.90030   0.70599   0.99450   0.00000  Uiso   1.00
C328   C     0.70169   0.67005   0.46809   0.00000  Uiso   1.00
C329   C     0.67572   0.71497   0.52646   0.00000  Uiso   1.00
C330   C     0.71268   0.72509   0.62134   0.00000  Uiso   1.00
C331   C     0.75328   0.75901   0.78040   0.00000  Uiso   1.00
C332   C     0.64729   0.58452   0.38040   0.00000  Uiso   1.00
C333   C     0.57558   0.55751   0.36507   0.00000  Uiso   1.00
C334   C     0.56674   0.49562   0.38614   0.00000  Uiso   1.00
C335   C     0.52288   0.39672   0.40905   0.00000  Uiso   1.00
C336   C     0.78139   0.58962   0.42695   0.00000  Uiso   1.00
C337   C     0.79712   0.62392   0.31770   0.00000  Uiso   1.00
C338   C     0.86331   0.62345   0.25650   0.00000  Uiso   1.00
C339   C     0.86662   0.65783   0.15877   0.00000  Uiso   1.00
C340   C     0.76242   0.63645   0.50325   0.00000  Uiso   1.00
C341   C     0.79942   0.64651   0.59807   0.00000  Uiso   1.00
C342   C     0.77352   0.69143   0.65656   0.00000  Uiso   1.00
C343   C     0.70802   0.55091   0.41556   0.00000  Uiso   1.00
C344   C     0.69929   0.48905   0.43667   0.00000  Uiso   1.00
C345   C     0.62758   0.46195   0.42137   0.00000  Uiso   1.00
H346   H     0.62230   0.67766   0.33486   0.00000  Uiso   1.00
H347   H     0.69260   0.71791   0.15771   0.00000  Uiso   1.00
H348   H     0.62871   0.74096   0.49924   0.00000  Uiso   1.00
H349   H     0.52860   0.58353   0.33786   0.00000  Uiso   1.00
H350   H     0.79733   0.74774   0.97683   0.00000  Uiso   1.00
H351   H     0.66261   0.79632   0.69697   0.00000  Uiso   1.00
H352   H     0.45149   0.46434   0.35669   0.00000  Uiso   1.00
H353   H     0.82867   0.56346   0.45432   0.00000  Uiso   1.00
H354   H     0.91030   0.59744   0.28372   0.00000  Uiso   1.00
H355   H     0.84641   0.62049   0.62525   0.00000  Uiso   1.00
H356   H     0.74630   0.46306   0.46388   0.00000  Uiso   1.00
H357   H     0.97402   0.64996   0.07911   0.00000  Uiso   1.00
H358   H     0.83930   0.69854   0.79926   0.00000  Uiso   1.00
H359   H     0.62818   0.36656   0.45897   0.00000  Uiso   1.00
O360   O     0.93566   0.72328   0.91361   0.00000  Uiso   1.00
O361   O     0.75890   0.78701   0.85841   0.00000  Uiso   1.00
O362   O     0.48192   0.35146   0.41196   0.00000  Uiso   1.00
N363   N     0.82771   0.72005   0.02431   0.00000  Uiso   1.00
N364   N     0.70176   0.76548   0.69759   0.00000  Uiso   1.00
N365   N     0.50437   0.45511   0.37948   0.00000  Uiso   1.00
N366   N     0.92278   0.66743   0.07934   0.00000  Uiso   1.00
N367   N     0.79683   0.71287   0.75262   0.00000  Uiso   1.00
N368   N     0.59945   0.40249   0.43451   0.00000  Uiso   1.00
