data_job_03083
_audit_creation_date              2018-12-19
_audit_creation_method            'Materials Studio'
_symmetry_space_group_name_H-M    'P1'
_symmetry_Int_Tables_number       1
_symmetry_cell_setting            triclinic
loop_
_symmetry_equiv_pos_as_xyz
  x,y,z
_cell_length_a                    15.6067
_cell_length_b                    21.7719
_cell_length_c                    15.2008
_cell_angle_alpha                 90.0000
_cell_angle_beta                  90.0000
_cell_angle_gamma                 90.0000
loop_
_atom_site_label
_atom_site_type_symbol
_atom_site_fract_x
_atom_site_fract_y
_atom_site_fract_z
_atom_site_U_iso_or_equiv
_atom_site_adp_type
_atom_site_occupancy
C1     C     0.34985   0.17185   0.82963   0.00000  Uiso   1.00
C2     C     0.26782   0.15379   0.87760   0.00000  Uiso   1.00
C3     C     0.20251   0.11767   0.84350   0.00000  Uiso   1.00
C4     C     0.13275   0.10641   0.89783   0.00000  Uiso   1.00
C5     C     0.00599   0.07475   0.95932   0.00000  Uiso   1.00
C6     C     0.35289   0.24184   0.83119   0.00000  Uiso   1.00
C7     C     0.35912   0.27975   0.75806   0.00000  Uiso   1.00
C8     C     0.36098   0.34261   0.77333   0.00000  Uiso   1.00
C9     C     0.36636   0.44765   0.76277   0.00000  Uiso   1.00
C10    C     0.42353   0.15022   0.88778   0.00000  Uiso   1.00
C11    C     0.48918   0.11110   0.86223   0.00000  Uiso   1.00
C12    C     0.55053   0.09683   0.92514   0.00000  Uiso   1.00
C13    C     0.66559   0.05960   0.00244   0.00000  Uiso   1.00
C14    C     0.34209   0.21608   0.98676   0.00000  Uiso   1.00
C15    C     0.26360   0.17782   0.96295   0.00000  Uiso   1.00
C16    C     0.19392   0.16661   0.01735   0.00000  Uiso   1.00
C17    C     0.12853   0.13048   0.98333   0.00000  Uiso   1.00
C18    C     0.34867   0.26587   0.91653   0.00000  Uiso   1.00
C19    C     0.35053   0.32869   0.93191   0.00000  Uiso   1.00
C20    C     0.35676   0.36668   0.85883   0.00000  Uiso   1.00
C21    C     0.41931   0.17424   0.97313   0.00000  Uiso   1.00
C22    C     0.48058   0.16004   0.03609   0.00000  Uiso   1.00
C23    C     0.54631   0.12090   0.01064   0.00000  Uiso   1.00
H24    H     0.35314   0.15314   0.76318   0.00000  Uiso   1.00
H25    H     0.20580   0.09909   0.77744   0.00000  Uiso   1.00
H26    H     0.36239   0.26114   0.69202   0.00000  Uiso   1.00
H27    H     0.49242   0.09251   0.79618   0.00000  Uiso   1.00
H28    H     0.04057   0.04978   0.83088   0.00000  Uiso   1.00
H29    H     0.37079   0.39147   0.65077   0.00000  Uiso   1.00
H30    H     0.64499   0.03589   0.87040   0.00000  Uiso   1.00
H31    H     0.33880   0.23479   0.05321   0.00000  Uiso   1.00
H32    H     0.19067   0.18521   0.08339   0.00000  Uiso   1.00
H33    H     0.34727   0.34727   0.99797   0.00000  Uiso   1.00
H34    H     0.47730   0.17864   0.10213   0.00000  Uiso   1.00
H35    H     0.02829   0.11968   0.07920   0.00000  Uiso   1.00
H36    H     0.35851   0.46138   0.89909   0.00000  Uiso   1.00
H37    H     0.63271   0.10579   0.11873   0.00000  Uiso   1.00
O38    O     0.93724   0.05066   0.96965   0.00000  Uiso   1.00
O39    O     0.37048   0.49895   0.73336   0.00000  Uiso   1.00
O40    O     0.73022   0.03242   0.02151   0.00000  Uiso   1.00
N41    N     0.05802   0.07302   0.88519   0.00000  Uiso   1.00
N42    N     0.36674   0.39249   0.71680   0.00000  Uiso   1.00
N43    N     0.62310   0.06006   0.92213   0.00000  Uiso   1.00
N44    N     0.05141   0.11063   0.01881   0.00000  Uiso   1.00
N45    N     0.36013   0.43010   0.85042   0.00000  Uiso   1.00
N46    N     0.61649   0.09767   0.05575   0.00000  Uiso   1.00
C47    C     0.15015   0.82815   0.32963   0.00000  Uiso   1.00
C48    C     0.23218   0.84621   0.37760   0.00000  Uiso   1.00
C49    C     0.29749   0.88233   0.34350   0.00000  Uiso   1.00
C50    C     0.36725   0.89359   0.39783   0.00000  Uiso   1.00
C51    C     0.49401   0.92525   0.45932   0.00000  Uiso   1.00
C52    C     0.14711   0.75816   0.33119   0.00000  Uiso   1.00
C53    C     0.14088   0.72025   0.25806   0.00000  Uiso   1.00
C54    C     0.13902   0.65739   0.27333   0.00000  Uiso   1.00
C55    C     0.13364   0.55235   0.26277   0.00000  Uiso   1.00
C56    C     0.07647   0.84978   0.38778   0.00000  Uiso   1.00
C57    C     0.01082   0.88890   0.36223   0.00000  Uiso   1.00
C58    C     0.94947   0.90317   0.42514   0.00000  Uiso   1.00
C59    C     0.83441   0.94040   0.50244   0.00000  Uiso   1.00
C60    C     0.15791   0.78392   0.48676   0.00000  Uiso   1.00
C61    C     0.23640   0.82218   0.46295   0.00000  Uiso   1.00
C62    C     0.30608   0.83339   0.51735   0.00000  Uiso   1.00
C63    C     0.37147   0.86952   0.48333   0.00000  Uiso   1.00
C64    C     0.15133   0.73413   0.41653   0.00000  Uiso   1.00
C65    C     0.14947   0.67131   0.43191   0.00000  Uiso   1.00
C66    C     0.14324   0.63332   0.35883   0.00000  Uiso   1.00
C67    C     0.08069   0.82576   0.47313   0.00000  Uiso   1.00
C68    C     0.01942   0.83996   0.53609   0.00000  Uiso   1.00
C69    C     0.95369   0.87910   0.51064   0.00000  Uiso   1.00
H70    H     0.14686   0.84686   0.26318   0.00000  Uiso   1.00
H71    H     0.29420   0.90091   0.27744   0.00000  Uiso   1.00
H72    H     0.13761   0.73886   0.19202   0.00000  Uiso   1.00
H73    H     0.00758   0.90749   0.29618   0.00000  Uiso   1.00
H74    H     0.45943   0.95022   0.33088   0.00000  Uiso   1.00
H75    H     0.12921   0.60853   0.15077   0.00000  Uiso   1.00
H76    H     0.85501   0.96411   0.37040   0.00000  Uiso   1.00
H77    H     0.16120   0.76521   0.55321   0.00000  Uiso   1.00
H78    H     0.30933   0.81479   0.58339   0.00000  Uiso   1.00
H79    H     0.15273   0.65273   0.49797   0.00000  Uiso   1.00
H80    H     0.02270   0.82136   0.60213   0.00000  Uiso   1.00
H81    H     0.47171   0.88032   0.57920   0.00000  Uiso   1.00
H82    H     0.14149   0.53862   0.39909   0.00000  Uiso   1.00
H83    H     0.86729   0.89421   0.61873   0.00000  Uiso   1.00
O84    O     0.56276   0.94934   0.46965   0.00000  Uiso   1.00
O85    O     0.12952   0.50105   0.23336   0.00000  Uiso   1.00
O86    O     0.76978   0.96758   0.52151   0.00000  Uiso   1.00
N87    N     0.44198   0.92698   0.38519   0.00000  Uiso   1.00
N88    N     0.13326   0.60751   0.21680   0.00000  Uiso   1.00
N89    N     0.87690   0.93994   0.42213   0.00000  Uiso   1.00
N90    N     0.44859   0.88937   0.51881   0.00000  Uiso   1.00
N91    N     0.13987   0.56990   0.35042   0.00000  Uiso   1.00
N92    N     0.88351   0.90233   0.55575   0.00000  Uiso   1.00
C93    C     0.65015   0.67185   0.67037   0.00000  Uiso   1.00
C94    C     0.73218   0.65379   0.62240   0.00000  Uiso   1.00
C95    C     0.79749   0.61767   0.65650   0.00000  Uiso   1.00
C96    C     0.86725   0.60641   0.60217   0.00000  Uiso   1.00
C97    C     0.99401   0.57475   0.54068   0.00000  Uiso   1.00
C98    C     0.64711   0.74184   0.66881   0.00000  Uiso   1.00
C99    C     0.64088   0.77975   0.74194   0.00000  Uiso   1.00
C100   C     0.63902   0.84261   0.72667   0.00000  Uiso   1.00
C101   C     0.63364   0.94765   0.73723   0.00000  Uiso   1.00
C102   C     0.57647   0.65022   0.61222   0.00000  Uiso   1.00
C103   C     0.51082   0.61110   0.63777   0.00000  Uiso   1.00
C104   C     0.44947   0.59683   0.57486   0.00000  Uiso   1.00
C105   C     0.33441   0.55960   0.49756   0.00000  Uiso   1.00
C106   C     0.65791   0.71608   0.51324   0.00000  Uiso   1.00
C107   C     0.73640   0.67782   0.53705   0.00000  Uiso   1.00
C108   C     0.80608   0.66661   0.48265   0.00000  Uiso   1.00
C109   C     0.87147   0.63048   0.51667   0.00000  Uiso   1.00
C110   C     0.65133   0.76587   0.58347   0.00000  Uiso   1.00
C111   C     0.64947   0.82869   0.56809   0.00000  Uiso   1.00
C112   C     0.64324   0.86668   0.64117   0.00000  Uiso   1.00
C113   C     0.58069   0.67424   0.52687   0.00000  Uiso   1.00
C114   C     0.51942   0.66004   0.46391   0.00000  Uiso   1.00
C115   C     0.45369   0.62090   0.48936   0.00000  Uiso   1.00
H116   H     0.64686   0.65314   0.73682   0.00000  Uiso   1.00
H117   H     0.79420   0.59909   0.72256   0.00000  Uiso   1.00
H118   H     0.63761   0.76114   0.80798   0.00000  Uiso   1.00
H119   H     0.50758   0.59251   0.70382   0.00000  Uiso   1.00
H120   H     0.95943   0.54978   0.66912   0.00000  Uiso   1.00
H121   H     0.62921   0.89147   0.84923   0.00000  Uiso   1.00
H122   H     0.35501   0.53589   0.62960   0.00000  Uiso   1.00
H123   H     0.66120   0.73479   0.44679   0.00000  Uiso   1.00
H124   H     0.80933   0.68521   0.41661   0.00000  Uiso   1.00
H125   H     0.65273   0.84727   0.50203   0.00000  Uiso   1.00
H126   H     0.52270   0.67864   0.39787   0.00000  Uiso   1.00
H127   H     0.97171   0.61968   0.42080   0.00000  Uiso   1.00
H128   H     0.64149   0.96138   0.60091   0.00000  Uiso   1.00
H129   H     0.36729   0.60579   0.38127   0.00000  Uiso   1.00
O130   O     0.06276   0.55066   0.53035   0.00000  Uiso   1.00
O131   O     0.62952   0.99895   0.76664   0.00000  Uiso   1.00
O132   O     0.26978   0.53242   0.47849   0.00000  Uiso   1.00
N133   N     0.94198   0.57302   0.61481   0.00000  Uiso   1.00
N134   N     0.63326   0.89249   0.78320   0.00000  Uiso   1.00
N135   N     0.37690   0.56006   0.57787   0.00000  Uiso   1.00
N136   N     0.94859   0.61063   0.48119   0.00000  Uiso   1.00
N137   N     0.63987   0.93010   0.64958   0.00000  Uiso   1.00
N138   N     0.38351   0.59767   0.44425   0.00000  Uiso   1.00
C139   C     0.84985   0.32815   0.17037   0.00000  Uiso   1.00
C140   C     0.76782   0.34621   0.12240   0.00000  Uiso   1.00
C141   C     0.70251   0.38233   0.15650   0.00000  Uiso   1.00
C142   C     0.63275   0.39359   0.10217   0.00000  Uiso   1.00
C143   C     0.50599   0.42525   0.04068   0.00000  Uiso   1.00
C144   C     0.85289   0.25816   0.16881   0.00000  Uiso   1.00
C145   C     0.85912   0.22025   0.24194   0.00000  Uiso   1.00
C146   C     0.86098   0.15739   0.22667   0.00000  Uiso   1.00
C147   C     0.86636   0.05235   0.23723   0.00000  Uiso   1.00
C148   C     0.92353   0.34978   0.11222   0.00000  Uiso   1.00
C149   C     0.98918   0.38890   0.13777   0.00000  Uiso   1.00
C150   C     0.05053   0.40317   0.07486   0.00000  Uiso   1.00
C151   C     0.16559   0.44040   0.99756   0.00000  Uiso   1.00
C152   C     0.84209   0.28392   0.01324   0.00000  Uiso   1.00
C153   C     0.76360   0.32218   0.03705   0.00000  Uiso   1.00
C154   C     0.69392   0.33339   0.98265   0.00000  Uiso   1.00
C155   C     0.62853   0.36952   0.01667   0.00000  Uiso   1.00
C156   C     0.84867   0.23413   0.08347   0.00000  Uiso   1.00
C157   C     0.85053   0.17131   0.06809   0.00000  Uiso   1.00
C158   C     0.85676   0.13332   0.14117   0.00000  Uiso   1.00
C159   C     0.91931   0.32576   0.02687   0.00000  Uiso   1.00
C160   C     0.98058   0.33996   0.96391   0.00000  Uiso   1.00
C161   C     0.04631   0.37910   0.98936   0.00000  Uiso   1.00
H162   H     0.85314   0.34686   0.23682   0.00000  Uiso   1.00
H163   H     0.70580   0.40091   0.22256   0.00000  Uiso   1.00
H164   H     0.86239   0.23886   0.30798   0.00000  Uiso   1.00
H165   H     0.99242   0.40749   0.20382   0.00000  Uiso   1.00
H166   H     0.54057   0.45022   0.16912   0.00000  Uiso   1.00
H167   H     0.87079   0.10853   0.34923   0.00000  Uiso   1.00
H168   H     0.14499   0.46411   0.12960   0.00000  Uiso   1.00
H169   H     0.83880   0.26521   0.94679   0.00000  Uiso   1.00
H170   H     0.69067   0.31479   0.91661   0.00000  Uiso   1.00
H171   H     0.84727   0.15273   0.00203   0.00000  Uiso   1.00
H172   H     0.97730   0.32136   0.89787   0.00000  Uiso   1.00
H173   H     0.52829   0.38032   0.92080   0.00000  Uiso   1.00
H174   H     0.85851   0.03862   0.10091   0.00000  Uiso   1.00
H175   H     0.13271   0.39421   0.88127   0.00000  Uiso   1.00
O176   O     0.43724   0.44934   0.03035   0.00000  Uiso   1.00
O177   O     0.87048   0.00105   0.26664   0.00000  Uiso   1.00
O178   O     0.23022   0.46758   0.97849   0.00000  Uiso   1.00
N179   N     0.55802   0.42698   0.11481   0.00000  Uiso   1.00
N180   N     0.86674   0.10751   0.28320   0.00000  Uiso   1.00
N181   N     0.12310   0.43994   0.07787   0.00000  Uiso   1.00
N182   N     0.55141   0.38937   0.98119   0.00000  Uiso   1.00
N183   N     0.86013   0.06990   0.14958   0.00000  Uiso   1.00
N184   N     0.11649   0.40233   0.94425   0.00000  Uiso   1.00
C185   C     0.65015   0.82815   0.17037   0.00000  Uiso   1.00
C186   C     0.73218   0.84621   0.12240   0.00000  Uiso   1.00
C187   C     0.79749   0.88233   0.15650   0.00000  Uiso   1.00
C188   C     0.86725   0.89359   0.10217   0.00000  Uiso   1.00
C189   C     0.99401   0.92525   0.04068   0.00000  Uiso   1.00
C190   C     0.64711   0.75816   0.16881   0.00000  Uiso   1.00
C191   C     0.64088   0.72025   0.24194   0.00000  Uiso   1.00
C192   C     0.63902   0.65739   0.22667   0.00000  Uiso   1.00
C193   C     0.63364   0.55235   0.23723   0.00000  Uiso   1.00
C194   C     0.57647   0.84978   0.11222   0.00000  Uiso   1.00
C195   C     0.51082   0.88890   0.13777   0.00000  Uiso   1.00
C196   C     0.44947   0.90317   0.07486   0.00000  Uiso   1.00
C197   C     0.33441   0.94040   0.99756   0.00000  Uiso   1.00
C198   C     0.65791   0.78392   0.01324   0.00000  Uiso   1.00
C199   C     0.73640   0.82218   0.03705   0.00000  Uiso   1.00
C200   C     0.80608   0.83339   0.98265   0.00000  Uiso   1.00
C201   C     0.87147   0.86952   0.01667   0.00000  Uiso   1.00
C202   C     0.65133   0.73413   0.08347   0.00000  Uiso   1.00
C203   C     0.64947   0.67131   0.06809   0.00000  Uiso   1.00
C204   C     0.64324   0.63332   0.14117   0.00000  Uiso   1.00
C205   C     0.58069   0.82576   0.02687   0.00000  Uiso   1.00
C206   C     0.51942   0.83996   0.96391   0.00000  Uiso   1.00
C207   C     0.45369   0.87910   0.98936   0.00000  Uiso   1.00
H208   H     0.64686   0.84686   0.23682   0.00000  Uiso   1.00
H209   H     0.79420   0.90091   0.22256   0.00000  Uiso   1.00
H210   H     0.63761   0.73886   0.30798   0.00000  Uiso   1.00
H211   H     0.50758   0.90749   0.20382   0.00000  Uiso   1.00
H212   H     0.95943   0.95022   0.16912   0.00000  Uiso   1.00
H213   H     0.62921   0.60853   0.34923   0.00000  Uiso   1.00
H214   H     0.35501   0.96411   0.12960   0.00000  Uiso   1.00
H215   H     0.66120   0.76521   0.94679   0.00000  Uiso   1.00
H216   H     0.80933   0.81479   0.91661   0.00000  Uiso   1.00
H217   H     0.65273   0.65273   0.00203   0.00000  Uiso   1.00
H218   H     0.52270   0.82136   0.89787   0.00000  Uiso   1.00
H219   H     0.97171   0.88032   0.92080   0.00000  Uiso   1.00
H220   H     0.64149   0.53862   0.10091   0.00000  Uiso   1.00
H221   H     0.36729   0.89421   0.88127   0.00000  Uiso   1.00
O222   O     0.06276   0.94934   0.03035   0.00000  Uiso   1.00
O223   O     0.62952   0.50105   0.26664   0.00000  Uiso   1.00
O224   O     0.26978   0.96758   0.97849   0.00000  Uiso   1.00
N225   N     0.94198   0.92698   0.11481   0.00000  Uiso   1.00
N226   N     0.63326   0.60751   0.28320   0.00000  Uiso   1.00
N227   N     0.37690   0.93994   0.07787   0.00000  Uiso   1.00
N228   N     0.94859   0.88937   0.98119   0.00000  Uiso   1.00
N229   N     0.63987   0.56990   0.14958   0.00000  Uiso   1.00
N230   N     0.38351   0.90233   0.94425   0.00000  Uiso   1.00
C231   C     0.84985   0.17185   0.67037   0.00000  Uiso   1.00
C232   C     0.76782   0.15379   0.62240   0.00000  Uiso   1.00
C233   C     0.70251   0.11767   0.65650   0.00000  Uiso   1.00
C234   C     0.63275   0.10641   0.60217   0.00000  Uiso   1.00
C235   C     0.50599   0.07475   0.54068   0.00000  Uiso   1.00
C236   C     0.85289   0.24184   0.66881   0.00000  Uiso   1.00
C237   C     0.85912   0.27975   0.74194   0.00000  Uiso   1.00
C238   C     0.86098   0.34261   0.72667   0.00000  Uiso   1.00
C239   C     0.86636   0.44765   0.73723   0.00000  Uiso   1.00
C240   C     0.92353   0.15022   0.61222   0.00000  Uiso   1.00
C241   C     0.98918   0.11110   0.63777   0.00000  Uiso   1.00
C242   C     0.05053   0.09683   0.57486   0.00000  Uiso   1.00
C243   C     0.16559   0.05960   0.49756   0.00000  Uiso   1.00
C244   C     0.84209   0.21608   0.51324   0.00000  Uiso   1.00
C245   C     0.76360   0.17782   0.53705   0.00000  Uiso   1.00
C246   C     0.69392   0.16661   0.48265   0.00000  Uiso   1.00
C247   C     0.62853   0.13048   0.51667   0.00000  Uiso   1.00
C248   C     0.84867   0.26587   0.58347   0.00000  Uiso   1.00
C249   C     0.85053   0.32869   0.56809   0.00000  Uiso   1.00
C250   C     0.85676   0.36668   0.64117   0.00000  Uiso   1.00
C251   C     0.91931   0.17424   0.52687   0.00000  Uiso   1.00
C252   C     0.98058   0.16004   0.46391   0.00000  Uiso   1.00
C253   C     0.04631   0.12090   0.48936   0.00000  Uiso   1.00
H254   H     0.85314   0.15314   0.73682   0.00000  Uiso   1.00
H255   H     0.70580   0.09909   0.72256   0.00000  Uiso   1.00
H256   H     0.86239   0.26114   0.80798   0.00000  Uiso   1.00
H257   H     0.99242   0.09251   0.70382   0.00000  Uiso   1.00
H258   H     0.54057   0.04978   0.66912   0.00000  Uiso   1.00
H259   H     0.87079   0.39147   0.84923   0.00000  Uiso   1.00
H260   H     0.14499   0.03589   0.62960   0.00000  Uiso   1.00
H261   H     0.83880   0.23479   0.44679   0.00000  Uiso   1.00
H262   H     0.69067   0.18521   0.41661   0.00000  Uiso   1.00
H263   H     0.84727   0.34727   0.50203   0.00000  Uiso   1.00
H264   H     0.97730   0.17864   0.39787   0.00000  Uiso   1.00
H265   H     0.52829   0.11968   0.42080   0.00000  Uiso   1.00
H266   H     0.85851   0.46138   0.60091   0.00000  Uiso   1.00
H267   H     0.13271   0.10579   0.38127   0.00000  Uiso   1.00
O268   O     0.43724   0.05066   0.53035   0.00000  Uiso   1.00
O269   O     0.87048   0.49895   0.76664   0.00000  Uiso   1.00
O270   O     0.23022   0.03242   0.47849   0.00000  Uiso   1.00
N271   N     0.55802   0.07302   0.61481   0.00000  Uiso   1.00
N272   N     0.86674   0.39249   0.78320   0.00000  Uiso   1.00
N273   N     0.12310   0.06006   0.57787   0.00000  Uiso   1.00
N274   N     0.55141   0.11063   0.48119   0.00000  Uiso   1.00
N275   N     0.86013   0.43010   0.64958   0.00000  Uiso   1.00
N276   N     0.11649   0.09767   0.44425   0.00000  Uiso   1.00
C277   C     0.34985   0.32815   0.32963   0.00000  Uiso   1.00
C278   C     0.26782   0.34621   0.37760   0.00000  Uiso   1.00
C279   C     0.20251   0.38233   0.34350   0.00000  Uiso   1.00
C280   C     0.13275   0.39359   0.39783   0.00000  Uiso   1.00
C281   C     0.00599   0.42525   0.45932   0.00000  Uiso   1.00
C282   C     0.35289   0.25816   0.33119   0.00000  Uiso   1.00
C283   C     0.35912   0.22025   0.25806   0.00000  Uiso   1.00
C284   C     0.36098   0.15739   0.27333   0.00000  Uiso   1.00
C285   C     0.36636   0.05235   0.26277   0.00000  Uiso   1.00
C286   C     0.42353   0.34978   0.38778   0.00000  Uiso   1.00
C287   C     0.48918   0.38890   0.36223   0.00000  Uiso   1.00
C288   C     0.55053   0.40317   0.42514   0.00000  Uiso   1.00
C289   C     0.66559   0.44040   0.50244   0.00000  Uiso   1.00
C290   C     0.34209   0.28392   0.48676   0.00000  Uiso   1.00
C291   C     0.26360   0.32218   0.46295   0.00000  Uiso   1.00
C292   C     0.19392   0.33339   0.51735   0.00000  Uiso   1.00
C293   C     0.12853   0.36952   0.48333   0.00000  Uiso   1.00
C294   C     0.34867   0.23413   0.41653   0.00000  Uiso   1.00
C295   C     0.35053   0.17131   0.43191   0.00000  Uiso   1.00
C296   C     0.35676   0.13332   0.35883   0.00000  Uiso   1.00
C297   C     0.41931   0.32576   0.47313   0.00000  Uiso   1.00
C298   C     0.48058   0.33996   0.53609   0.00000  Uiso   1.00
C299   C     0.54631   0.37910   0.51064   0.00000  Uiso   1.00
H300   H     0.35314   0.34686   0.26318   0.00000  Uiso   1.00
H301   H     0.20580   0.40091   0.27744   0.00000  Uiso   1.00
H302   H     0.36239   0.23886   0.19202   0.00000  Uiso   1.00
H303   H     0.49242   0.40749   0.29618   0.00000  Uiso   1.00
H304   H     0.04057   0.45022   0.33088   0.00000  Uiso   1.00
H305   H     0.37079   0.10853   0.15077   0.00000  Uiso   1.00
H306   H     0.64499   0.46411   0.37040   0.00000  Uiso   1.00
H307   H     0.33880   0.26521   0.55321   0.00000  Uiso   1.00
H308   H     0.19067   0.31479   0.58339   0.00000  Uiso   1.00
H309   H     0.34727   0.15273   0.49797   0.00000  Uiso   1.00
H310   H     0.47730   0.32136   0.60213   0.00000  Uiso   1.00
H311   H     0.02829   0.38032   0.57920   0.00000  Uiso   1.00
H312   H     0.35851   0.03862   0.39909   0.00000  Uiso   1.00
H313   H     0.63271   0.39421   0.61873   0.00000  Uiso   1.00
O314   O     0.93724   0.44934   0.46965   0.00000  Uiso   1.00
O315   O     0.37048   0.00105   0.23336   0.00000  Uiso   1.00
O316   O     0.73022   0.46758   0.52151   0.00000  Uiso   1.00
N317   N     0.05802   0.42698   0.38519   0.00000  Uiso   1.00
N318   N     0.36674   0.10751   0.21680   0.00000  Uiso   1.00
N319   N     0.62310   0.43994   0.42213   0.00000  Uiso   1.00
N320   N     0.05141   0.38937   0.51881   0.00000  Uiso   1.00
N321   N     0.36013   0.06990   0.35042   0.00000  Uiso   1.00
N322   N     0.61649   0.40233   0.55575   0.00000  Uiso   1.00
C323   C     0.15015   0.67185   0.82963   0.00000  Uiso   1.00
C324   C     0.23218   0.65379   0.87760   0.00000  Uiso   1.00
C325   C     0.29749   0.61767   0.84350   0.00000  Uiso   1.00
C326   C     0.36725   0.60641   0.89783   0.00000  Uiso   1.00
C327   C     0.49401   0.57475   0.95932   0.00000  Uiso   1.00
C328   C     0.14711   0.74184   0.83119   0.00000  Uiso   1.00
C329   C     0.14088   0.77975   0.75806   0.00000  Uiso   1.00
C330   C     0.13902   0.84261   0.77333   0.00000  Uiso   1.00
C331   C     0.13364   0.94765   0.76277   0.00000  Uiso   1.00
C332   C     0.07647   0.65022   0.88778   0.00000  Uiso   1.00
C333   C     0.01082   0.61110   0.86223   0.00000  Uiso   1.00
C334   C     0.94947   0.59683   0.92514   0.00000  Uiso   1.00
C335   C     0.83441   0.55960   0.00244   0.00000  Uiso   1.00
C336   C     0.15791   0.71608   0.98676   0.00000  Uiso   1.00
C337   C     0.23640   0.67782   0.96295   0.00000  Uiso   1.00
C338   C     0.30608   0.66661   0.01735   0.00000  Uiso   1.00
C339   C     0.37147   0.63048   0.98333   0.00000  Uiso   1.00
C340   C     0.15133   0.76587   0.91653   0.00000  Uiso   1.00
C341   C     0.14947   0.82869   0.93191   0.00000  Uiso   1.00
C342   C     0.14324   0.86668   0.85883   0.00000  Uiso   1.00
C343   C     0.08069   0.67424   0.97313   0.00000  Uiso   1.00
C344   C     0.01942   0.66004   0.03609   0.00000  Uiso   1.00
C345   C     0.95369   0.62090   0.01064   0.00000  Uiso   1.00
H346   H     0.14686   0.65314   0.76318   0.00000  Uiso   1.00
H347   H     0.29420   0.59909   0.77744   0.00000  Uiso   1.00
H348   H     0.13761   0.76114   0.69202   0.00000  Uiso   1.00
H349   H     0.00758   0.59251   0.79618   0.00000  Uiso   1.00
H350   H     0.45943   0.54978   0.83088   0.00000  Uiso   1.00
H351   H     0.12921   0.89147   0.65077   0.00000  Uiso   1.00
H352   H     0.85501   0.53589   0.87040   0.00000  Uiso   1.00
H353   H     0.16120   0.73479   0.05321   0.00000  Uiso   1.00
H354   H     0.30933   0.68521   0.08339   0.00000  Uiso   1.00
H355   H     0.15273   0.84727   0.99797   0.00000  Uiso   1.00
H356   H     0.02270   0.67864   0.10213   0.00000  Uiso   1.00
H357   H     0.47171   0.61968   0.07920   0.00000  Uiso   1.00
H358   H     0.14149   0.96138   0.89909   0.00000  Uiso   1.00
H359   H     0.86729   0.60579   0.11873   0.00000  Uiso   1.00
O360   O     0.56276   0.55066   0.96965   0.00000  Uiso   1.00
O361   O     0.12952   0.99895   0.73336   0.00000  Uiso   1.00
O362   O     0.76978   0.53242   0.02151   0.00000  Uiso   1.00
N363   N     0.44198   0.57302   0.88519   0.00000  Uiso   1.00
N364   N     0.13326   0.89249   0.71680   0.00000  Uiso   1.00
N365   N     0.87690   0.56006   0.92213   0.00000  Uiso   1.00
N366   N     0.44859   0.61063   0.01881   0.00000  Uiso   1.00
N367   N     0.13987   0.93010   0.85042   0.00000  Uiso   1.00
N368   N     0.88351   0.59767   0.05575   0.00000  Uiso   1.00
