data_job_00307
_audit_creation_date              2018-12-19
_audit_creation_method            'Materials Studio'
_symmetry_space_group_name_H-M    'P1'
_symmetry_Int_Tables_number       1
_symmetry_cell_setting            triclinic
loop_
_symmetry_equiv_pos_as_xyz
  x,y,z
_cell_length_a                    7.2023
_cell_length_b                    21.3888
_cell_length_c                    18.0027
_cell_angle_alpha                 90.0000
_cell_angle_beta                  108.7270
_cell_angle_gamma                 90.0000
loop_
_atom_site_label
_atom_site_type_symbol
_atom_site_fract_x
_atom_site_fract_y
_atom_site_fract_z
_atom_site_U_iso_or_equiv
_atom_site_adp_type
_atom_site_occupancy
C1     C     0.10048   0.77965   0.89508   0.00000  Uiso   1.00
C2     C     0.11452   0.74967   0.97356   0.00000  Uiso   1.00
C3     C     0.28178   0.72338   0.02587   0.00000  Uiso   1.00
C4     C     0.26446   0.69834   0.09449   0.00000  Uiso   1.00
C5     C     0.31336   0.65157   0.21394   0.00000  Uiso   1.00
C6     C     0.93733   0.74497   0.83343   0.00000  Uiso   1.00
C7     C     0.95562   0.71474   0.76792   0.00000  Uiso   1.00
C8     C     0.78912   0.68574   0.71857   0.00000  Uiso   1.00
C9     C     0.56291   0.63172   0.62043   0.00000  Uiso   1.00
C10    C     0.02465   0.84587   0.89802   0.00000  Uiso   1.00
C11    C     0.11632   0.90047   0.88681   0.00000  Uiso   1.00
C12    C     0.02331   0.95641   0.89183   0.00000  Uiso   1.00
C13    C     0.93267   0.05904   0.89399   0.00000  Uiso   1.00
C14    C     0.77227   0.78193   0.92392   0.00000  Uiso   1.00
C15    C     0.93625   0.75091   0.98922   0.00000  Uiso   1.00
C16    C     0.91866   0.72590   0.05778   0.00000  Uiso   1.00
C17    C     0.08587   0.69957   0.11019   0.00000  Uiso   1.00
C18    C     0.75907   0.74621   0.84909   0.00000  Uiso   1.00
C19    C     0.59250   0.71725   0.79982   0.00000  Uiso   1.00
C20    C     0.61053   0.68698   0.73426   0.00000  Uiso   1.00
C21    C     0.84638   0.84710   0.91369   0.00000  Uiso   1.00
C22    C     0.75321   0.90298   0.91872   0.00000  Uiso   1.00
C23    C     0.84472   0.95765   0.90752   0.00000  Uiso   1.00
H24    H     0.23926   0.77869   0.88288   0.00000  Uiso   1.00
H25    H     0.41971   0.72243   0.01372   0.00000  Uiso   1.00
H26    H     0.09359   0.71380   0.75581   0.00000  Uiso   1.00
H27    H     0.25427   0.89949   0.87469   0.00000  Uiso   1.00
H28    H     0.54114   0.66058   0.16568   0.00000  Uiso   1.00
H29    H     0.85349   0.64239   0.62183   0.00000  Uiso   1.00
H30    H     0.19231   0.03397   0.87251   0.00000  Uiso   1.00
H31    H     0.63347   0.78289   0.93612   0.00000  Uiso   1.00
H32    H     0.78069   0.72686   0.06988   0.00000  Uiso   1.00
H33    H     0.45457   0.71822   0.81196   0.00000  Uiso   1.00
H34    H     0.61525   0.90392   0.93084   0.00000  Uiso   1.00
H35    H     0.02249   0.66417   0.21126   0.00000  Uiso   1.00
H36    H     0.33483   0.64598   0.66741   0.00000  Uiso   1.00
H37    H     0.67366   0.03756   0.91809   0.00000  Uiso   1.00
O38    O     0.38957   0.62542   0.27549   0.00000  Uiso   1.00
O39    O     0.48739   0.60157   0.56198   0.00000  Uiso   1.00
O40    O     0.93193   0.11531   0.89087   0.00000  Uiso   1.00
N41    N     0.39888   0.66913   0.15805   0.00000  Uiso   1.00
N42    N     0.75597   0.65211   0.64960   0.00000  Uiso   1.00
N43    N     0.07272   0.01820   0.88394   0.00000  Uiso   1.00
N44    N     0.11980   0.67106   0.18258   0.00000  Uiso   1.00
N45    N     0.47689   0.65404   0.67413   0.00000  Uiso   1.00
N46    N     0.79364   0.02013   0.90847   0.00000  Uiso   1.00
C47    C     0.89952   0.27965   0.60492   0.00000  Uiso   1.00
C48    C     0.88548   0.24967   0.52644   0.00000  Uiso   1.00
C49    C     0.71822   0.22338   0.47413   0.00000  Uiso   1.00
C50    C     0.73554   0.19834   0.40551   0.00000  Uiso   1.00
C51    C     0.68664   0.15157   0.28606   0.00000  Uiso   1.00
C52    C     0.06267   0.24497   0.66657   0.00000  Uiso   1.00
C53    C     0.04438   0.21474   0.73208   0.00000  Uiso   1.00
C54    C     0.21088   0.18574   0.78143   0.00000  Uiso   1.00
C55    C     0.43709   0.13172   0.87957   0.00000  Uiso   1.00
C56    C     0.97535   0.34587   0.60198   0.00000  Uiso   1.00
C57    C     0.88368   0.40047   0.61319   0.00000  Uiso   1.00
C58    C     0.97669   0.45641   0.60817   0.00000  Uiso   1.00
C59    C     0.06733   0.55904   0.60601   0.00000  Uiso   1.00
C60    C     0.22773   0.28193   0.57608   0.00000  Uiso   1.00
C61    C     0.06375   0.25091   0.51078   0.00000  Uiso   1.00
C62    C     0.08134   0.22590   0.44222   0.00000  Uiso   1.00
C63    C     0.91413   0.19957   0.38981   0.00000  Uiso   1.00
C64    C     0.24093   0.24621   0.65091   0.00000  Uiso   1.00
C65    C     0.40750   0.21725   0.70018   0.00000  Uiso   1.00
C66    C     0.38947   0.18698   0.76574   0.00000  Uiso   1.00
C67    C     0.15362   0.34710   0.58631   0.00000  Uiso   1.00
C68    C     0.24679   0.40298   0.58128   0.00000  Uiso   1.00
C69    C     0.15528   0.45765   0.59248   0.00000  Uiso   1.00
H70    H     0.76074   0.27869   0.61712   0.00000  Uiso   1.00
H71    H     0.58029   0.22243   0.48628   0.00000  Uiso   1.00
H72    H     0.90641   0.21380   0.74419   0.00000  Uiso   1.00
H73    H     0.74573   0.39949   0.62531   0.00000  Uiso   1.00
H74    H     0.45886   0.16058   0.33432   0.00000  Uiso   1.00
H75    H     0.14651   0.14239   0.87817   0.00000  Uiso   1.00
H76    H     0.80769   0.53397   0.62749   0.00000  Uiso   1.00
H77    H     0.36653   0.28289   0.56388   0.00000  Uiso   1.00
H78    H     0.21931   0.22686   0.43012   0.00000  Uiso   1.00
H79    H     0.54543   0.21822   0.68804   0.00000  Uiso   1.00
H80    H     0.38475   0.40392   0.56916   0.00000  Uiso   1.00
H81    H     0.97751   0.16417   0.28874   0.00000  Uiso   1.00
H82    H     0.66517   0.14598   0.83259   0.00000  Uiso   1.00
H83    H     0.32634   0.53756   0.58191   0.00000  Uiso   1.00
O84    O     0.61043   0.12542   0.22451   0.00000  Uiso   1.00
O85    O     0.51261   0.10157   0.93802   0.00000  Uiso   1.00
O86    O     0.06807   0.61531   0.60913   0.00000  Uiso   1.00
N87    N     0.60112   0.16913   0.34195   0.00000  Uiso   1.00
N88    N     0.24403   0.15211   0.85040   0.00000  Uiso   1.00
N89    N     0.92728   0.51820   0.61606   0.00000  Uiso   1.00
N90    N     0.88020   0.17106   0.31742   0.00000  Uiso   1.00
N91    N     0.52311   0.15404   0.82587   0.00000  Uiso   1.00
N92    N     0.20636   0.52013   0.59153   0.00000  Uiso   1.00
C93    C     0.89952   0.22035   0.10492   0.00000  Uiso   1.00
C94    C     0.88548   0.25033   0.02644   0.00000  Uiso   1.00
C95    C     0.71822   0.27662   0.97413   0.00000  Uiso   1.00
C96    C     0.73554   0.30166   0.90551   0.00000  Uiso   1.00
C97    C     0.68664   0.34843   0.78606   0.00000  Uiso   1.00
C98    C     0.06267   0.25503   0.16657   0.00000  Uiso   1.00
C99    C     0.04438   0.28526   0.23208   0.00000  Uiso   1.00
C100   C     0.21088   0.31426   0.28143   0.00000  Uiso   1.00
C101   C     0.43709   0.36828   0.37957   0.00000  Uiso   1.00
C102   C     0.97535   0.15413   0.10198   0.00000  Uiso   1.00
C103   C     0.88368   0.09953   0.11319   0.00000  Uiso   1.00
C104   C     0.97669   0.04359   0.10817   0.00000  Uiso   1.00
C105   C     0.06733   0.94096   0.10601   0.00000  Uiso   1.00
C106   C     0.22773   0.21807   0.07608   0.00000  Uiso   1.00
C107   C     0.06375   0.24909   0.01078   0.00000  Uiso   1.00
C108   C     0.08134   0.27410   0.94222   0.00000  Uiso   1.00
C109   C     0.91413   0.30043   0.88981   0.00000  Uiso   1.00
C110   C     0.24093   0.25379   0.15091   0.00000  Uiso   1.00
C111   C     0.40750   0.28275   0.20018   0.00000  Uiso   1.00
C112   C     0.38947   0.31302   0.26574   0.00000  Uiso   1.00
C113   C     0.15362   0.15290   0.08631   0.00000  Uiso   1.00
C114   C     0.24679   0.09702   0.08128   0.00000  Uiso   1.00
C115   C     0.15528   0.04235   0.09248   0.00000  Uiso   1.00
H116   H     0.76074   0.22131   0.11712   0.00000  Uiso   1.00
H117   H     0.58029   0.27757   0.98628   0.00000  Uiso   1.00
H118   H     0.90641   0.28620   0.24419   0.00000  Uiso   1.00
H119   H     0.74573   0.10051   0.12531   0.00000  Uiso   1.00
H120   H     0.45886   0.33942   0.83432   0.00000  Uiso   1.00
H121   H     0.14651   0.35761   0.37817   0.00000  Uiso   1.00
H122   H     0.80769   0.96603   0.12749   0.00000  Uiso   1.00
H123   H     0.36653   0.21711   0.06388   0.00000  Uiso   1.00
H124   H     0.21931   0.27314   0.93012   0.00000  Uiso   1.00
H125   H     0.54543   0.28178   0.18804   0.00000  Uiso   1.00
H126   H     0.38475   0.09608   0.06916   0.00000  Uiso   1.00
H127   H     0.97751   0.33583   0.78874   0.00000  Uiso   1.00
H128   H     0.66517   0.35402   0.33259   0.00000  Uiso   1.00
H129   H     0.32634   0.96244   0.08191   0.00000  Uiso   1.00
O130   O     0.61043   0.37458   0.72451   0.00000  Uiso   1.00
O131   O     0.51261   0.39843   0.43802   0.00000  Uiso   1.00
O132   O     0.06807   0.88469   0.10913   0.00000  Uiso   1.00
N133   N     0.60112   0.33087   0.84195   0.00000  Uiso   1.00
N134   N     0.24403   0.34789   0.35040   0.00000  Uiso   1.00
N135   N     0.92728   0.98180   0.11606   0.00000  Uiso   1.00
N136   N     0.88020   0.32894   0.81742   0.00000  Uiso   1.00
N137   N     0.52311   0.34596   0.32587   0.00000  Uiso   1.00
N138   N     0.20636   0.97987   0.09153   0.00000  Uiso   1.00
C139   C     0.10048   0.72035   0.39508   0.00000  Uiso   1.00
C140   C     0.11452   0.75033   0.47356   0.00000  Uiso   1.00
C141   C     0.28178   0.77662   0.52587   0.00000  Uiso   1.00
C142   C     0.26446   0.80166   0.59449   0.00000  Uiso   1.00
C143   C     0.31336   0.84843   0.71394   0.00000  Uiso   1.00
C144   C     0.93733   0.75503   0.33343   0.00000  Uiso   1.00
C145   C     0.95562   0.78526   0.26792   0.00000  Uiso   1.00
C146   C     0.78912   0.81426   0.21857   0.00000  Uiso   1.00
C147   C     0.56291   0.86828   0.12043   0.00000  Uiso   1.00
C148   C     0.02465   0.65413   0.39802   0.00000  Uiso   1.00
C149   C     0.11632   0.59953   0.38681   0.00000  Uiso   1.00
C150   C     0.02331   0.54359   0.39183   0.00000  Uiso   1.00
C151   C     0.93267   0.44096   0.39399   0.00000  Uiso   1.00
C152   C     0.77227   0.71807   0.42392   0.00000  Uiso   1.00
C153   C     0.93625   0.74909   0.48922   0.00000  Uiso   1.00
C154   C     0.91866   0.77410   0.55778   0.00000  Uiso   1.00
C155   C     0.08587   0.80043   0.61019   0.00000  Uiso   1.00
C156   C     0.75907   0.75379   0.34909   0.00000  Uiso   1.00
C157   C     0.59250   0.78275   0.29982   0.00000  Uiso   1.00
C158   C     0.61053   0.81302   0.23426   0.00000  Uiso   1.00
C159   C     0.84638   0.65290   0.41369   0.00000  Uiso   1.00
C160   C     0.75321   0.59702   0.41872   0.00000  Uiso   1.00
C161   C     0.84472   0.54235   0.40752   0.00000  Uiso   1.00
H162   H     0.23926   0.72131   0.38288   0.00000  Uiso   1.00
H163   H     0.41971   0.77757   0.51372   0.00000  Uiso   1.00
H164   H     0.09359   0.78620   0.25581   0.00000  Uiso   1.00
H165   H     0.25427   0.60051   0.37469   0.00000  Uiso   1.00
H166   H     0.54114   0.83942   0.66568   0.00000  Uiso   1.00
H167   H     0.85349   0.85761   0.12183   0.00000  Uiso   1.00
H168   H     0.19231   0.46603   0.37251   0.00000  Uiso   1.00
H169   H     0.63347   0.71711   0.43612   0.00000  Uiso   1.00
H170   H     0.78069   0.77314   0.56988   0.00000  Uiso   1.00
H171   H     0.45457   0.78178   0.31196   0.00000  Uiso   1.00
H172   H     0.61525   0.59608   0.43084   0.00000  Uiso   1.00
H173   H     0.02249   0.83583   0.71126   0.00000  Uiso   1.00
H174   H     0.33483   0.85402   0.16741   0.00000  Uiso   1.00
H175   H     0.67366   0.46244   0.41809   0.00000  Uiso   1.00
O176   O     0.38957   0.87458   0.77549   0.00000  Uiso   1.00
O177   O     0.48739   0.89843   0.06198   0.00000  Uiso   1.00
O178   O     0.93193   0.38469   0.39087   0.00000  Uiso   1.00
N179   N     0.39888   0.83087   0.65805   0.00000  Uiso   1.00
N180   N     0.75597   0.84789   0.14960   0.00000  Uiso   1.00
N181   N     0.07272   0.48180   0.38394   0.00000  Uiso   1.00
N182   N     0.11980   0.82894   0.68258   0.00000  Uiso   1.00
N183   N     0.47689   0.84596   0.17413   0.00000  Uiso   1.00
N184   N     0.79364   0.47987   0.40847   0.00000  Uiso   1.00
