data_job_03619
_audit_creation_date              2018-12-19
_audit_creation_method            'Materials Studio'
_symmetry_space_group_name_H-M    'P1'
_symmetry_Int_Tables_number       1
_symmetry_cell_setting            triclinic
loop_
_symmetry_equiv_pos_as_xyz
  x,y,z
_cell_length_a                    17.8386
_cell_length_b                    17.8386
_cell_length_c                    15.9842
_cell_angle_alpha                 90.0000
_cell_angle_beta                  90.0000
_cell_angle_gamma                 90.0000
loop_
_atom_site_label
_atom_site_type_symbol
_atom_site_fract_x
_atom_site_fract_y
_atom_site_fract_z
_atom_site_U_iso_or_equiv
_atom_site_adp_type
_atom_site_occupancy
C1     C     0.86214   0.12613   0.49214   0.00000  Uiso   1.00
C2     C     0.88855   0.16057   0.40994   0.00000  Uiso   1.00
C3     C     0.93008   0.12423   0.34874   0.00000  Uiso   1.00
C4     C     0.94870   0.16546   0.27807   0.00000  Uiso   1.00
C5     C     0.99312   0.20756   0.15184   0.00000  Uiso   1.00
C6     C     0.89273   0.17651   0.56125   0.00000  Uiso   1.00
C7     C     0.93775   0.15356   0.62727   0.00000  Uiso   1.00
C8     C     0.95988   0.20821   0.68397   0.00000  Uiso   1.00
C9     C     0.01072   0.27503   0.79268   0.00000  Uiso   1.00
C10    C     0.77722   0.13580   0.49379   0.00000  Uiso   1.00
C11    C     0.72512   0.07864   0.50312   0.00000  Uiso   1.00
C12    C     0.65000   0.09902   0.50305   0.00000  Uiso   1.00
C13    C     0.52151   0.10265   0.50702   0.00000  Uiso   1.00
C14    C     0.82139   0.26400   0.47546   0.00000  Uiso   1.00
C15    C     0.86642   0.23545   0.40089   0.00000  Uiso   1.00
C16    C     0.88498   0.27676   0.33029   0.00000  Uiso   1.00
C17    C     0.92653   0.24048   0.26899   0.00000  Uiso   1.00
C18    C     0.87059   0.25139   0.55219   0.00000  Uiso   1.00
C19    C     0.89266   0.30608   0.60881   0.00000  Uiso   1.00
C20    C     0.93770   0.28322   0.67490   0.00000  Uiso   1.00
C21    C     0.75508   0.21069   0.48473   0.00000  Uiso   1.00
C22    C     0.68003   0.23117   0.48466   0.00000  Uiso   1.00
C23    C     0.62783   0.17404   0.49398   0.00000  Uiso   1.00
H24    H     0.87938   0.06784   0.49920   0.00000  Uiso   1.00
H25    H     0.94720   0.06628   0.35578   0.00000  Uiso   1.00
H26    H     0.95486   0.09560   0.63427   0.00000  Uiso   1.00
H27    H     0.74227   0.02070   0.51013   0.00000  Uiso   1.00
H28    H     0.01266   0.09758   0.19280   0.00000  Uiso   1.00
H29    H     0.02879   0.15941   0.78001   0.00000  Uiso   1.00
H30    H     0.58050   0.00145   0.51825   0.00000  Uiso   1.00
H31    H     0.80415   0.32230   0.46841   0.00000  Uiso   1.00
H32    H     0.86785   0.33470   0.32329   0.00000  Uiso   1.00
H33    H     0.87551   0.36403   0.60178   0.00000  Uiso   1.00
H34    H     0.66292   0.28912   0.47765   0.00000  Uiso   1.00
H35    H     0.94826   0.31545   0.16643   0.00000  Uiso   1.00
H36    H     0.96439   0.37727   0.75365   0.00000  Uiso   1.00
H37    H     0.51610   0.21931   0.49189   0.00000  Uiso   1.00
O38    O     0.02374   0.21009   0.08472   0.00000  Uiso   1.00
O39    O     0.04489   0.29120   0.85514   0.00000  Uiso   1.00
O40    O     0.45675   0.08396   0.51171   0.00000  Uiso   1.00
N41    N     0.98875   0.14715   0.20650   0.00000  Uiso   1.00
N42    N     0.00384   0.20495   0.75550   0.00000  Uiso   1.00
N43    N     0.58473   0.05728   0.51080   0.00000  Uiso   1.00
N44    N     0.95409   0.26438   0.19231   0.00000  Uiso   1.00
N45    N     0.96918   0.32218   0.74132   0.00000  Uiso   1.00
N46    N     0.55007   0.17451   0.49661   0.00000  Uiso   1.00
C47    C     0.13786   0.87387   0.49214   0.00000  Uiso   1.00
C48    C     0.11145   0.83943   0.40994   0.00000  Uiso   1.00
C49    C     0.06992   0.87577   0.34874   0.00000  Uiso   1.00
C50    C     0.05130   0.83454   0.27807   0.00000  Uiso   1.00
C51    C     0.00688   0.79244   0.15184   0.00000  Uiso   1.00
C52    C     0.10727   0.82349   0.56125   0.00000  Uiso   1.00
C53    C     0.06225   0.84644   0.62727   0.00000  Uiso   1.00
C54    C     0.04012   0.79179   0.68397   0.00000  Uiso   1.00
C55    C     0.98928   0.72497   0.79268   0.00000  Uiso   1.00
C56    C     0.22278   0.86420   0.49379   0.00000  Uiso   1.00
C57    C     0.27488   0.92136   0.50312   0.00000  Uiso   1.00
C58    C     0.35000   0.90098   0.50305   0.00000  Uiso   1.00
C59    C     0.47849   0.89735   0.50702   0.00000  Uiso   1.00
C60    C     0.17861   0.73600   0.47546   0.00000  Uiso   1.00
C61    C     0.13358   0.76455   0.40089   0.00000  Uiso   1.00
C62    C     0.11502   0.72324   0.33029   0.00000  Uiso   1.00
C63    C     0.07347   0.75952   0.26899   0.00000  Uiso   1.00
C64    C     0.12941   0.74861   0.55219   0.00000  Uiso   1.00
C65    C     0.10734   0.69392   0.60881   0.00000  Uiso   1.00
C66    C     0.06230   0.71678   0.67490   0.00000  Uiso   1.00
C67    C     0.24492   0.78931   0.48473   0.00000  Uiso   1.00
C68    C     0.31997   0.76883   0.48466   0.00000  Uiso   1.00
C69    C     0.37217   0.82596   0.49398   0.00000  Uiso   1.00
H70    H     0.12062   0.93216   0.49920   0.00000  Uiso   1.00
H71    H     0.05280   0.93372   0.35578   0.00000  Uiso   1.00
H72    H     0.04514   0.90440   0.63427   0.00000  Uiso   1.00
H73    H     0.25773   0.97930   0.51013   0.00000  Uiso   1.00
H74    H     0.98734   0.90242   0.19280   0.00000  Uiso   1.00
H75    H     0.97121   0.84059   0.78001   0.00000  Uiso   1.00
H76    H     0.41950   0.99855   0.51825   0.00000  Uiso   1.00
H77    H     0.19585   0.67770   0.46841   0.00000  Uiso   1.00
H78    H     0.13215   0.66530   0.32329   0.00000  Uiso   1.00
H79    H     0.12449   0.63597   0.60178   0.00000  Uiso   1.00
H80    H     0.33708   0.71088   0.47765   0.00000  Uiso   1.00
H81    H     0.05174   0.68455   0.16643   0.00000  Uiso   1.00
H82    H     0.03561   0.62273   0.75365   0.00000  Uiso   1.00
H83    H     0.48390   0.78069   0.49189   0.00000  Uiso   1.00
O84    O     0.97626   0.78991   0.08472   0.00000  Uiso   1.00
O85    O     0.95511   0.70880   0.85514   0.00000  Uiso   1.00
O86    O     0.54325   0.91604   0.51171   0.00000  Uiso   1.00
N87    N     0.01125   0.85285   0.20650   0.00000  Uiso   1.00
N88    N     0.99616   0.79505   0.75550   0.00000  Uiso   1.00
N89    N     0.41527   0.94272   0.51080   0.00000  Uiso   1.00
N90    N     0.04591   0.73562   0.19231   0.00000  Uiso   1.00
N91    N     0.03082   0.67782   0.74132   0.00000  Uiso   1.00
N92    N     0.44993   0.82549   0.49661   0.00000  Uiso   1.00
C93    C     0.37387   0.36214   0.99214   0.00000  Uiso   1.00
C94    C     0.33943   0.38855   0.90994   0.00000  Uiso   1.00
C95    C     0.37577   0.43008   0.84874   0.00000  Uiso   1.00
C96    C     0.33454   0.44870   0.77807   0.00000  Uiso   1.00
C97    C     0.29244   0.49312   0.65184   0.00000  Uiso   1.00
C98    C     0.32349   0.39273   0.06125   0.00000  Uiso   1.00
C99    C     0.34644   0.43775   0.12727   0.00000  Uiso   1.00
C100   C     0.29179   0.45988   0.18397   0.00000  Uiso   1.00
C101   C     0.22497   0.51072   0.29268   0.00000  Uiso   1.00
C102   C     0.36420   0.27722   0.99379   0.00000  Uiso   1.00
C103   C     0.42136   0.22512   0.00312   0.00000  Uiso   1.00
C104   C     0.40098   0.15000   0.00305   0.00000  Uiso   1.00
C105   C     0.39735   0.02151   0.00702   0.00000  Uiso   1.00
C106   C     0.23600   0.32139   0.97546   0.00000  Uiso   1.00
C107   C     0.26455   0.36642   0.90089   0.00000  Uiso   1.00
C108   C     0.22324   0.38498   0.83029   0.00000  Uiso   1.00
C109   C     0.25952   0.42653   0.76899   0.00000  Uiso   1.00
C110   C     0.24861   0.37059   0.05219   0.00000  Uiso   1.00
C111   C     0.19392   0.39266   0.10881   0.00000  Uiso   1.00
C112   C     0.21678   0.43770   0.17490   0.00000  Uiso   1.00
C113   C     0.28931   0.25508   0.98473   0.00000  Uiso   1.00
C114   C     0.26883   0.18003   0.98466   0.00000  Uiso   1.00
C115   C     0.32596   0.12783   0.99398   0.00000  Uiso   1.00
H116   H     0.43216   0.37938   0.99920   0.00000  Uiso   1.00
H117   H     0.43372   0.44720   0.85578   0.00000  Uiso   1.00
H118   H     0.40440   0.45486   0.13427   0.00000  Uiso   1.00
H119   H     0.47930   0.24227   0.01013   0.00000  Uiso   1.00
H120   H     0.40242   0.51266   0.69280   0.00000  Uiso   1.00
H121   H     0.34059   0.52879   0.28001   0.00000  Uiso   1.00
H122   H     0.49855   0.08050   0.01825   0.00000  Uiso   1.00
H123   H     0.17770   0.30415   0.96841   0.00000  Uiso   1.00
H124   H     0.16530   0.36785   0.82329   0.00000  Uiso   1.00
H125   H     0.13597   0.37551   0.10178   0.00000  Uiso   1.00
H126   H     0.21088   0.16292   0.97765   0.00000  Uiso   1.00
H127   H     0.18455   0.44826   0.66643   0.00000  Uiso   1.00
H128   H     0.12273   0.46439   0.25365   0.00000  Uiso   1.00
H129   H     0.28069   0.01610   0.99189   0.00000  Uiso   1.00
O130   O     0.28991   0.52374   0.58472   0.00000  Uiso   1.00
O131   O     0.20880   0.54489   0.35514   0.00000  Uiso   1.00
O132   O     0.41604   0.95675   0.01171   0.00000  Uiso   1.00
N133   N     0.35285   0.48875   0.70650   0.00000  Uiso   1.00
N134   N     0.29505   0.50384   0.25550   0.00000  Uiso   1.00
N135   N     0.44272   0.08473   0.01080   0.00000  Uiso   1.00
N136   N     0.23562   0.45409   0.69231   0.00000  Uiso   1.00
N137   N     0.17782   0.46918   0.24132   0.00000  Uiso   1.00
N138   N     0.32549   0.05007   0.99661   0.00000  Uiso   1.00
C139   C     0.62613   0.63786   0.99214   0.00000  Uiso   1.00
C140   C     0.66057   0.61145   0.90994   0.00000  Uiso   1.00
C141   C     0.62423   0.56992   0.84874   0.00000  Uiso   1.00
C142   C     0.66546   0.55130   0.77807   0.00000  Uiso   1.00
C143   C     0.70756   0.50688   0.65184   0.00000  Uiso   1.00
C144   C     0.67651   0.60727   0.06125   0.00000  Uiso   1.00
C145   C     0.65356   0.56225   0.12727   0.00000  Uiso   1.00
C146   C     0.70821   0.54012   0.18397   0.00000  Uiso   1.00
C147   C     0.77503   0.48928   0.29268   0.00000  Uiso   1.00
C148   C     0.63580   0.72278   0.99379   0.00000  Uiso   1.00
C149   C     0.57864   0.77488   0.00312   0.00000  Uiso   1.00
C150   C     0.59902   0.85000   0.00305   0.00000  Uiso   1.00
C151   C     0.60265   0.97849   0.00702   0.00000  Uiso   1.00
C152   C     0.76400   0.67861   0.97546   0.00000  Uiso   1.00
C153   C     0.73545   0.63358   0.90089   0.00000  Uiso   1.00
C154   C     0.77676   0.61502   0.83029   0.00000  Uiso   1.00
C155   C     0.74048   0.57347   0.76899   0.00000  Uiso   1.00
C156   C     0.75139   0.62941   0.05219   0.00000  Uiso   1.00
C157   C     0.80608   0.60734   0.10881   0.00000  Uiso   1.00
C158   C     0.78322   0.56230   0.17490   0.00000  Uiso   1.00
C159   C     0.71069   0.74492   0.98473   0.00000  Uiso   1.00
C160   C     0.73117   0.81997   0.98466   0.00000  Uiso   1.00
C161   C     0.67404   0.87217   0.99398   0.00000  Uiso   1.00
H162   H     0.56784   0.62062   0.99920   0.00000  Uiso   1.00
H163   H     0.56628   0.55280   0.85578   0.00000  Uiso   1.00
H164   H     0.59560   0.54514   0.13427   0.00000  Uiso   1.00
H165   H     0.52070   0.75773   0.01013   0.00000  Uiso   1.00
H166   H     0.59758   0.48734   0.69280   0.00000  Uiso   1.00
H167   H     0.65941   0.47121   0.28001   0.00000  Uiso   1.00
H168   H     0.50145   0.91950   0.01825   0.00000  Uiso   1.00
H169   H     0.82230   0.69585   0.96841   0.00000  Uiso   1.00
H170   H     0.83470   0.63215   0.82329   0.00000  Uiso   1.00
H171   H     0.86403   0.62449   0.10178   0.00000  Uiso   1.00
H172   H     0.78912   0.83708   0.97765   0.00000  Uiso   1.00
H173   H     0.81545   0.55174   0.66643   0.00000  Uiso   1.00
H174   H     0.87727   0.53561   0.25365   0.00000  Uiso   1.00
H175   H     0.71931   0.98390   0.99189   0.00000  Uiso   1.00
O176   O     0.71009   0.47626   0.58472   0.00000  Uiso   1.00
O177   O     0.79120   0.45511   0.35514   0.00000  Uiso   1.00
O178   O     0.58396   0.04325   0.01171   0.00000  Uiso   1.00
N179   N     0.64715   0.51125   0.70650   0.00000  Uiso   1.00
N180   N     0.70495   0.49616   0.25550   0.00000  Uiso   1.00
N181   N     0.55728   0.91527   0.01080   0.00000  Uiso   1.00
N182   N     0.76438   0.54591   0.69231   0.00000  Uiso   1.00
N183   N     0.82218   0.53082   0.24132   0.00000  Uiso   1.00
N184   N     0.67451   0.94993   0.99661   0.00000  Uiso   1.00
C185   C     0.63786   0.37387   0.00786   0.00000  Uiso   1.00
C186   C     0.61145   0.33943   0.09006   0.00000  Uiso   1.00
C187   C     0.56992   0.37577   0.15126   0.00000  Uiso   1.00
C188   C     0.55130   0.33454   0.22193   0.00000  Uiso   1.00
C189   C     0.50688   0.29244   0.34816   0.00000  Uiso   1.00
C190   C     0.60727   0.32349   0.93875   0.00000  Uiso   1.00
C191   C     0.56225   0.34644   0.87273   0.00000  Uiso   1.00
C192   C     0.54012   0.29179   0.81603   0.00000  Uiso   1.00
C193   C     0.48928   0.22497   0.70732   0.00000  Uiso   1.00
C194   C     0.72278   0.36420   0.00621   0.00000  Uiso   1.00
C195   C     0.77488   0.42136   0.99688   0.00000  Uiso   1.00
C196   C     0.85000   0.40098   0.99695   0.00000  Uiso   1.00
C197   C     0.97849   0.39735   0.99298   0.00000  Uiso   1.00
C198   C     0.67861   0.23600   0.02454   0.00000  Uiso   1.00
C199   C     0.63358   0.26455   0.09911   0.00000  Uiso   1.00
C200   C     0.61502   0.22324   0.16971   0.00000  Uiso   1.00
C201   C     0.57347   0.25952   0.23101   0.00000  Uiso   1.00
C202   C     0.62941   0.24861   0.94781   0.00000  Uiso   1.00
C203   C     0.60734   0.19392   0.89119   0.00000  Uiso   1.00
C204   C     0.56230   0.21678   0.82510   0.00000  Uiso   1.00
C205   C     0.74492   0.28931   0.01527   0.00000  Uiso   1.00
C206   C     0.81997   0.26883   0.01534   0.00000  Uiso   1.00
C207   C     0.87217   0.32596   0.00602   0.00000  Uiso   1.00
H208   H     0.62062   0.43216   0.00080   0.00000  Uiso   1.00
H209   H     0.55280   0.43372   0.14422   0.00000  Uiso   1.00
H210   H     0.54514   0.40440   0.86573   0.00000  Uiso   1.00
H211   H     0.75773   0.47930   0.98987   0.00000  Uiso   1.00
H212   H     0.48734   0.40242   0.30720   0.00000  Uiso   1.00
H213   H     0.47121   0.34059   0.71999   0.00000  Uiso   1.00
H214   H     0.91950   0.49855   0.98175   0.00000  Uiso   1.00
H215   H     0.69585   0.17770   0.03159   0.00000  Uiso   1.00
H216   H     0.63215   0.16530   0.17671   0.00000  Uiso   1.00
H217   H     0.62449   0.13597   0.89822   0.00000  Uiso   1.00
H218   H     0.83708   0.21088   0.02235   0.00000  Uiso   1.00
H219   H     0.55174   0.18455   0.33357   0.00000  Uiso   1.00
H220   H     0.53561   0.12273   0.74635   0.00000  Uiso   1.00
H221   H     0.98390   0.28069   0.00811   0.00000  Uiso   1.00
O222   O     0.47626   0.28991   0.41528   0.00000  Uiso   1.00
O223   O     0.45511   0.20880   0.64486   0.00000  Uiso   1.00
O224   O     0.04325   0.41604   0.98829   0.00000  Uiso   1.00
N225   N     0.51125   0.35285   0.29350   0.00000  Uiso   1.00
N226   N     0.49616   0.29505   0.74450   0.00000  Uiso   1.00
N227   N     0.91527   0.44272   0.98920   0.00000  Uiso   1.00
N228   N     0.54591   0.23562   0.30769   0.00000  Uiso   1.00
N229   N     0.53082   0.17782   0.75868   0.00000  Uiso   1.00
N230   N     0.94993   0.32549   0.00339   0.00000  Uiso   1.00
C231   C     0.36214   0.62613   0.00786   0.00000  Uiso   1.00
C232   C     0.38855   0.66057   0.09006   0.00000  Uiso   1.00
C233   C     0.43008   0.62423   0.15126   0.00000  Uiso   1.00
C234   C     0.44870   0.66546   0.22193   0.00000  Uiso   1.00
C235   C     0.49312   0.70756   0.34816   0.00000  Uiso   1.00
C236   C     0.39273   0.67651   0.93875   0.00000  Uiso   1.00
C237   C     0.43775   0.65356   0.87273   0.00000  Uiso   1.00
C238   C     0.45988   0.70821   0.81603   0.00000  Uiso   1.00
C239   C     0.51072   0.77503   0.70732   0.00000  Uiso   1.00
C240   C     0.27722   0.63580   0.00621   0.00000  Uiso   1.00
C241   C     0.22512   0.57864   0.99688   0.00000  Uiso   1.00
C242   C     0.15000   0.59902   0.99695   0.00000  Uiso   1.00
C243   C     0.02151   0.60265   0.99298   0.00000  Uiso   1.00
C244   C     0.32139   0.76400   0.02454   0.00000  Uiso   1.00
C245   C     0.36642   0.73545   0.09911   0.00000  Uiso   1.00
C246   C     0.38498   0.77676   0.16971   0.00000  Uiso   1.00
C247   C     0.42653   0.74048   0.23101   0.00000  Uiso   1.00
C248   C     0.37059   0.75139   0.94781   0.00000  Uiso   1.00
C249   C     0.39266   0.80608   0.89119   0.00000  Uiso   1.00
C250   C     0.43770   0.78322   0.82510   0.00000  Uiso   1.00
C251   C     0.25508   0.71069   0.01527   0.00000  Uiso   1.00
C252   C     0.18003   0.73117   0.01534   0.00000  Uiso   1.00
C253   C     0.12783   0.67404   0.00602   0.00000  Uiso   1.00
H254   H     0.37938   0.56784   0.00080   0.00000  Uiso   1.00
H255   H     0.44720   0.56628   0.14422   0.00000  Uiso   1.00
H256   H     0.45486   0.59560   0.86573   0.00000  Uiso   1.00
H257   H     0.24227   0.52070   0.98987   0.00000  Uiso   1.00
H258   H     0.51266   0.59758   0.30720   0.00000  Uiso   1.00
H259   H     0.52879   0.65941   0.71999   0.00000  Uiso   1.00
H260   H     0.08050   0.50145   0.98175   0.00000  Uiso   1.00
H261   H     0.30415   0.82230   0.03159   0.00000  Uiso   1.00
H262   H     0.36785   0.83470   0.17671   0.00000  Uiso   1.00
H263   H     0.37551   0.86403   0.89822   0.00000  Uiso   1.00
H264   H     0.16292   0.78912   0.02235   0.00000  Uiso   1.00
H265   H     0.44826   0.81545   0.33357   0.00000  Uiso   1.00
H266   H     0.46439   0.87727   0.74635   0.00000  Uiso   1.00
H267   H     0.01610   0.71931   0.00811   0.00000  Uiso   1.00
O268   O     0.52374   0.71009   0.41528   0.00000  Uiso   1.00
O269   O     0.54489   0.79120   0.64486   0.00000  Uiso   1.00
O270   O     0.95675   0.58396   0.98829   0.00000  Uiso   1.00
N271   N     0.48875   0.64715   0.29350   0.00000  Uiso   1.00
N272   N     0.50384   0.70495   0.74450   0.00000  Uiso   1.00
N273   N     0.08473   0.55728   0.98920   0.00000  Uiso   1.00
N274   N     0.45409   0.76438   0.30769   0.00000  Uiso   1.00
N275   N     0.46918   0.82218   0.75868   0.00000  Uiso   1.00
N276   N     0.05007   0.67451   0.00339   0.00000  Uiso   1.00
C277   C     0.12613   0.13786   0.50786   0.00000  Uiso   1.00
C278   C     0.16057   0.11145   0.59006   0.00000  Uiso   1.00
C279   C     0.12423   0.06992   0.65126   0.00000  Uiso   1.00
C280   C     0.16546   0.05130   0.72193   0.00000  Uiso   1.00
C281   C     0.20756   0.00688   0.84816   0.00000  Uiso   1.00
C282   C     0.17651   0.10727   0.43875   0.00000  Uiso   1.00
C283   C     0.15356   0.06225   0.37273   0.00000  Uiso   1.00
C284   C     0.20821   0.04012   0.31603   0.00000  Uiso   1.00
C285   C     0.27503   0.98928   0.20732   0.00000  Uiso   1.00
C286   C     0.13580   0.22278   0.50621   0.00000  Uiso   1.00
C287   C     0.07864   0.27488   0.49688   0.00000  Uiso   1.00
C288   C     0.09902   0.35000   0.49695   0.00000  Uiso   1.00
C289   C     0.10265   0.47849   0.49298   0.00000  Uiso   1.00
C290   C     0.26400   0.17861   0.52454   0.00000  Uiso   1.00
C291   C     0.23545   0.13358   0.59911   0.00000  Uiso   1.00
C292   C     0.27676   0.11502   0.66971   0.00000  Uiso   1.00
C293   C     0.24048   0.07347   0.73101   0.00000  Uiso   1.00
C294   C     0.25139   0.12941   0.44781   0.00000  Uiso   1.00
C295   C     0.30608   0.10734   0.39119   0.00000  Uiso   1.00
C296   C     0.28322   0.06230   0.32510   0.00000  Uiso   1.00
C297   C     0.21069   0.24492   0.51527   0.00000  Uiso   1.00
C298   C     0.23117   0.31997   0.51534   0.00000  Uiso   1.00
C299   C     0.17404   0.37217   0.50602   0.00000  Uiso   1.00
H300   H     0.06784   0.12062   0.50080   0.00000  Uiso   1.00
H301   H     0.06628   0.05280   0.64422   0.00000  Uiso   1.00
H302   H     0.09560   0.04514   0.36573   0.00000  Uiso   1.00
H303   H     0.02070   0.25773   0.48987   0.00000  Uiso   1.00
H304   H     0.09758   0.98734   0.80720   0.00000  Uiso   1.00
H305   H     0.15941   0.97121   0.21999   0.00000  Uiso   1.00
H306   H     0.00145   0.41950   0.48175   0.00000  Uiso   1.00
H307   H     0.32230   0.19585   0.53159   0.00000  Uiso   1.00
H308   H     0.33470   0.13215   0.67671   0.00000  Uiso   1.00
H309   H     0.36403   0.12449   0.39822   0.00000  Uiso   1.00
H310   H     0.28912   0.33708   0.52235   0.00000  Uiso   1.00
H311   H     0.31545   0.05174   0.83357   0.00000  Uiso   1.00
H312   H     0.37727   0.03561   0.24635   0.00000  Uiso   1.00
H313   H     0.21931   0.48390   0.50811   0.00000  Uiso   1.00
O314   O     0.21009   0.97626   0.91528   0.00000  Uiso   1.00
O315   O     0.29120   0.95511   0.14486   0.00000  Uiso   1.00
O316   O     0.08396   0.54325   0.48829   0.00000  Uiso   1.00
N317   N     0.14715   0.01125   0.79350   0.00000  Uiso   1.00
N318   N     0.20495   0.99616   0.24450   0.00000  Uiso   1.00
N319   N     0.05728   0.41527   0.48920   0.00000  Uiso   1.00
N320   N     0.26438   0.04591   0.80769   0.00000  Uiso   1.00
N321   N     0.32218   0.03082   0.25868   0.00000  Uiso   1.00
N322   N     0.17451   0.44993   0.50339   0.00000  Uiso   1.00
C323   C     0.87387   0.86214   0.50786   0.00000  Uiso   1.00
C324   C     0.83943   0.88855   0.59006   0.00000  Uiso   1.00
C325   C     0.87577   0.93008   0.65126   0.00000  Uiso   1.00
C326   C     0.83454   0.94870   0.72193   0.00000  Uiso   1.00
C327   C     0.79244   0.99312   0.84816   0.00000  Uiso   1.00
C328   C     0.82349   0.89273   0.43875   0.00000  Uiso   1.00
C329   C     0.84644   0.93775   0.37273   0.00000  Uiso   1.00
C330   C     0.79179   0.95988   0.31603   0.00000  Uiso   1.00
C331   C     0.72497   0.01072   0.20732   0.00000  Uiso   1.00
C332   C     0.86420   0.77722   0.50621   0.00000  Uiso   1.00
C333   C     0.92136   0.72512   0.49688   0.00000  Uiso   1.00
C334   C     0.90098   0.65000   0.49695   0.00000  Uiso   1.00
C335   C     0.89735   0.52151   0.49298   0.00000  Uiso   1.00
C336   C     0.73600   0.82139   0.52454   0.00000  Uiso   1.00
C337   C     0.76455   0.86642   0.59911   0.00000  Uiso   1.00
C338   C     0.72324   0.88498   0.66971   0.00000  Uiso   1.00
C339   C     0.75952   0.92653   0.73101   0.00000  Uiso   1.00
C340   C     0.74861   0.87059   0.44781   0.00000  Uiso   1.00
C341   C     0.69392   0.89266   0.39119   0.00000  Uiso   1.00
C342   C     0.71678   0.93770   0.32510   0.00000  Uiso   1.00
C343   C     0.78931   0.75508   0.51527   0.00000  Uiso   1.00
C344   C     0.76883   0.68003   0.51534   0.00000  Uiso   1.00
C345   C     0.82596   0.62783   0.50602   0.00000  Uiso   1.00
H346   H     0.93216   0.87938   0.50080   0.00000  Uiso   1.00
H347   H     0.93372   0.94720   0.64422   0.00000  Uiso   1.00
H348   H     0.90440   0.95486   0.36573   0.00000  Uiso   1.00
H349   H     0.97930   0.74227   0.48987   0.00000  Uiso   1.00
H350   H     0.90242   0.01266   0.80720   0.00000  Uiso   1.00
H351   H     0.84059   0.02879   0.21999   0.00000  Uiso   1.00
H352   H     0.99855   0.58050   0.48175   0.00000  Uiso   1.00
H353   H     0.67770   0.80415   0.53159   0.00000  Uiso   1.00
H354   H     0.66530   0.86785   0.67671   0.00000  Uiso   1.00
H355   H     0.63597   0.87551   0.39822   0.00000  Uiso   1.00
H356   H     0.71088   0.66292   0.52235   0.00000  Uiso   1.00
H357   H     0.68455   0.94826   0.83357   0.00000  Uiso   1.00
H358   H     0.62273   0.96439   0.24635   0.00000  Uiso   1.00
H359   H     0.78069   0.51610   0.50811   0.00000  Uiso   1.00
O360   O     0.78991   0.02374   0.91528   0.00000  Uiso   1.00
O361   O     0.70880   0.04489   0.14486   0.00000  Uiso   1.00
O362   O     0.91604   0.45675   0.48829   0.00000  Uiso   1.00
N363   N     0.85285   0.98875   0.79350   0.00000  Uiso   1.00
N364   N     0.79505   0.00384   0.24450   0.00000  Uiso   1.00
N365   N     0.94272   0.58473   0.48920   0.00000  Uiso   1.00
N366   N     0.73562   0.95409   0.80769   0.00000  Uiso   1.00
N367   N     0.67782   0.96918   0.25868   0.00000  Uiso   1.00
N368   N     0.82549   0.55007   0.50339   0.00000  Uiso   1.00
