data_job_00182
_audit_creation_date              2018-12-19
_audit_creation_method            'Materials Studio'
_symmetry_space_group_name_H-M    'P1'
_symmetry_Int_Tables_number       1
_symmetry_cell_setting            triclinic
loop_
_symmetry_equiv_pos_as_xyz
  x,y,z
_cell_length_a                    19.3586
_cell_length_b                    11.9147
_cell_length_c                    12.8544
_cell_angle_alpha                 90.0000
_cell_angle_beta                  83.3188
_cell_angle_gamma                 90.0000
loop_
_atom_site_label
_atom_site_type_symbol
_atom_site_fract_x
_atom_site_fract_y
_atom_site_fract_z
_atom_site_U_iso_or_equiv
_atom_site_adp_type
_atom_site_occupancy
C1     C     0.80462   0.78014   0.18230   0.00000  Uiso   1.00
C2     C     0.81642   0.72111   0.28400   0.00000  Uiso   1.00
C3     C     0.87808   0.67147   0.30533   0.00000  Uiso   1.00
C4     C     0.87831   0.62176   0.40297   0.00000  Uiso   1.00
C5     C     0.90565   0.53005   0.54967   0.00000  Uiso   1.00
C6     C     0.74292   0.72110   0.14249   0.00000  Uiso   1.00
C7     C     0.74278   0.67148   0.04484   0.00000  Uiso   1.00
C8     C     0.68113   0.62177   0.02336   0.00000  Uiso   1.00
C9     C     0.59435   0.53013   0.95034   0.00000  Uiso   1.00
C10    C     0.77966   0.89819   0.21324   0.00000  Uiso   1.00
C11    C     0.81040   0.99746   0.17505   0.00000  Uiso   1.00
C12    C     0.77967   0.09685   0.21312   0.00000  Uiso   1.00
C13    C     0.74993   0.28016   0.24995   0.00000  Uiso   1.00
C14    C     0.69538   0.78013   0.31778   0.00000  Uiso   1.00
C15    C     0.75708   0.72110   0.35758   0.00000  Uiso   1.00
C16    C     0.75722   0.67145   0.45523   0.00000  Uiso   1.00
C17    C     0.81887   0.62175   0.47670   0.00000  Uiso   1.00
C18    C     0.68359   0.72110   0.21608   0.00000  Uiso   1.00
C19    C     0.62193   0.67146   0.19474   0.00000  Uiso   1.00
C20    C     0.62169   0.62176   0.09708   0.00000  Uiso   1.00
C21    C     0.72033   0.89818   0.28683   0.00000  Uiso   1.00
C22    C     0.68954   0.99744   0.32496   0.00000  Uiso   1.00
C23    C     0.72023   0.09684   0.28684   0.00000  Uiso   1.00
H24    H     0.85081   0.78014   0.12500   0.00000  Uiso   1.00
H25    H     0.92398   0.67148   0.24835   0.00000  Uiso   1.00
H26    H     0.78870   0.67150   0.98791   0.00000  Uiso   1.00
H27    H     0.85631   0.99743   0.11811   0.00000  Uiso   1.00
H28    H     0.97893   0.55098   0.41755   0.00000  Uiso   1.00
H29    H     0.69368   0.55105   0.86837   0.00000  Uiso   1.00
H30    H     0.83625   0.23834   0.14292   0.00000  Uiso   1.00
H31    H     0.64919   0.78012   0.37507   0.00000  Uiso   1.00
H32    H     0.71130   0.67146   0.51216   0.00000  Uiso   1.00
H33    H     0.57602   0.67148   0.25170   0.00000  Uiso   1.00
H34    H     0.64363   0.99740   0.38190   0.00000  Uiso   1.00
H35    H     0.80632   0.55095   0.63166   0.00000  Uiso   1.00
H36    H     0.52106   0.55103   0.08247   0.00000  Uiso   1.00
H37    H     0.66363   0.23831   0.35703   0.00000  Uiso   1.00
O38    O     0.93711   0.47945   0.61026   0.00000  Uiso   1.00
O39    O     0.56287   0.47957   0.88974   0.00000  Uiso   1.00
O40    O     0.74992   0.38126   0.24995   0.00000  Uiso   1.00
N41    N     0.92979   0.56590   0.44914   0.00000  Uiso   1.00
N42    N     0.66310   0.56595   0.93569   0.00000  Uiso   1.00
N43    N     0.79637   0.20851   0.19235   0.00000  Uiso   1.00
N44    N     0.83690   0.56589   0.56435   0.00000  Uiso   1.00
N45    N     0.57021   0.56594   0.05090   0.00000  Uiso   1.00
N46    N     0.70349   0.20850   0.30756   0.00000  Uiso   1.00
C47    C     0.19538   0.78014   0.31770   0.00000  Uiso   1.00
C48    C     0.18358   0.72111   0.21600   0.00000  Uiso   1.00
C49    C     0.12192   0.67147   0.19467   0.00000  Uiso   1.00
C50    C     0.12169   0.62176   0.09703   0.00000  Uiso   1.00
C51    C     0.09435   0.53005   0.95033   0.00000  Uiso   1.00
C52    C     0.25708   0.72110   0.35751   0.00000  Uiso   1.00
C53    C     0.25722   0.67148   0.45516   0.00000  Uiso   1.00
C54    C     0.31887   0.62177   0.47664   0.00000  Uiso   1.00
C55    C     0.40565   0.53013   0.54966   0.00000  Uiso   1.00
C56    C     0.22034   0.89819   0.28676   0.00000  Uiso   1.00
C57    C     0.18960   0.99746   0.32495   0.00000  Uiso   1.00
C58    C     0.22033   0.09685   0.28688   0.00000  Uiso   1.00
C59    C     0.25007   0.28016   0.25005   0.00000  Uiso   1.00
C60    C     0.30462   0.78013   0.18222   0.00000  Uiso   1.00
C61    C     0.24292   0.72110   0.14242   0.00000  Uiso   1.00
C62    C     0.24278   0.67145   0.04477   0.00000  Uiso   1.00
C63    C     0.18113   0.62175   0.02330   0.00000  Uiso   1.00
C64    C     0.31641   0.72110   0.28392   0.00000  Uiso   1.00
C65    C     0.37807   0.67146   0.30526   0.00000  Uiso   1.00
C66    C     0.37831   0.62176   0.40292   0.00000  Uiso   1.00
C67    C     0.27967   0.89818   0.21317   0.00000  Uiso   1.00
C68    C     0.31046   0.99744   0.17504   0.00000  Uiso   1.00
C69    C     0.27977   0.09684   0.21316   0.00000  Uiso   1.00
H70    H     0.14919   0.78014   0.37500   0.00000  Uiso   1.00
H71    H     0.07602   0.67148   0.25165   0.00000  Uiso   1.00
H72    H     0.21130   0.67150   0.51209   0.00000  Uiso   1.00
H73    H     0.14369   0.99743   0.38189   0.00000  Uiso   1.00
H74    H     0.02107   0.55098   0.08245   0.00000  Uiso   1.00
H75    H     0.30632   0.55105   0.63163   0.00000  Uiso   1.00
H76    H     0.16375   0.23834   0.35708   0.00000  Uiso   1.00
H77    H     0.35081   0.78012   0.12493   0.00000  Uiso   1.00
H78    H     0.28870   0.67146   0.98784   0.00000  Uiso   1.00
H79    H     0.42398   0.67148   0.24830   0.00000  Uiso   1.00
H80    H     0.35637   0.99740   0.11810   0.00000  Uiso   1.00
H81    H     0.19368   0.55095   0.86834   0.00000  Uiso   1.00
H82    H     0.47894   0.55103   0.41753   0.00000  Uiso   1.00
H83    H     0.33637   0.23831   0.14297   0.00000  Uiso   1.00
O84    O     0.06289   0.47945   0.88974   0.00000  Uiso   1.00
O85    O     0.43713   0.47957   0.61026   0.00000  Uiso   1.00
O86    O     0.25008   0.38126   0.25005   0.00000  Uiso   1.00
N87    N     0.07021   0.56590   0.05086   0.00000  Uiso   1.00
N88    N     0.33690   0.56595   0.56431   0.00000  Uiso   1.00
N89    N     0.20363   0.20851   0.30765   0.00000  Uiso   1.00
N90    N     0.16310   0.56589   0.93565   0.00000  Uiso   1.00
N91    N     0.42979   0.56594   0.44910   0.00000  Uiso   1.00
N92    N     0.29651   0.20850   0.19244   0.00000  Uiso   1.00
C93    C     0.19538   0.21986   0.81770   0.00000  Uiso   1.00
C94    C     0.18358   0.27889   0.71600   0.00000  Uiso   1.00
C95    C     0.12192   0.32853   0.69467   0.00000  Uiso   1.00
C96    C     0.12169   0.37824   0.59703   0.00000  Uiso   1.00
C97    C     0.09435   0.46995   0.45033   0.00000  Uiso   1.00
C98    C     0.25708   0.27890   0.85751   0.00000  Uiso   1.00
C99    C     0.25722   0.32852   0.95516   0.00000  Uiso   1.00
C100   C     0.31887   0.37823   0.97664   0.00000  Uiso   1.00
C101   C     0.40565   0.46987   0.04966   0.00000  Uiso   1.00
C102   C     0.22034   0.10181   0.78676   0.00000  Uiso   1.00
C103   C     0.18960   0.00254   0.82495   0.00000  Uiso   1.00
C104   C     0.22033   0.90315   0.78688   0.00000  Uiso   1.00
C105   C     0.25007   0.71984   0.75005   0.00000  Uiso   1.00
C106   C     0.30462   0.21987   0.68222   0.00000  Uiso   1.00
C107   C     0.24292   0.27890   0.64242   0.00000  Uiso   1.00
C108   C     0.24278   0.32855   0.54477   0.00000  Uiso   1.00
C109   C     0.18113   0.37825   0.52330   0.00000  Uiso   1.00
C110   C     0.31641   0.27890   0.78392   0.00000  Uiso   1.00
C111   C     0.37807   0.32854   0.80526   0.00000  Uiso   1.00
C112   C     0.37831   0.37824   0.90292   0.00000  Uiso   1.00
C113   C     0.27967   0.10182   0.71317   0.00000  Uiso   1.00
C114   C     0.31046   0.00256   0.67504   0.00000  Uiso   1.00
C115   C     0.27977   0.90316   0.71316   0.00000  Uiso   1.00
H116   H     0.14919   0.21986   0.87500   0.00000  Uiso   1.00
H117   H     0.07602   0.32852   0.75165   0.00000  Uiso   1.00
H118   H     0.21130   0.32850   0.01209   0.00000  Uiso   1.00
H119   H     0.14369   0.00257   0.88189   0.00000  Uiso   1.00
H120   H     0.02107   0.44902   0.58245   0.00000  Uiso   1.00
H121   H     0.30632   0.44895   0.13163   0.00000  Uiso   1.00
H122   H     0.16375   0.76166   0.85708   0.00000  Uiso   1.00
H123   H     0.35081   0.21988   0.62493   0.00000  Uiso   1.00
H124   H     0.28870   0.32854   0.48784   0.00000  Uiso   1.00
H125   H     0.42398   0.32852   0.74830   0.00000  Uiso   1.00
H126   H     0.35637   0.00260   0.61810   0.00000  Uiso   1.00
H127   H     0.19368   0.44905   0.36834   0.00000  Uiso   1.00
H128   H     0.47894   0.44897   0.91753   0.00000  Uiso   1.00
H129   H     0.33637   0.76169   0.64297   0.00000  Uiso   1.00
O130   O     0.06289   0.52055   0.38974   0.00000  Uiso   1.00
O131   O     0.43713   0.52043   0.11026   0.00000  Uiso   1.00
O132   O     0.25008   0.61874   0.75005   0.00000  Uiso   1.00
N133   N     0.07021   0.43410   0.55086   0.00000  Uiso   1.00
N134   N     0.33690   0.43405   0.06431   0.00000  Uiso   1.00
N135   N     0.20363   0.79149   0.80765   0.00000  Uiso   1.00
N136   N     0.16310   0.43411   0.43565   0.00000  Uiso   1.00
N137   N     0.42979   0.43406   0.94910   0.00000  Uiso   1.00
N138   N     0.29651   0.79150   0.69244   0.00000  Uiso   1.00
C139   C     0.80462   0.21986   0.68230   0.00000  Uiso   1.00
C140   C     0.81642   0.27889   0.78400   0.00000  Uiso   1.00
C141   C     0.87808   0.32853   0.80533   0.00000  Uiso   1.00
C142   C     0.87831   0.37824   0.90297   0.00000  Uiso   1.00
C143   C     0.90565   0.46995   0.04967   0.00000  Uiso   1.00
C144   C     0.74292   0.27890   0.64249   0.00000  Uiso   1.00
C145   C     0.74278   0.32852   0.54484   0.00000  Uiso   1.00
C146   C     0.68113   0.37823   0.52336   0.00000  Uiso   1.00
C147   C     0.59435   0.46987   0.45034   0.00000  Uiso   1.00
C148   C     0.77966   0.10181   0.71324   0.00000  Uiso   1.00
C149   C     0.81040   0.00254   0.67505   0.00000  Uiso   1.00
C150   C     0.77967   0.90315   0.71312   0.00000  Uiso   1.00
C151   C     0.74993   0.71984   0.74995   0.00000  Uiso   1.00
C152   C     0.69538   0.21987   0.81778   0.00000  Uiso   1.00
C153   C     0.75708   0.27890   0.85758   0.00000  Uiso   1.00
C154   C     0.75722   0.32855   0.95523   0.00000  Uiso   1.00
C155   C     0.81887   0.37825   0.97670   0.00000  Uiso   1.00
C156   C     0.68359   0.27890   0.71608   0.00000  Uiso   1.00
C157   C     0.62193   0.32854   0.69474   0.00000  Uiso   1.00
C158   C     0.62169   0.37824   0.59708   0.00000  Uiso   1.00
C159   C     0.72033   0.10182   0.78683   0.00000  Uiso   1.00
C160   C     0.68954   0.00256   0.82496   0.00000  Uiso   1.00
C161   C     0.72023   0.90316   0.78684   0.00000  Uiso   1.00
H162   H     0.85081   0.21986   0.62500   0.00000  Uiso   1.00
H163   H     0.92398   0.32852   0.74835   0.00000  Uiso   1.00
H164   H     0.78870   0.32850   0.48791   0.00000  Uiso   1.00
H165   H     0.85631   0.00257   0.61811   0.00000  Uiso   1.00
H166   H     0.97893   0.44902   0.91755   0.00000  Uiso   1.00
H167   H     0.69368   0.44895   0.36837   0.00000  Uiso   1.00
H168   H     0.83625   0.76166   0.64292   0.00000  Uiso   1.00
H169   H     0.64919   0.21988   0.87507   0.00000  Uiso   1.00
H170   H     0.71130   0.32854   0.01216   0.00000  Uiso   1.00
H171   H     0.57602   0.32852   0.75170   0.00000  Uiso   1.00
H172   H     0.64363   0.00260   0.88190   0.00000  Uiso   1.00
H173   H     0.80632   0.44905   0.13166   0.00000  Uiso   1.00
H174   H     0.52106   0.44897   0.58247   0.00000  Uiso   1.00
H175   H     0.66363   0.76169   0.85703   0.00000  Uiso   1.00
O176   O     0.93711   0.52055   0.11026   0.00000  Uiso   1.00
O177   O     0.56287   0.52043   0.38974   0.00000  Uiso   1.00
O178   O     0.74992   0.61874   0.74995   0.00000  Uiso   1.00
N179   N     0.92979   0.43410   0.94914   0.00000  Uiso   1.00
N180   N     0.66310   0.43405   0.43569   0.00000  Uiso   1.00
N181   N     0.79637   0.79149   0.69235   0.00000  Uiso   1.00
N182   N     0.83690   0.43411   0.06435   0.00000  Uiso   1.00
N183   N     0.57021   0.43406   0.55090   0.00000  Uiso   1.00
N184   N     0.70349   0.79150   0.80756   0.00000  Uiso   1.00
