data_job_01613
_audit_creation_date              2018-12-19
_audit_creation_method            'Materials Studio'
_symmetry_space_group_name_H-M    'P1'
_symmetry_Int_Tables_number       1
_symmetry_cell_setting            triclinic
loop_
_symmetry_equiv_pos_as_xyz
  x,y,z
_cell_length_a                    20.8102
_cell_length_b                    20.8102
_cell_length_c                    12.6774
_cell_angle_alpha                 90.0000
_cell_angle_beta                  90.0000
_cell_angle_gamma                 90.0000
loop_
_atom_site_label
_atom_site_type_symbol
_atom_site_fract_x
_atom_site_fract_y
_atom_site_fract_z
_atom_site_U_iso_or_equiv
_atom_site_adp_type
_atom_site_occupancy
C1     C     0.88656   0.77254   0.93542   0.00000  Uiso   1.00
C2     C     0.85862   0.70506   0.92574   0.00000  Uiso   1.00
C3     C     0.89185   0.64813   0.94227   0.00000  Uiso   1.00
C4     C     0.85770   0.59135   0.92948   0.00000  Uiso   1.00
C5     C     0.82422   0.48653   0.91870   0.00000  Uiso   1.00
C6     C     0.87448   0.80516   0.82955   0.00000  Uiso   1.00
C7     C     0.92106   0.83240   0.76520   0.00000  Uiso   1.00
C8     C     0.90026   0.85989   0.67144   0.00000  Uiso   1.00
C9     C     0.89140   0.91051   0.51135   0.00000  Uiso   1.00
C10    C     0.84451   0.80769   0.01526   0.00000  Uiso   1.00
C11    C     0.86588   0.83708   0.10706   0.00000  Uiso   1.00
C12    C     0.81984   0.86672   0.16964   0.00000  Uiso   1.00
C13    C     0.76444   0.92127   0.29791   0.00000  Uiso   1.00
C14    C     0.76680   0.77295   0.88332   0.00000  Uiso   1.00
C15    C     0.79357   0.70528   0.89744   0.00000  Uiso   1.00
C16    C     0.75935   0.64857   0.88462   0.00000  Uiso   1.00
C17    C     0.79253   0.59157   0.90113   0.00000  Uiso   1.00
C18    C     0.80944   0.80538   0.80124   0.00000  Uiso   1.00
C19    C     0.78856   0.83284   0.70755   0.00000  Uiso   1.00
C20    C     0.83509   0.86011   0.64308   0.00000  Uiso   1.00
C21    C     0.77946   0.80791   0.98696   0.00000  Uiso   1.00
C22    C     0.73338   0.83752   0.04941   0.00000  Uiso   1.00
C23    C     0.75468   0.86694   0.14129   0.00000  Uiso   1.00
H24    H     0.93720   0.77238   0.95745   0.00000  Uiso   1.00
H25    H     0.94220   0.64798   0.96416   0.00000  Uiso   1.00
H26    H     0.97139   0.83222   0.78713   0.00000  Uiso   1.00
H27    H     0.91622   0.83690   0.12894   0.00000  Uiso   1.00
H28    H     0.91905   0.51016   0.95908   0.00000  Uiso   1.00
H29    H     0.98062   0.89867   0.58582   0.00000  Uiso   1.00
H30    H     0.86428   0.90853   0.30658   0.00000  Uiso   1.00
H31    H     0.71615   0.77312   0.86128   0.00000  Uiso   1.00
H32    H     0.70902   0.64876   0.86272   0.00000  Uiso   1.00
H33    H     0.73822   0.83300   0.68568   0.00000  Uiso   1.00
H34    H     0.68305   0.83768   0.02749   0.00000  Uiso   1.00
H35    H     0.72980   0.51079   0.87674   0.00000  Uiso   1.00
H36    H     0.79136   0.89930   0.50348   0.00000  Uiso   1.00
H37    H     0.67502   0.90916   0.22424   0.00000  Uiso   1.00
O38    O     0.82372   0.42865   0.92056   0.00000  Uiso   1.00
O39    O     0.90449   0.93837   0.43086   0.00000  Uiso   1.00
O40    O     0.75186   0.95130   0.37648   0.00000  Uiso   1.00
N41    N     0.87549   0.52737   0.93953   0.00000  Uiso   1.00
N42    N     0.93305   0.89060   0.59054   0.00000  Uiso   1.00
N43    N     0.82428   0.89983   0.26438   0.00000  Uiso   1.00
N44    N     0.77365   0.52771   0.89522   0.00000  Uiso   1.00
N45    N     0.83121   0.89094   0.54623   0.00000  Uiso   1.00
N46    N     0.72244   0.90017   0.22007   0.00000  Uiso   1.00
C47    C     0.11344   0.22746   0.93542   0.00000  Uiso   1.00
C48    C     0.14138   0.29494   0.92574   0.00000  Uiso   1.00
C49    C     0.10815   0.35187   0.94227   0.00000  Uiso   1.00
C50    C     0.14230   0.40865   0.92948   0.00000  Uiso   1.00
C51    C     0.17578   0.51347   0.91870   0.00000  Uiso   1.00
C52    C     0.12552   0.19484   0.82955   0.00000  Uiso   1.00
C53    C     0.07894   0.16760   0.76520   0.00000  Uiso   1.00
C54    C     0.09974   0.14011   0.67144   0.00000  Uiso   1.00
C55    C     0.10860   0.08949   0.51135   0.00000  Uiso   1.00
C56    C     0.15549   0.19231   0.01526   0.00000  Uiso   1.00
C57    C     0.13412   0.16292   0.10706   0.00000  Uiso   1.00
C58    C     0.18016   0.13328   0.16964   0.00000  Uiso   1.00
C59    C     0.23556   0.07873   0.29791   0.00000  Uiso   1.00
C60    C     0.23320   0.22705   0.88332   0.00000  Uiso   1.00
C61    C     0.20643   0.29472   0.89744   0.00000  Uiso   1.00
C62    C     0.24065   0.35143   0.88462   0.00000  Uiso   1.00
C63    C     0.20747   0.40843   0.90113   0.00000  Uiso   1.00
C64    C     0.19056   0.19462   0.80124   0.00000  Uiso   1.00
C65    C     0.21144   0.16716   0.70755   0.00000  Uiso   1.00
C66    C     0.16491   0.13989   0.64308   0.00000  Uiso   1.00
C67    C     0.22054   0.19209   0.98696   0.00000  Uiso   1.00
C68    C     0.26662   0.16248   0.04941   0.00000  Uiso   1.00
C69    C     0.24532   0.13306   0.14129   0.00000  Uiso   1.00
H70    H     0.06280   0.22762   0.95745   0.00000  Uiso   1.00
H71    H     0.05780   0.35202   0.96416   0.00000  Uiso   1.00
H72    H     0.02861   0.16778   0.78713   0.00000  Uiso   1.00
H73    H     0.08378   0.16310   0.12894   0.00000  Uiso   1.00
H74    H     0.08095   0.48984   0.95908   0.00000  Uiso   1.00
H75    H     0.01938   0.10133   0.58582   0.00000  Uiso   1.00
H76    H     0.13572   0.09147   0.30658   0.00000  Uiso   1.00
H77    H     0.28385   0.22688   0.86128   0.00000  Uiso   1.00
H78    H     0.29098   0.35124   0.86272   0.00000  Uiso   1.00
H79    H     0.26178   0.16700   0.68568   0.00000  Uiso   1.00
H80    H     0.31695   0.16232   0.02749   0.00000  Uiso   1.00
H81    H     0.27020   0.48921   0.87674   0.00000  Uiso   1.00
H82    H     0.20864   0.10070   0.50348   0.00000  Uiso   1.00
H83    H     0.32498   0.09084   0.22424   0.00000  Uiso   1.00
O84    O     0.17628   0.57135   0.92056   0.00000  Uiso   1.00
O85    O     0.09551   0.06163   0.43086   0.00000  Uiso   1.00
O86    O     0.24814   0.04870   0.37648   0.00000  Uiso   1.00
N87    N     0.12451   0.47263   0.93953   0.00000  Uiso   1.00
N88    N     0.06695   0.10940   0.59054   0.00000  Uiso   1.00
N89    N     0.17572   0.10017   0.26438   0.00000  Uiso   1.00
N90    N     0.22635   0.47229   0.89522   0.00000  Uiso   1.00
N91    N     0.16879   0.10906   0.54623   0.00000  Uiso   1.00
N92    N     0.27756   0.09983   0.22007   0.00000  Uiso   1.00
C93    C     0.77254   0.11344   0.06458   0.00000  Uiso   1.00
C94    C     0.70506   0.14138   0.07426   0.00000  Uiso   1.00
C95    C     0.64813   0.10815   0.05773   0.00000  Uiso   1.00
C96    C     0.59135   0.14230   0.07052   0.00000  Uiso   1.00
C97    C     0.48653   0.17578   0.08130   0.00000  Uiso   1.00
C98    C     0.80516   0.12552   0.17045   0.00000  Uiso   1.00
C99    C     0.83240   0.07894   0.23480   0.00000  Uiso   1.00
C100   C     0.85989   0.09974   0.32856   0.00000  Uiso   1.00
C101   C     0.91051   0.10860   0.48865   0.00000  Uiso   1.00
C102   C     0.80769   0.15549   0.98474   0.00000  Uiso   1.00
C103   C     0.83708   0.13412   0.89294   0.00000  Uiso   1.00
C104   C     0.86672   0.18016   0.83036   0.00000  Uiso   1.00
C105   C     0.92127   0.23556   0.70209   0.00000  Uiso   1.00
C106   C     0.77295   0.23320   0.11668   0.00000  Uiso   1.00
C107   C     0.70528   0.20643   0.10256   0.00000  Uiso   1.00
C108   C     0.64857   0.24065   0.11538   0.00000  Uiso   1.00
C109   C     0.59157   0.20747   0.09887   0.00000  Uiso   1.00
C110   C     0.80538   0.19056   0.19876   0.00000  Uiso   1.00
C111   C     0.83284   0.21144   0.29245   0.00000  Uiso   1.00
C112   C     0.86011   0.16491   0.35692   0.00000  Uiso   1.00
C113   C     0.80791   0.22054   0.01304   0.00000  Uiso   1.00
C114   C     0.83752   0.26662   0.95059   0.00000  Uiso   1.00
C115   C     0.86694   0.24532   0.85871   0.00000  Uiso   1.00
H116   H     0.77238   0.06280   0.04255   0.00000  Uiso   1.00
H117   H     0.64798   0.05780   0.03584   0.00000  Uiso   1.00
H118   H     0.83222   0.02861   0.21287   0.00000  Uiso   1.00
H119   H     0.83690   0.08378   0.87106   0.00000  Uiso   1.00
H120   H     0.51016   0.08095   0.04092   0.00000  Uiso   1.00
H121   H     0.89867   0.01938   0.41418   0.00000  Uiso   1.00
H122   H     0.90853   0.13572   0.69342   0.00000  Uiso   1.00
H123   H     0.77312   0.28385   0.13872   0.00000  Uiso   1.00
H124   H     0.64876   0.29098   0.13728   0.00000  Uiso   1.00
H125   H     0.83300   0.26178   0.31432   0.00000  Uiso   1.00
H126   H     0.83768   0.31695   0.97251   0.00000  Uiso   1.00
H127   H     0.51079   0.27020   0.12326   0.00000  Uiso   1.00
H128   H     0.89930   0.20864   0.49652   0.00000  Uiso   1.00
H129   H     0.90916   0.32498   0.77576   0.00000  Uiso   1.00
O130   O     0.42865   0.17628   0.07944   0.00000  Uiso   1.00
O131   O     0.93837   0.09551   0.56914   0.00000  Uiso   1.00
O132   O     0.95130   0.24814   0.62352   0.00000  Uiso   1.00
N133   N     0.52737   0.12451   0.06047   0.00000  Uiso   1.00
N134   N     0.89060   0.06695   0.40946   0.00000  Uiso   1.00
N135   N     0.89983   0.17572   0.73562   0.00000  Uiso   1.00
N136   N     0.52771   0.22635   0.10478   0.00000  Uiso   1.00
N137   N     0.89094   0.16879   0.45377   0.00000  Uiso   1.00
N138   N     0.90017   0.27756   0.77993   0.00000  Uiso   1.00
C139   C     0.22746   0.88656   0.06458   0.00000  Uiso   1.00
C140   C     0.29494   0.85862   0.07426   0.00000  Uiso   1.00
C141   C     0.35187   0.89185   0.05773   0.00000  Uiso   1.00
C142   C     0.40865   0.85770   0.07052   0.00000  Uiso   1.00
C143   C     0.51347   0.82422   0.08130   0.00000  Uiso   1.00
C144   C     0.19484   0.87448   0.17045   0.00000  Uiso   1.00
C145   C     0.16760   0.92106   0.23480   0.00000  Uiso   1.00
C146   C     0.14011   0.90026   0.32856   0.00000  Uiso   1.00
C147   C     0.08949   0.89140   0.48865   0.00000  Uiso   1.00
C148   C     0.19231   0.84451   0.98474   0.00000  Uiso   1.00
C149   C     0.16292   0.86588   0.89294   0.00000  Uiso   1.00
C150   C     0.13328   0.81984   0.83036   0.00000  Uiso   1.00
C151   C     0.07873   0.76444   0.70209   0.00000  Uiso   1.00
C152   C     0.22705   0.76680   0.11668   0.00000  Uiso   1.00
C153   C     0.29472   0.79357   0.10256   0.00000  Uiso   1.00
C154   C     0.35143   0.75935   0.11538   0.00000  Uiso   1.00
C155   C     0.40843   0.79253   0.09887   0.00000  Uiso   1.00
C156   C     0.19462   0.80944   0.19876   0.00000  Uiso   1.00
C157   C     0.16716   0.78856   0.29245   0.00000  Uiso   1.00
C158   C     0.13989   0.83509   0.35692   0.00000  Uiso   1.00
C159   C     0.19209   0.77946   0.01304   0.00000  Uiso   1.00
C160   C     0.16248   0.73338   0.95059   0.00000  Uiso   1.00
C161   C     0.13306   0.75468   0.85871   0.00000  Uiso   1.00
H162   H     0.22762   0.93720   0.04255   0.00000  Uiso   1.00
H163   H     0.35202   0.94220   0.03584   0.00000  Uiso   1.00
H164   H     0.16778   0.97139   0.21287   0.00000  Uiso   1.00
H165   H     0.16310   0.91622   0.87106   0.00000  Uiso   1.00
H166   H     0.48984   0.91905   0.04092   0.00000  Uiso   1.00
H167   H     0.10133   0.98062   0.41418   0.00000  Uiso   1.00
H168   H     0.09147   0.86428   0.69342   0.00000  Uiso   1.00
H169   H     0.22688   0.71615   0.13872   0.00000  Uiso   1.00
H170   H     0.35124   0.70902   0.13728   0.00000  Uiso   1.00
H171   H     0.16700   0.73822   0.31432   0.00000  Uiso   1.00
H172   H     0.16232   0.68305   0.97251   0.00000  Uiso   1.00
H173   H     0.48921   0.72980   0.12326   0.00000  Uiso   1.00
H174   H     0.10070   0.79136   0.49652   0.00000  Uiso   1.00
H175   H     0.09084   0.67502   0.77576   0.00000  Uiso   1.00
O176   O     0.57135   0.82372   0.07944   0.00000  Uiso   1.00
O177   O     0.06163   0.90449   0.56914   0.00000  Uiso   1.00
O178   O     0.04870   0.75186   0.62352   0.00000  Uiso   1.00
N179   N     0.47263   0.87549   0.06047   0.00000  Uiso   1.00
N180   N     0.10940   0.93305   0.40946   0.00000  Uiso   1.00
N181   N     0.10017   0.82428   0.73562   0.00000  Uiso   1.00
N182   N     0.47229   0.77365   0.10478   0.00000  Uiso   1.00
N183   N     0.10906   0.83121   0.45377   0.00000  Uiso   1.00
N184   N     0.09983   0.72244   0.77993   0.00000  Uiso   1.00
C185   C     0.61344   0.27254   0.56458   0.00000  Uiso   1.00
C186   C     0.64138   0.20506   0.57426   0.00000  Uiso   1.00
C187   C     0.60815   0.14813   0.55773   0.00000  Uiso   1.00
C188   C     0.64230   0.09135   0.57052   0.00000  Uiso   1.00
C189   C     0.67578   0.98653   0.58130   0.00000  Uiso   1.00
C190   C     0.62552   0.30516   0.67045   0.00000  Uiso   1.00
C191   C     0.57894   0.33240   0.73480   0.00000  Uiso   1.00
C192   C     0.59974   0.35989   0.82856   0.00000  Uiso   1.00
C193   C     0.60860   0.41051   0.98865   0.00000  Uiso   1.00
C194   C     0.65549   0.30769   0.48474   0.00000  Uiso   1.00
C195   C     0.63412   0.33708   0.39294   0.00000  Uiso   1.00
C196   C     0.68016   0.36672   0.33036   0.00000  Uiso   1.00
C197   C     0.73556   0.42127   0.20209   0.00000  Uiso   1.00
C198   C     0.73320   0.27295   0.61668   0.00000  Uiso   1.00
C199   C     0.70643   0.20528   0.60256   0.00000  Uiso   1.00
C200   C     0.74065   0.14857   0.61538   0.00000  Uiso   1.00
C201   C     0.70747   0.09157   0.59887   0.00000  Uiso   1.00
C202   C     0.69056   0.30538   0.69876   0.00000  Uiso   1.00
C203   C     0.71144   0.33284   0.79245   0.00000  Uiso   1.00
C204   C     0.66491   0.36011   0.85692   0.00000  Uiso   1.00
C205   C     0.72054   0.30791   0.51304   0.00000  Uiso   1.00
C206   C     0.76662   0.33752   0.45059   0.00000  Uiso   1.00
C207   C     0.74532   0.36694   0.35871   0.00000  Uiso   1.00
H208   H     0.56280   0.27238   0.54255   0.00000  Uiso   1.00
H209   H     0.55780   0.14798   0.53584   0.00000  Uiso   1.00
H210   H     0.52861   0.33222   0.71287   0.00000  Uiso   1.00
H211   H     0.58378   0.33690   0.37106   0.00000  Uiso   1.00
H212   H     0.58095   0.01016   0.54092   0.00000  Uiso   1.00
H213   H     0.51938   0.39867   0.91418   0.00000  Uiso   1.00
H214   H     0.63572   0.40853   0.19342   0.00000  Uiso   1.00
H215   H     0.78385   0.27312   0.63872   0.00000  Uiso   1.00
H216   H     0.79098   0.14876   0.63728   0.00000  Uiso   1.00
H217   H     0.76178   0.33300   0.81432   0.00000  Uiso   1.00
H218   H     0.81695   0.33768   0.47251   0.00000  Uiso   1.00
H219   H     0.77020   0.01079   0.62326   0.00000  Uiso   1.00
H220   H     0.70864   0.39930   0.99652   0.00000  Uiso   1.00
H221   H     0.82498   0.40916   0.27576   0.00000  Uiso   1.00
O222   O     0.67628   0.92865   0.57944   0.00000  Uiso   1.00
O223   O     0.59551   0.43837   0.06914   0.00000  Uiso   1.00
O224   O     0.74814   0.45130   0.12352   0.00000  Uiso   1.00
N225   N     0.62451   0.02737   0.56047   0.00000  Uiso   1.00
N226   N     0.56695   0.39060   0.90946   0.00000  Uiso   1.00
N227   N     0.67572   0.39983   0.23562   0.00000  Uiso   1.00
N228   N     0.72635   0.02771   0.60478   0.00000  Uiso   1.00
N229   N     0.66879   0.39094   0.95377   0.00000  Uiso   1.00
N230   N     0.77756   0.40017   0.27993   0.00000  Uiso   1.00
C231   C     0.38656   0.72746   0.56458   0.00000  Uiso   1.00
C232   C     0.35862   0.79494   0.57426   0.00000  Uiso   1.00
C233   C     0.39185   0.85187   0.55773   0.00000  Uiso   1.00
C234   C     0.35770   0.90865   0.57052   0.00000  Uiso   1.00
C235   C     0.32422   0.01347   0.58130   0.00000  Uiso   1.00
C236   C     0.37448   0.69484   0.67045   0.00000  Uiso   1.00
C237   C     0.42106   0.66760   0.73480   0.00000  Uiso   1.00
C238   C     0.40026   0.64011   0.82856   0.00000  Uiso   1.00
C239   C     0.39140   0.58949   0.98865   0.00000  Uiso   1.00
C240   C     0.34451   0.69231   0.48474   0.00000  Uiso   1.00
C241   C     0.36588   0.66292   0.39294   0.00000  Uiso   1.00
C242   C     0.31984   0.63328   0.33036   0.00000  Uiso   1.00
C243   C     0.26444   0.57873   0.20209   0.00000  Uiso   1.00
C244   C     0.26680   0.72705   0.61668   0.00000  Uiso   1.00
C245   C     0.29357   0.79472   0.60256   0.00000  Uiso   1.00
C246   C     0.25935   0.85143   0.61538   0.00000  Uiso   1.00
C247   C     0.29253   0.90843   0.59887   0.00000  Uiso   1.00
C248   C     0.30944   0.69462   0.69876   0.00000  Uiso   1.00
C249   C     0.28856   0.66716   0.79245   0.00000  Uiso   1.00
C250   C     0.33509   0.63989   0.85692   0.00000  Uiso   1.00
C251   C     0.27946   0.69209   0.51304   0.00000  Uiso   1.00
C252   C     0.23338   0.66248   0.45059   0.00000  Uiso   1.00
C253   C     0.25468   0.63306   0.35871   0.00000  Uiso   1.00
H254   H     0.43720   0.72762   0.54255   0.00000  Uiso   1.00
H255   H     0.44220   0.85202   0.53584   0.00000  Uiso   1.00
H256   H     0.47139   0.66778   0.71287   0.00000  Uiso   1.00
H257   H     0.41622   0.66310   0.37106   0.00000  Uiso   1.00
H258   H     0.41905   0.98984   0.54092   0.00000  Uiso   1.00
H259   H     0.48062   0.60133   0.91418   0.00000  Uiso   1.00
H260   H     0.36428   0.59147   0.19342   0.00000  Uiso   1.00
H261   H     0.21615   0.72688   0.63872   0.00000  Uiso   1.00
H262   H     0.20902   0.85124   0.63728   0.00000  Uiso   1.00
H263   H     0.23822   0.66700   0.81432   0.00000  Uiso   1.00
H264   H     0.18305   0.66232   0.47251   0.00000  Uiso   1.00
H265   H     0.22980   0.98921   0.62326   0.00000  Uiso   1.00
H266   H     0.29136   0.60070   0.99652   0.00000  Uiso   1.00
H267   H     0.17502   0.59084   0.27576   0.00000  Uiso   1.00
O268   O     0.32372   0.07135   0.57944   0.00000  Uiso   1.00
O269   O     0.40449   0.56163   0.06914   0.00000  Uiso   1.00
O270   O     0.25186   0.54870   0.12352   0.00000  Uiso   1.00
N271   N     0.37549   0.97263   0.56047   0.00000  Uiso   1.00
N272   N     0.43305   0.60940   0.90946   0.00000  Uiso   1.00
N273   N     0.32428   0.60017   0.23562   0.00000  Uiso   1.00
N274   N     0.27365   0.97229   0.60478   0.00000  Uiso   1.00
N275   N     0.33121   0.60906   0.95377   0.00000  Uiso   1.00
N276   N     0.22244   0.59983   0.27993   0.00000  Uiso   1.00
C277   C     0.72746   0.61344   0.43542   0.00000  Uiso   1.00
C278   C     0.79494   0.64138   0.42574   0.00000  Uiso   1.00
C279   C     0.85187   0.60815   0.44227   0.00000  Uiso   1.00
C280   C     0.90865   0.64230   0.42948   0.00000  Uiso   1.00
C281   C     0.01347   0.67578   0.41870   0.00000  Uiso   1.00
C282   C     0.69484   0.62552   0.32955   0.00000  Uiso   1.00
C283   C     0.66760   0.57894   0.26520   0.00000  Uiso   1.00
C284   C     0.64011   0.59974   0.17144   0.00000  Uiso   1.00
C285   C     0.58949   0.60860   0.01135   0.00000  Uiso   1.00
C286   C     0.69231   0.65549   0.51526   0.00000  Uiso   1.00
C287   C     0.66292   0.63412   0.60706   0.00000  Uiso   1.00
C288   C     0.63328   0.68016   0.66964   0.00000  Uiso   1.00
C289   C     0.57873   0.73556   0.79791   0.00000  Uiso   1.00
C290   C     0.72705   0.73320   0.38332   0.00000  Uiso   1.00
C291   C     0.79472   0.70643   0.39744   0.00000  Uiso   1.00
C292   C     0.85143   0.74065   0.38462   0.00000  Uiso   1.00
C293   C     0.90843   0.70747   0.40113   0.00000  Uiso   1.00
C294   C     0.69462   0.69056   0.30124   0.00000  Uiso   1.00
C295   C     0.66716   0.71144   0.20755   0.00000  Uiso   1.00
C296   C     0.63989   0.66491   0.14308   0.00000  Uiso   1.00
C297   C     0.69209   0.72054   0.48696   0.00000  Uiso   1.00
C298   C     0.66248   0.76662   0.54941   0.00000  Uiso   1.00
C299   C     0.63306   0.74532   0.64129   0.00000  Uiso   1.00
H300   H     0.72762   0.56280   0.45745   0.00000  Uiso   1.00
H301   H     0.85202   0.55780   0.46416   0.00000  Uiso   1.00
H302   H     0.66778   0.52861   0.28713   0.00000  Uiso   1.00
H303   H     0.66310   0.58378   0.62894   0.00000  Uiso   1.00
H304   H     0.98984   0.58095   0.45908   0.00000  Uiso   1.00
H305   H     0.60133   0.51938   0.08582   0.00000  Uiso   1.00
H306   H     0.59147   0.63572   0.80658   0.00000  Uiso   1.00
H307   H     0.72688   0.78385   0.36128   0.00000  Uiso   1.00
H308   H     0.85124   0.79098   0.36272   0.00000  Uiso   1.00
H309   H     0.66700   0.76178   0.18568   0.00000  Uiso   1.00
H310   H     0.66232   0.81695   0.52749   0.00000  Uiso   1.00
H311   H     0.98921   0.77020   0.37674   0.00000  Uiso   1.00
H312   H     0.60070   0.70864   0.00348   0.00000  Uiso   1.00
H313   H     0.59084   0.82498   0.72424   0.00000  Uiso   1.00
O314   O     0.07135   0.67628   0.42056   0.00000  Uiso   1.00
O315   O     0.56163   0.59551   0.93086   0.00000  Uiso   1.00
O316   O     0.54870   0.74814   0.87648   0.00000  Uiso   1.00
N317   N     0.97263   0.62451   0.43953   0.00000  Uiso   1.00
N318   N     0.60940   0.56695   0.09054   0.00000  Uiso   1.00
N319   N     0.60017   0.67572   0.76438   0.00000  Uiso   1.00
N320   N     0.97229   0.72635   0.39522   0.00000  Uiso   1.00
N321   N     0.60906   0.66879   0.04623   0.00000  Uiso   1.00
N322   N     0.59983   0.77756   0.72007   0.00000  Uiso   1.00
C323   C     0.27254   0.38656   0.43542   0.00000  Uiso   1.00
C324   C     0.20506   0.35862   0.42574   0.00000  Uiso   1.00
C325   C     0.14813   0.39185   0.44227   0.00000  Uiso   1.00
C326   C     0.09135   0.35770   0.42948   0.00000  Uiso   1.00
C327   C     0.98653   0.32422   0.41870   0.00000  Uiso   1.00
C328   C     0.30516   0.37448   0.32955   0.00000  Uiso   1.00
C329   C     0.33240   0.42106   0.26520   0.00000  Uiso   1.00
C330   C     0.35989   0.40026   0.17144   0.00000  Uiso   1.00
C331   C     0.41051   0.39140   0.01135   0.00000  Uiso   1.00
C332   C     0.30769   0.34451   0.51526   0.00000  Uiso   1.00
C333   C     0.33708   0.36588   0.60706   0.00000  Uiso   1.00
C334   C     0.36672   0.31984   0.66964   0.00000  Uiso   1.00
C335   C     0.42127   0.26444   0.79791   0.00000  Uiso   1.00
C336   C     0.27295   0.26680   0.38332   0.00000  Uiso   1.00
C337   C     0.20528   0.29357   0.39744   0.00000  Uiso   1.00
C338   C     0.14857   0.25935   0.38462   0.00000  Uiso   1.00
C339   C     0.09157   0.29253   0.40113   0.00000  Uiso   1.00
C340   C     0.30538   0.30944   0.30124   0.00000  Uiso   1.00
C341   C     0.33284   0.28856   0.20755   0.00000  Uiso   1.00
C342   C     0.36011   0.33509   0.14308   0.00000  Uiso   1.00
C343   C     0.30791   0.27946   0.48696   0.00000  Uiso   1.00
C344   C     0.33752   0.23338   0.54941   0.00000  Uiso   1.00
C345   C     0.36694   0.25468   0.64129   0.00000  Uiso   1.00
H346   H     0.27238   0.43720   0.45745   0.00000  Uiso   1.00
H347   H     0.14798   0.44220   0.46416   0.00000  Uiso   1.00
H348   H     0.33222   0.47139   0.28713   0.00000  Uiso   1.00
H349   H     0.33690   0.41622   0.62894   0.00000  Uiso   1.00
H350   H     0.01016   0.41905   0.45908   0.00000  Uiso   1.00
H351   H     0.39867   0.48062   0.08582   0.00000  Uiso   1.00
H352   H     0.40853   0.36428   0.80658   0.00000  Uiso   1.00
H353   H     0.27312   0.21615   0.36128   0.00000  Uiso   1.00
H354   H     0.14876   0.20902   0.36272   0.00000  Uiso   1.00
H355   H     0.33300   0.23822   0.18568   0.00000  Uiso   1.00
H356   H     0.33768   0.18305   0.52749   0.00000  Uiso   1.00
H357   H     0.01079   0.22980   0.37674   0.00000  Uiso   1.00
H358   H     0.39930   0.29136   0.00348   0.00000  Uiso   1.00
H359   H     0.40916   0.17502   0.72424   0.00000  Uiso   1.00
O360   O     0.92865   0.32372   0.42056   0.00000  Uiso   1.00
O361   O     0.43837   0.40449   0.93086   0.00000  Uiso   1.00
O362   O     0.45130   0.25186   0.87648   0.00000  Uiso   1.00
N363   N     0.02737   0.37549   0.43953   0.00000  Uiso   1.00
N364   N     0.39060   0.43305   0.09054   0.00000  Uiso   1.00
N365   N     0.39983   0.32428   0.76438   0.00000  Uiso   1.00
N366   N     0.02771   0.27365   0.39522   0.00000  Uiso   1.00
N367   N     0.39094   0.33121   0.04623   0.00000  Uiso   1.00
N368   N     0.40017   0.22244   0.72007   0.00000  Uiso   1.00
