data_job_01716
_audit_creation_date              2018-12-19
_audit_creation_method            'Materials Studio'
_symmetry_space_group_name_H-M    'P1'
_symmetry_Int_Tables_number       1
_symmetry_cell_setting            triclinic
loop_
_symmetry_equiv_pos_as_xyz
  x,y,z
_cell_length_a                    10.9729
_cell_length_b                    9.4121
_cell_length_c                    22.1319
_cell_angle_alpha                 90.0000
_cell_angle_beta                  90.0000
_cell_angle_gamma                 90.0000
loop_
_atom_site_label
_atom_site_type_symbol
_atom_site_fract_x
_atom_site_fract_y
_atom_site_fract_z
_atom_site_U_iso_or_equiv
_atom_site_adp_type
_atom_site_occupancy
C1     C     0.06761   0.67667   0.21859   0.00000  Uiso   1.00
C2     C     0.14782   0.77739   0.18210   0.00000  Uiso   1.00
C3     C     0.14223   0.92466   0.18344   0.00000  Uiso   1.00
C4     C     0.22343   0.99772   0.14671   0.00000  Uiso   1.00
C5     C     0.33519   0.16502   0.09562   0.00000  Uiso   1.00
C6     C     0.00615   0.57931   0.17271   0.00000  Uiso   1.00
C7     C     0.88145   0.56002   0.16617   0.00000  Uiso   1.00
C8     C     0.84340   0.46632   0.12154   0.00000  Uiso   1.00
C9     C     0.73523   0.32602   0.05591   0.00000  Uiso   1.00
C10    C     0.15449   0.58277   0.25460   0.00000  Uiso   1.00
C11    C     0.15449   0.56635   0.31692   0.00000  Uiso   1.00
C12    C     0.24131   0.47553   0.34123   0.00000  Uiso   1.00
C13    C     0.36345   0.34061   0.40275   0.00000  Uiso   1.00
C14    C     0.22175   0.54454   0.15096   0.00000  Uiso   1.00
C15    C     0.23154   0.70562   0.14536   0.00000  Uiso   1.00
C16    C     0.31277   0.77847   0.10862   0.00000  Uiso   1.00
C17    C     0.30731   0.92582   0.10991   0.00000  Uiso   1.00
C18    C     0.08987   0.50754   0.13598   0.00000  Uiso   1.00
C19    C     0.05200   0.41384   0.09135   0.00000  Uiso   1.00
C20    C     0.92727   0.39442   0.08474   0.00000  Uiso   1.00
C21    C     0.23821   0.51100   0.21787   0.00000  Uiso   1.00
C22    C     0.32504   0.42018   0.24209   0.00000  Uiso   1.00
C23    C     0.32519   0.40364   0.30443   0.00000  Uiso   1.00
H24    H     0.00242   0.73254   0.24718   0.00000  Uiso   1.00
H25    H     0.07741   0.98016   0.21187   0.00000  Uiso   1.00
H26    H     0.81668   0.61556   0.19461   0.00000  Uiso   1.00
H27    H     0.08969   0.62190   0.34533   0.00000  Uiso   1.00
H28    H     0.19745   0.22304   0.15651   0.00000  Uiso   1.00
H29    H     0.64769   0.45423   0.12012   0.00000  Uiso   1.00
H30    H     0.22336   0.46761   0.43795   0.00000  Uiso   1.00
H31    H     0.28694   0.48866   0.12236   0.00000  Uiso   1.00
H32    H     0.37755   0.72291   0.08020   0.00000  Uiso   1.00
H33    H     0.11681   0.35831   0.06294   0.00000  Uiso   1.00
H34    H     0.38982   0.36466   0.21365   0.00000  Uiso   1.00
H35    H     0.44105   0.01425   0.04964   0.00000  Uiso   1.00
H36    H     0.89128   0.24544   0.01325   0.00000  Uiso   1.00
H37    H     0.46696   0.25881   0.33107   0.00000  Uiso   1.00
O38    O     0.37369   0.27713   0.07758   0.00000  Uiso   1.00
O39    O     0.65243   0.26847   0.02985   0.00000  Uiso   1.00
O40    O     0.40771   0.28603   0.44682   0.00000  Uiso   1.00
N41    N     0.24236   0.14175   0.13715   0.00000  Uiso   1.00
N42    N     0.72836   0.42298   0.10313   0.00000  Uiso   1.00
N43    N     0.26655   0.43546   0.40026   0.00000  Uiso   1.00
N44    N     0.37344   0.02940   0.07964   0.00000  Uiso   1.00
N45    N     0.85944   0.31063   0.04562   0.00000  Uiso   1.00
N46    N     0.39763   0.32311   0.34276   0.00000  Uiso   1.00
C47    C     0.43239   0.32333   0.71859   0.00000  Uiso   1.00
C48    C     0.35218   0.22261   0.68210   0.00000  Uiso   1.00
C49    C     0.35777   0.07534   0.68344   0.00000  Uiso   1.00
C50    C     0.27657   0.00228   0.64671   0.00000  Uiso   1.00
C51    C     0.16481   0.83498   0.59562   0.00000  Uiso   1.00
C52    C     0.49385   0.42069   0.67271   0.00000  Uiso   1.00
C53    C     0.61855   0.43998   0.66617   0.00000  Uiso   1.00
C54    C     0.65660   0.53368   0.62154   0.00000  Uiso   1.00
C55    C     0.76477   0.67398   0.55591   0.00000  Uiso   1.00
C56    C     0.34551   0.41723   0.75460   0.00000  Uiso   1.00
C57    C     0.34551   0.43365   0.81692   0.00000  Uiso   1.00
C58    C     0.25869   0.52447   0.84123   0.00000  Uiso   1.00
C59    C     0.13655   0.65939   0.90275   0.00000  Uiso   1.00
C60    C     0.27825   0.45546   0.65096   0.00000  Uiso   1.00
C61    C     0.26846   0.29438   0.64536   0.00000  Uiso   1.00
C62    C     0.18723   0.22153   0.60862   0.00000  Uiso   1.00
C63    C     0.19269   0.07418   0.60991   0.00000  Uiso   1.00
C64    C     0.41013   0.49246   0.63598   0.00000  Uiso   1.00
C65    C     0.44800   0.58616   0.59135   0.00000  Uiso   1.00
C66    C     0.57273   0.60558   0.58474   0.00000  Uiso   1.00
C67    C     0.26179   0.48900   0.71787   0.00000  Uiso   1.00
C68    C     0.17496   0.57982   0.74209   0.00000  Uiso   1.00
C69    C     0.17481   0.59636   0.80443   0.00000  Uiso   1.00
H70    H     0.49758   0.26746   0.74718   0.00000  Uiso   1.00
H71    H     0.42259   0.01984   0.71187   0.00000  Uiso   1.00
H72    H     0.68332   0.38444   0.69461   0.00000  Uiso   1.00
H73    H     0.41031   0.37810   0.84533   0.00000  Uiso   1.00
H74    H     0.30255   0.77696   0.65651   0.00000  Uiso   1.00
H75    H     0.85231   0.54577   0.62012   0.00000  Uiso   1.00
H76    H     0.27664   0.53239   0.93795   0.00000  Uiso   1.00
H77    H     0.21306   0.51134   0.62236   0.00000  Uiso   1.00
H78    H     0.12245   0.27709   0.58020   0.00000  Uiso   1.00
H79    H     0.38319   0.64169   0.56294   0.00000  Uiso   1.00
H80    H     0.11018   0.63534   0.71365   0.00000  Uiso   1.00
H81    H     0.05895   0.98575   0.54964   0.00000  Uiso   1.00
H82    H     0.60872   0.75456   0.51325   0.00000  Uiso   1.00
H83    H     0.03304   0.74119   0.83107   0.00000  Uiso   1.00
O84    O     0.12631   0.72287   0.57758   0.00000  Uiso   1.00
O85    O     0.84757   0.73153   0.52985   0.00000  Uiso   1.00
O86    O     0.09229   0.71397   0.94682   0.00000  Uiso   1.00
N87    N     0.25764   0.85825   0.63715   0.00000  Uiso   1.00
N88    N     0.77164   0.57702   0.60313   0.00000  Uiso   1.00
N89    N     0.23345   0.56454   0.90026   0.00000  Uiso   1.00
N90    N     0.12656   0.97060   0.57964   0.00000  Uiso   1.00
N91    N     0.64056   0.68937   0.54562   0.00000  Uiso   1.00
N92    N     0.10237   0.67689   0.84276   0.00000  Uiso   1.00
C93    C     0.93239   0.17667   0.28141   0.00000  Uiso   1.00
C94    C     0.85218   0.27739   0.31790   0.00000  Uiso   1.00
C95    C     0.85777   0.42466   0.31656   0.00000  Uiso   1.00
C96    C     0.77657   0.49772   0.35329   0.00000  Uiso   1.00
C97    C     0.66481   0.66502   0.40438   0.00000  Uiso   1.00
C98    C     0.99385   0.07931   0.32729   0.00000  Uiso   1.00
C99    C     0.11855   0.06002   0.33383   0.00000  Uiso   1.00
C100   C     0.15660   0.96632   0.37846   0.00000  Uiso   1.00
C101   C     0.26477   0.82602   0.44409   0.00000  Uiso   1.00
C102   C     0.84551   0.08277   0.24540   0.00000  Uiso   1.00
C103   C     0.84551   0.06635   0.18308   0.00000  Uiso   1.00
C104   C     0.75869   0.97553   0.15877   0.00000  Uiso   1.00
C105   C     0.63655   0.84061   0.09725   0.00000  Uiso   1.00
C106   C     0.77825   0.04454   0.34904   0.00000  Uiso   1.00
C107   C     0.76846   0.20562   0.35464   0.00000  Uiso   1.00
C108   C     0.68723   0.27847   0.39138   0.00000  Uiso   1.00
C109   C     0.69269   0.42582   0.39009   0.00000  Uiso   1.00
C110   C     0.91013   0.00754   0.36402   0.00000  Uiso   1.00
C111   C     0.94800   0.91384   0.40865   0.00000  Uiso   1.00
C112   C     0.07273   0.89442   0.41526   0.00000  Uiso   1.00
C113   C     0.76179   0.01100   0.28213   0.00000  Uiso   1.00
C114   C     0.67496   0.92018   0.25791   0.00000  Uiso   1.00
C115   C     0.67481   0.90364   0.19557   0.00000  Uiso   1.00
H116   H     0.99758   0.23254   0.25282   0.00000  Uiso   1.00
H117   H     0.92259   0.48016   0.28813   0.00000  Uiso   1.00
H118   H     0.18332   0.11556   0.30539   0.00000  Uiso   1.00
H119   H     0.91031   0.12190   0.15467   0.00000  Uiso   1.00
H120   H     0.80255   0.72304   0.34349   0.00000  Uiso   1.00
H121   H     0.35231   0.95423   0.37988   0.00000  Uiso   1.00
H122   H     0.77664   0.96761   0.06205   0.00000  Uiso   1.00
H123   H     0.71306   0.98866   0.37764   0.00000  Uiso   1.00
H124   H     0.62245   0.22291   0.41980   0.00000  Uiso   1.00
H125   H     0.88319   0.85831   0.43706   0.00000  Uiso   1.00
H126   H     0.61018   0.86466   0.28635   0.00000  Uiso   1.00
H127   H     0.55895   0.51425   0.45036   0.00000  Uiso   1.00
H128   H     0.10872   0.74544   0.48675   0.00000  Uiso   1.00
H129   H     0.53304   0.75881   0.16893   0.00000  Uiso   1.00
O130   O     0.62631   0.77713   0.42242   0.00000  Uiso   1.00
O131   O     0.34757   0.76847   0.47015   0.00000  Uiso   1.00
O132   O     0.59229   0.78603   0.05318   0.00000  Uiso   1.00
N133   N     0.75764   0.64175   0.36285   0.00000  Uiso   1.00
N134   N     0.27164   0.92298   0.39687   0.00000  Uiso   1.00
N135   N     0.73345   0.93546   0.09974   0.00000  Uiso   1.00
N136   N     0.62656   0.52940   0.42036   0.00000  Uiso   1.00
N137   N     0.14056   0.81063   0.45438   0.00000  Uiso   1.00
N138   N     0.60237   0.82311   0.15724   0.00000  Uiso   1.00
C139   C     0.56761   0.82333   0.78141   0.00000  Uiso   1.00
C140   C     0.64782   0.72261   0.81790   0.00000  Uiso   1.00
C141   C     0.64223   0.57534   0.81656   0.00000  Uiso   1.00
C142   C     0.72343   0.50228   0.85329   0.00000  Uiso   1.00
C143   C     0.83519   0.33498   0.90438   0.00000  Uiso   1.00
C144   C     0.50615   0.92069   0.82729   0.00000  Uiso   1.00
C145   C     0.38145   0.93998   0.83383   0.00000  Uiso   1.00
C146   C     0.34340   0.03368   0.87846   0.00000  Uiso   1.00
C147   C     0.23523   0.17398   0.94409   0.00000  Uiso   1.00
C148   C     0.65449   0.91723   0.74540   0.00000  Uiso   1.00
C149   C     0.65449   0.93365   0.68308   0.00000  Uiso   1.00
C150   C     0.74131   0.02447   0.65877   0.00000  Uiso   1.00
C151   C     0.86345   0.15939   0.59725   0.00000  Uiso   1.00
C152   C     0.72175   0.95546   0.84904   0.00000  Uiso   1.00
C153   C     0.73154   0.79438   0.85464   0.00000  Uiso   1.00
C154   C     0.81277   0.72153   0.89138   0.00000  Uiso   1.00
C155   C     0.80731   0.57418   0.89009   0.00000  Uiso   1.00
C156   C     0.58987   0.99246   0.86402   0.00000  Uiso   1.00
C157   C     0.55200   0.08616   0.90865   0.00000  Uiso   1.00
C158   C     0.42727   0.10558   0.91526   0.00000  Uiso   1.00
C159   C     0.73821   0.98900   0.78213   0.00000  Uiso   1.00
C160   C     0.82504   0.07982   0.75791   0.00000  Uiso   1.00
C161   C     0.82519   0.09636   0.69557   0.00000  Uiso   1.00
H162   H     0.50242   0.76746   0.75282   0.00000  Uiso   1.00
H163   H     0.57741   0.51984   0.78813   0.00000  Uiso   1.00
H164   H     0.31668   0.88444   0.80539   0.00000  Uiso   1.00
H165   H     0.58969   0.87810   0.65467   0.00000  Uiso   1.00
H166   H     0.69745   0.27696   0.84349   0.00000  Uiso   1.00
H167   H     0.14769   0.04577   0.87988   0.00000  Uiso   1.00
H168   H     0.72336   0.03239   0.56205   0.00000  Uiso   1.00
H169   H     0.78694   0.01134   0.87764   0.00000  Uiso   1.00
H170   H     0.87755   0.77709   0.91980   0.00000  Uiso   1.00
H171   H     0.61681   0.14169   0.93706   0.00000  Uiso   1.00
H172   H     0.88982   0.13534   0.78635   0.00000  Uiso   1.00
H173   H     0.94105   0.48575   0.95036   0.00000  Uiso   1.00
H174   H     0.39128   0.25456   0.98675   0.00000  Uiso   1.00
H175   H     0.96696   0.24119   0.66893   0.00000  Uiso   1.00
O176   O     0.87369   0.22287   0.92242   0.00000  Uiso   1.00
O177   O     0.15243   0.23153   0.97015   0.00000  Uiso   1.00
O178   O     0.90771   0.21397   0.55318   0.00000  Uiso   1.00
N179   N     0.74236   0.35825   0.86285   0.00000  Uiso   1.00
N180   N     0.22836   0.07702   0.89687   0.00000  Uiso   1.00
N181   N     0.76655   0.06454   0.59974   0.00000  Uiso   1.00
N182   N     0.87344   0.47060   0.92036   0.00000  Uiso   1.00
N183   N     0.35944   0.18937   0.95438   0.00000  Uiso   1.00
N184   N     0.89763   0.17689   0.65724   0.00000  Uiso   1.00
