data_job_06739
_audit_creation_date              2018-12-19
_audit_creation_method            'Materials Studio'
_symmetry_space_group_name_H-M    'P1'
_symmetry_Int_Tables_number       1
_symmetry_cell_setting            triclinic
loop_
_symmetry_equiv_pos_as_xyz
  x,y,z
_cell_length_a                    21.7400
_cell_length_b                    21.4140
_cell_length_c                    19.7432
_cell_angle_alpha                 83.8847
_cell_angle_beta                  80.4478
_cell_angle_gamma                 75.8480
loop_
_atom_site_label
_atom_site_type_symbol
_atom_site_fract_x
_atom_site_fract_y
_atom_site_fract_z
_atom_site_U_iso_or_equiv
_atom_site_adp_type
_atom_site_occupancy
C1     C     0.68541   0.07550   0.66464   0.00000  Uiso   1.00
C2     C     0.64368   0.14339   0.65514   0.00000  Uiso   1.00
C3     C     0.58200   0.15854   0.63830   0.00000  Uiso   1.00
C4     C     0.55185   0.22356   0.63194   0.00000  Uiso   1.00
C5     C     0.48243   0.32167   0.61560   0.00000  Uiso   1.00
C6     C     0.74731   0.07403   0.61484   0.00000  Uiso   1.00
C7     C     0.77277   0.03086   0.56414   0.00000  Uiso   1.00
C8     C     0.82987   0.03749   0.52387   0.00000  Uiso   1.00
C9     C     0.92136   0.02789   0.44501   0.00000  Uiso   1.00
C10    C     0.70372   0.06974   0.73672   0.00000  Uiso   1.00
C11    C     0.69254   0.02294   0.78849   0.00000  Uiso   1.00
C12    C     0.71296   0.02595   0.85082   0.00000  Uiso   1.00
C13    C     0.73676   0.00967   0.96120   0.00000  Uiso   1.00
C14    C     0.74155   0.16402   0.68329   0.00000  Uiso   1.00
C15    C     0.67417   0.19147   0.66526   0.00000  Uiso   1.00
C16    C     0.64411   0.25648   0.65893   0.00000  Uiso   1.00
C17    C     0.58240   0.27173   0.64209   0.00000  Uiso   1.00
C18    C     0.77781   0.12211   0.62497   0.00000  Uiso   1.00
C19    C     0.83488   0.12880   0.58477   0.00000  Uiso   1.00
C20    C     0.86042   0.08566   0.53402   0.00000  Uiso   1.00
C21    C     0.73421   0.11782   0.74685   0.00000  Uiso   1.00
C22    C     0.75465   0.12089   0.80912   0.00000  Uiso   1.00
C23    C     0.74350   0.07411   0.86097   0.00000  Uiso   1.00
H24    H     0.66168   0.03806   0.65675   0.00000  Uiso   1.00
H25    H     0.55842   0.12132   0.63046   0.00000  Uiso   1.00
H26    H     0.74917   0.99366   0.55632   0.00000  Uiso   1.00
H27    H     0.66895   0.98574   0.78063   0.00000  Uiso   1.00
H28    H     0.45740   0.23483   0.60575   0.00000  Uiso   1.00
H29    H     0.85961   0.96563   0.44943   0.00000  Uiso   1.00
H30    H     0.69045   0.94894   0.92244   0.00000  Uiso   1.00
H31    H     0.76529   0.20146   0.69117   0.00000  Uiso   1.00
H32    H     0.66772   0.29368   0.66677   0.00000  Uiso   1.00
H33    H     0.85847   0.16602   0.59263   0.00000  Uiso   1.00
H34    H     0.77825   0.15810   0.81694   0.00000  Uiso   1.00
H35    H     0.54611   0.37472   0.63521   0.00000  Uiso   1.00
H36    H     0.94833   0.10552   0.47890   0.00000  Uiso   1.00
H37    H     0.77916   0.08884   0.95191   0.00000  Uiso   1.00
O38    O     0.43571   0.36250   0.60378   0.00000  Uiso   1.00
O39    O     0.96340   0.00931   0.39871   0.00000  Uiso   1.00
O40    O     0.74146   0.98742   0.01928   0.00000  Uiso   1.00
N41    N     0.49166   0.25510   0.61605   0.00000  Uiso   1.00
N42    N     0.86770   0.00342   0.46989   0.00000  Uiso   1.00
N43    N     0.70957   0.98781   0.91211   0.00000  Uiso   1.00
N44    N     0.53940   0.33037   0.63190   0.00000  Uiso   1.00
N45    N     0.91544   0.07869   0.48575   0.00000  Uiso   1.00
N46    N     0.75730   0.06308   0.92796   0.00000  Uiso   1.00
C47    C     0.92770   0.59366   0.97200   0.00000  Uiso   1.00
C48    C     0.91973   0.56734   0.04700   0.00000  Uiso   1.00
C49    C     0.90407   0.50903   0.07079   0.00000  Uiso   1.00
C50    C     0.89902   0.49365   0.14130   0.00000  Uiso   1.00
C51    C     0.88505   0.44649   0.25092   0.00000  Uiso   1.00
C52    C     0.88143   0.65980   0.96933   0.00000  Uiso   1.00
C53    C     0.83358   0.67923   0.92782   0.00000  Uiso   1.00
C54    C     0.79630   0.74169   0.93294   0.00000  Uiso   1.00
C55    C     0.72291   0.83808   0.92194   0.00000  Uiso   1.00
C56    C     0.99489   0.60621   0.95647   0.00000  Uiso   1.00
C57    C     0.04242   0.58059   0.90412   0.00000  Uiso   1.00
C58    C     0.10066   0.59794   0.89841   0.00000  Uiso   1.00
C59    C     0.20342   0.61112   0.86744   0.00000  Uiso   1.00
C60    C     0.94660   0.67006   0.05491   0.00000  Uiso   1.00
C61    C     0.93000   0.60884   0.09203   0.00000  Uiso   1.00
C62    C     0.92498   0.59355   0.16253   0.00000  Uiso   1.00
C63    C     0.90931   0.53522   0.18642   0.00000  Uiso   1.00
C64    C     0.89170   0.70130   0.01437   0.00000  Uiso   1.00
C65    C     0.85449   0.76375   0.01955   0.00000  Uiso   1.00
C66    C     0.80659   0.78326   0.97806   0.00000  Uiso   1.00
C67    C     0.00516   0.64771   0.00151   0.00000  Uiso   1.00
C68    C     0.06333   0.66511   0.99586   0.00000  Uiso   1.00
C69    C     0.11095   0.63952   0.94352   0.00000  Uiso   1.00
H70    H     0.91970   0.56136   0.93693   0.00000  Uiso   1.00
H71    H     0.89612   0.47693   0.03592   0.00000  Uiso   1.00
H72    H     0.82565   0.64710   0.89297   0.00000  Uiso   1.00
H73    H     0.03446   0.54848   0.86929   0.00000  Uiso   1.00
H74    H     0.87447   0.40163   0.16554   0.00000  Uiso   1.00
H75    H     0.72589   0.76046   0.86409   0.00000  Uiso   1.00
H76    H     0.16621   0.55249   0.81414   0.00000  Uiso   1.00
H77    H     0.95460   0.70237   0.08997   0.00000  Uiso   1.00
H78    H     0.93293   0.62568   0.19736   0.00000  Uiso   1.00
H79    H     0.86245   0.79585   0.05440   0.00000  Uiso   1.00
H80    H     0.07126   0.69722   0.03072   0.00000  Uiso   1.00
H81    H     0.90434   0.52236   0.29657   0.00000  Uiso   1.00
H82    H     0.75576   0.88119   0.99511   0.00000  Uiso   1.00
H83    H     0.19608   0.67322   0.94517   0.00000  Uiso   1.00
O84    O     0.87450   0.40901   0.29894   0.00000  Uiso   1.00
O85    O     0.67958   0.87978   0.90344   0.00000  Uiso   1.00
O86    O     0.25726   0.60692   0.83792   0.00000  Uiso   1.00
N87    N     0.88449   0.44056   0.18164   0.00000  Uiso   1.00
N88    N     0.74557   0.77605   0.89980   0.00000  Uiso   1.00
N89    N     0.15722   0.58162   0.85310   0.00000  Uiso   1.00
N90    N     0.90056   0.50553   0.25214   0.00000  Uiso   1.00
N91    N     0.76164   0.84101   0.97031   0.00000  Uiso   1.00
N92    N     0.17330   0.64659   0.92361   0.00000  Uiso   1.00
C93    C     0.21400   0.76016   0.45154   0.00000  Uiso   1.00
C94    C     0.28356   0.75656   0.41973   0.00000  Uiso   1.00
C95    C     0.31080   0.73856   0.35395   0.00000  Uiso   1.00
C96    C     0.37522   0.73833   0.33449   0.00000  Uiso   1.00
C97    C     0.47779   0.73010   0.27830   0.00000  Uiso   1.00
C98    C     0.21641   0.71668   0.51791   0.00000  Uiso   1.00
C99    C     0.18718   0.66515   0.53468   0.00000  Uiso   1.00
C100   C     0.19507   0.63136   0.59787   0.00000  Uiso   1.00
C101   C     0.19334   0.56125   0.69413   0.00000  Uiso   1.00
C102   C     0.18724   0.82888   0.47347   0.00000  Uiso   1.00
C103   C     0.13348   0.87169   0.45289   0.00000  Uiso   1.00
C104   C     0.11680   0.93236   0.47868   0.00000  Uiso   1.00
C105   C     0.06979   0.03646   0.50594   0.00000  Uiso   1.00
C106   C     0.27997   0.79177   0.53397   0.00000  Uiso   1.00
C107   C     0.31939   0.77373   0.46451   0.00000  Uiso   1.00
C108   C     0.38379   0.77353   0.44514   0.00000  Uiso   1.00
C109   C     0.41112   0.75553   0.37934   0.00000  Uiso   1.00
C110   C     0.25224   0.73385   0.56268   0.00000  Uiso   1.00
C111   C     0.26017   0.70013   0.62587   0.00000  Uiso   1.00
C112   C     0.23097   0.64856   0.64272   0.00000  Uiso   1.00
C113   C     0.22308   0.84605   0.51824   0.00000  Uiso   1.00
C114   C     0.20647   0.90666   0.54408   0.00000  Uiso   1.00
C115   C     0.15270   0.94956   0.52354   0.00000  Uiso   1.00
H116   H     0.18610   0.74679   0.41669   0.00000  Uiso   1.00
H117   H     0.28305   0.72527   0.31932   0.00000  Uiso   1.00
H118   H     0.15945   0.65188   0.50002   0.00000  Uiso   1.00
H119   H     0.10576   0.85839   0.41825   0.00000  Uiso   1.00
H120   H     0.40635   0.70896   0.23112   0.00000  Uiso   1.00
H121   H     0.14570   0.55424   0.61215   0.00000  Uiso   1.00
H122   H     0.03248   0.98969   0.43971   0.00000  Uiso   1.00
H123   H     0.30787   0.80513   0.56883   0.00000  Uiso   1.00
H124   H     0.41151   0.78682   0.47980   0.00000  Uiso   1.00
H125   H     0.28791   0.71343   0.66050   0.00000  Uiso   1.00
H126   H     0.23422   0.91993   0.57872   0.00000  Uiso   1.00
H127   H     0.51061   0.75891   0.36137   0.00000  Uiso   1.00
H128   H     0.24996   0.60419   0.74240   0.00000  Uiso   1.00
H129   H     0.13675   0.03964   0.56996   0.00000  Uiso   1.00
O130   O     0.52446   0.72081   0.23494   0.00000  Uiso   1.00
O131   O     0.18250   0.51783   0.73484   0.00000  Uiso   1.00
O132   O     0.03396   0.08913   0.50860   0.00000  Uiso   1.00
N133   N     0.41666   0.72324   0.27399   0.00000  Uiso   1.00
N134   N     0.17298   0.57858   0.63022   0.00000  Uiso   1.00
N135   N     0.06712   0.98568   0.46902   0.00000  Uiso   1.00
N136   N     0.47277   0.75012   0.34407   0.00000  Uiso   1.00
N137   N     0.22909   0.60546   0.70031   0.00000  Uiso   1.00
N138   N     0.12323   0.01256   0.53910   0.00000  Uiso   1.00
C139   C     0.24139   0.17029   0.48941   0.00000  Uiso   1.00
C140   C     0.19514   0.16494   0.55573   0.00000  Uiso   1.00
C141   C     0.13271   0.15817   0.56004   0.00000  Uiso   1.00
C142   C     0.09819   0.15408   0.62551   0.00000  Uiso   1.00
C143   C     0.02228   0.14536   0.71950   0.00000  Uiso   1.00
C144   C     0.30079   0.11610   0.49638   0.00000  Uiso   1.00
C145   C     0.32719   0.06827   0.45079   0.00000  Uiso   1.00
C146   C     0.38162   0.02308   0.46630   0.00000  Uiso   1.00
C147   C     0.46976   0.93855   0.46813   0.00000  Uiso   1.00
C148   C     0.26231   0.23309   0.49056   0.00000  Uiso   1.00
C149   C     0.25637   0.28363   0.44007   0.00000  Uiso   1.00
C150   C     0.27841   0.33693   0.45068   0.00000  Uiso   1.00
C151   C     0.30681   0.43405   0.44348   0.00000  Uiso   1.00
C152   C     0.29112   0.17507   0.59802   0.00000  Uiso   1.00
C153   C     0.22215   0.16754   0.61472   0.00000  Uiso   1.00
C154   C     0.18772   0.16347   0.68020   0.00000  Uiso   1.00
C155   C     0.12525   0.15669   0.68461   0.00000  Uiso   1.00
C156   C     0.32780   0.11870   0.55537   0.00000  Uiso   1.00
C157   C     0.38221   0.07357   0.57095   0.00000  Uiso   1.00
C158   C     0.40868   0.02568   0.52540   0.00000  Uiso   1.00
C159   C     0.28932   0.23569   0.54956   0.00000  Uiso   1.00
C160   C     0.31138   0.28892   0.56024   0.00000  Uiso   1.00
C161   C     0.30547   0.33953   0.50978   0.00000  Uiso   1.00
H162   H     0.22036   0.16826   0.44349   0.00000  Uiso   1.00
H163   H     0.11182   0.15616   0.51437   0.00000  Uiso   1.00
H164   H     0.30628   0.06628   0.40514   0.00000  Uiso   1.00
H165   H     0.23546   0.28160   0.39443   0.00000  Uiso   1.00
H166   H     0.00340   0.14386   0.61898   0.00000  Uiso   1.00
H167   H     0.41344   0.95436   0.38864   0.00000  Uiso   1.00
H168   H     0.26412   0.40840   0.36605   0.00000  Uiso   1.00
H169   H     0.31215   0.17710   0.64395   0.00000  Uiso   1.00
H170   H     0.20864   0.16548   0.72584   0.00000  Uiso   1.00
H171   H     0.40310   0.07560   0.61661   0.00000  Uiso   1.00
H172   H     0.33228   0.29092   0.60590   0.00000  Uiso   1.00
H173   H     0.08199   0.15142   0.79061   0.00000  Uiso   1.00
H174   H     0.49203   0.96192   0.56028   0.00000  Uiso   1.00
H175   H     0.34270   0.41596   0.53769   0.00000  Uiso   1.00
O176   O     0.97296   0.13981   0.75505   0.00000  Uiso   1.00
O177   O     0.51092   0.89120   0.45285   0.00000  Uiso   1.00
O178   O     0.31500   0.48690   0.42322   0.00000  Uiso   1.00
N179   N     0.03610   0.14725   0.64813   0.00000  Uiso   1.00
N180   N     0.41945   0.97007   0.43279   0.00000  Uiso   1.00
N181   N     0.27986   0.39456   0.41166   0.00000  Uiso   1.00
N182   N     0.07838   0.15131   0.74049   0.00000  Uiso   1.00
N183   N     0.46174   0.97414   0.52515   0.00000  Uiso   1.00
N184   N     0.32215   0.39862   0.50402   0.00000  Uiso   1.00
C185   C     0.49674   0.52991   0.03924   0.00000  Uiso   1.00
C186   C     0.48433   0.60285   0.02378   0.00000  Uiso   1.00
C187   C     0.47158   0.63560   0.96127   0.00000  Uiso   1.00
C188   C     0.46156   0.70237   0.95753   0.00000  Uiso   1.00
C189   C     0.44186   0.81064   0.92489   0.00000  Uiso   1.00
C190   C     0.44745   0.51868   0.10107   0.00000  Uiso   1.00
C191   C     0.40368   0.48064   0.10354   0.00000  Uiso   1.00
C192   C     0.36261   0.47654   0.16487   0.00000  Uiso   1.00
C193   C     0.28568   0.45410   0.25223   0.00000  Uiso   1.00
C194   C     0.56179   0.50956   0.06452   0.00000  Uiso   1.00
C195   C     0.61415   0.46384   0.03628   0.00000  Uiso   1.00
C196   C     0.66935   0.45205   0.06685   0.00000  Uiso   1.00
C197   C     0.76995   0.41544   0.09747   0.00000  Uiso   1.00
C198   C     0.50164   0.59025   0.14377   0.00000  Uiso   1.00
C199   C     0.48699   0.63563   0.08055   0.00000  Uiso   1.00
C200   C     0.47700   0.70236   0.07691   0.00000  Uiso   1.00
C201   C     0.46423   0.73520   0.01440   0.00000  Uiso   1.00
C202   C     0.45010   0.55145   0.15784   0.00000  Uiso   1.00
C203   C     0.40910   0.54740   0.21918   0.00000  Uiso   1.00
C204   C     0.36528   0.50938   0.22174   0.00000  Uiso   1.00
C205   C     0.56445   0.54233   0.12129   0.00000  Uiso   1.00
C206   C     0.61957   0.53060   0.15192   0.00000  Uiso   1.00
C207   C     0.67202   0.48488   0.12373   0.00000  Uiso   1.00
H208   H     0.49466   0.50439   0.99505   0.00000  Uiso   1.00
H209   H     0.46951   0.61022   0.91735   0.00000  Uiso   1.00
H210   H     0.40163   0.45528   0.05960   0.00000  Uiso   1.00
H211   H     0.61208   0.43849   0.99235   0.00000  Uiso   1.00
H212   H     0.44278   0.74200   0.85624   0.00000  Uiso   1.00
H213   H     0.29967   0.41529   0.15620   0.00000  Uiso   1.00
H214   H     0.74343   0.37987   0.01438   0.00000  Uiso   1.00
H215   H     0.50371   0.61577   0.18797   0.00000  Uiso   1.00
H216   H     0.47906   0.72771   0.12085   0.00000  Uiso   1.00
H217   H     0.41117   0.57277   0.26310   0.00000  Uiso   1.00
H218   H     0.62162   0.55598   0.19585   0.00000  Uiso   1.00
H219   H     0.45052   0.83736   0.02142   0.00000  Uiso   1.00
H220   H     0.30741   0.51064   0.32137   0.00000  Uiso   1.00
H221   H     0.75117   0.47523   0.17956   0.00000  Uiso   1.00
O222   O     0.43025   0.86131   0.89120   0.00000  Uiso   1.00
O223   O     0.24250   0.43267   0.28473   0.00000  Uiso   1.00
O224   O     0.82470   0.38620   0.09867   0.00000  Uiso   1.00
N225   N     0.44800   0.74908   0.90432   0.00000  Uiso   1.00
N226   N     0.31419   0.44363   0.18476   0.00000  Uiso   1.00
N227   N     0.72906   0.41051   0.05219   0.00000  Uiso   1.00
N228   N     0.45217   0.80039   0.99320   0.00000  Uiso   1.00
N229   N     0.31835   0.49494   0.27364   0.00000  Uiso   1.00
N230   N     0.73323   0.46182   0.14106   0.00000  Uiso   1.00
C231   C     0.74299   0.01639   0.20671   0.00000  Uiso   1.00
C232   C     0.80947   0.97270   0.20998   0.00000  Uiso   1.00
C233   C     0.83156   0.91193   0.18473   0.00000  Uiso   1.00
C234   C     0.89388   0.87966   0.19271   0.00000  Uiso   1.00
C235   C     0.99122   0.80764   0.19287   0.00000  Uiso   1.00
C236   C     0.75383   0.07993   0.16988   0.00000  Uiso   1.00
C237   C     0.72913   0.10933   0.11090   0.00000  Uiso   1.00
C238   C     0.74461   0.16733   0.08514   0.00000  Uiso   1.00
C239   C     0.75554   0.26182   0.02306   0.00000  Uiso   1.00
C240   C     0.71458   0.03131   0.28078   0.00000  Uiso   1.00
C241   C     0.65686   0.01985   0.31505   0.00000  Uiso   1.00
C242   C     0.63928   0.03693   0.38266   0.00000  Uiso   1.00
C243   C     0.58926   0.05594   0.49278   0.00000  Uiso   1.00
C244   C     0.81437   0.06714   0.26582   0.00000  Uiso   1.00
C245   C     0.84825   0.00027   0.24208   0.00000  Uiso   1.00
C246   C     0.91054   0.96808   0.25012   0.00000  Uiso   1.00
C247   C     0.93272   0.90727   0.22488   0.00000  Uiso   1.00
C248   C     0.79261   0.10750   0.20198   0.00000  Uiso   1.00
C249   C     0.80812   0.16548   0.17630   0.00000  Uiso   1.00
C250   C     0.78345   0.19495   0.11730   0.00000  Uiso   1.00
C251   C     0.75335   0.05888   0.31288   0.00000  Uiso   1.00
C252   C     0.73585   0.07600   0.38045   0.00000  Uiso   1.00
C253   C     0.67812   0.06455   0.41482   0.00000  Uiso   1.00
H254   H     0.71280   0.99493   0.18172   0.00000  Uiso   1.00
H255   H     0.80154   0.89061   0.15988   0.00000  Uiso   1.00
H256   H     0.69913   0.08798   0.08608   0.00000  Uiso   1.00
H257   H     0.62687   0.99851   0.29020   0.00000  Uiso   1.00
H258   H     0.91704   0.78713   0.14980   0.00000  Uiso   1.00
H259   H     0.70107   0.20330   0.99420   0.00000  Uiso   1.00
H260   H     0.54870   0.01464   0.42462   0.00000  Uiso   1.00
H261   H     0.84456   0.08861   0.29081   0.00000  Uiso   1.00
H262   H     0.94054   0.98943   0.27496   0.00000  Uiso   1.00
H263   H     0.83812   0.18680   0.20115   0.00000  Uiso   1.00
H264   H     0.76587   0.09733   0.40527   0.00000  Uiso   1.00
H265   H     0.02985   0.86733   0.24320   0.00000  Uiso   1.00
H266   H     0.81388   0.28351   0.08760   0.00000  Uiso   1.00
H267   H     0.66152   0.09485   0.51802   0.00000  Uiso   1.00
O268   O     0.03421   0.76031   0.18409   0.00000  Uiso   1.00
O269   O     0.75086   0.30632   0.97995   0.00000  Uiso   1.00
O270   O     0.55096   0.05879   0.54465   0.00000  Uiso   1.00
N271   N     0.93041   0.81961   0.17397   0.00000  Uiso   1.00
N272   N     0.72850   0.20871   0.02848   0.00000  Uiso   1.00
N273   N     0.58604   0.03234   0.43089   0.00000  Uiso   1.00
N274   N     0.99112   0.86276   0.22423   0.00000  Uiso   1.00
N275   N     0.78921   0.25186   0.07874   0.00000  Uiso   1.00
N276   N     0.64675   0.07549   0.48115   0.00000  Uiso   1.00
C277   C     0.54701   0.95478   0.17143   0.00000  Uiso   1.00
C278   C     0.59770   0.89161   0.17491   0.00000  Uiso   1.00
C279   C     0.64958   0.87959   0.21083   0.00000  Uiso   1.00
C280   C     0.69051   0.81870   0.20759   0.00000  Uiso   1.00
C281   C     0.77082   0.72777   0.21877   0.00000  Uiso   1.00
C282   C     0.48266   0.93744   0.19650   0.00000  Uiso   1.00
C283   C     0.43780   0.96396   0.25058   0.00000  Uiso   1.00
C284   C     0.38188   0.94165   0.26551   0.00000  Uiso   1.00
C285   C     0.28356   0.92191   0.31019   0.00000  Uiso   1.00
C286   C     0.54727   0.97584   0.09515   0.00000  Uiso   1.00
C287   C     0.55673   0.03465   0.06400   0.00000  Uiso   1.00
C288   C     0.55520   0.04467   0.99359   0.00000  Uiso   1.00
C289   C     0.55720   0.08455   0.88090   0.00000  Uiso   1.00
C290   C     0.52746   0.86802   0.10178   0.00000  Uiso   1.00
C291   C     0.58708   0.84449   0.13708   0.00000  Uiso   1.00
C292   C     0.62795   0.78360   0.13377   0.00000  Uiso   1.00
C293   C     0.67987   0.77149   0.16969   0.00000  Uiso   1.00
C294   C     0.47203   0.89032   0.15868   0.00000  Uiso   1.00
C295   C     0.41617   0.86797   0.17352   0.00000  Uiso   1.00
C296   C     0.37124   0.89445   0.22761   0.00000  Uiso   1.00
C297   C     0.53665   0.92871   0.05731   0.00000  Uiso   1.00
C298   C     0.53510   0.93866   0.98694   0.00000  Uiso   1.00
C299   C     0.54456   0.99747   0.95569   0.00000  Uiso   1.00
H300   H     0.55528   0.99147   0.20088   0.00000  Uiso   1.00
H301   H     0.65778   0.91607   0.24011   0.00000  Uiso   1.00
H302   H     0.44603   0.00043   0.27984   0.00000  Uiso   1.00
H303   H     0.56494   0.07110   0.09329   0.00000  Uiso   1.00
H304   H     0.76672   0.81168   0.26694   0.00000  Uiso   1.00
H305   H     0.32024   0.98958   0.35071   0.00000  Uiso   1.00
H306   H     0.57098   0.13861   0.95732   0.00000  Uiso   1.00
H307   H     0.51919   0.83134   0.07232   0.00000  Uiso   1.00
H308   H     0.61971   0.74714   0.10449   0.00000  Uiso   1.00
H309   H     0.40796   0.83151   0.14423   0.00000  Uiso   1.00
H310   H     0.52688   0.90218   0.95768   0.00000  Uiso   1.00
H311   H     0.73583   0.67458   0.15687   0.00000  Uiso   1.00
H312   H     0.28934   0.85248   0.24064   0.00000  Uiso   1.00
H313   H     0.54009   0.00150   0.84726   0.00000  Uiso   1.00
O314   O     0.81804   0.69063   0.23540   0.00000  Uiso   1.00
O315   O     0.23226   0.92404   0.34530   0.00000  Uiso   1.00
O316   O     0.56124   0.11955   0.82919   0.00000  Uiso   1.00
N317   N     0.74566   0.79097   0.23660   0.00000  Uiso   1.00
N318   N     0.32823   0.95729   0.31493   0.00000  Uiso   1.00
N319   N     0.56264   0.09662   0.94716   0.00000  Uiso   1.00
N320   N     0.72904   0.71720   0.17738   0.00000  Uiso   1.00
N321   N     0.31160   0.88352   0.25571   0.00000  Uiso   1.00
N322   N     0.54602   0.02285   0.88793   0.00000  Uiso   1.00
C323   C     0.38936   0.47255   0.88769   0.00000  Uiso   1.00
C324   C     0.39560   0.50643   0.81577   0.00000  Uiso   1.00
C325   C     0.40543   0.56827   0.79985   0.00000  Uiso   1.00
C326   C     0.40984   0.59054   0.73095   0.00000  Uiso   1.00
C327   C     0.42036   0.64895   0.62705   0.00000  Uiso   1.00
C328   C     0.44070   0.40962   0.88425   0.00000  Uiso   1.00
C329   C     0.48844   0.39006   0.92590   0.00000  Uiso   1.00
C330   C     0.53081   0.33082   0.91465   0.00000  Uiso   1.00
C331   C     0.61131   0.23891   0.91708   0.00000  Uiso   1.00
C332   C     0.32517   0.45333   0.89861   0.00000  Uiso   1.00
C333   C     0.27578   0.47051   0.95235   0.00000  Uiso   1.00
C334   C     0.22088   0.44806   0.95319   0.00000  Uiso   1.00
C335   C     0.12202   0.42402   0.97793   0.00000  Uiso   1.00
C336   C     0.37971   0.40210   0.79365   0.00000  Uiso   1.00
C337   C     0.39036   0.46816   0.76470   0.00000  Uiso   1.00
C338   C     0.39475   0.49033   0.69580   0.00000  Uiso   1.00
C339   C     0.40458   0.55221   0.67978   0.00000  Uiso   1.00
C340   C     0.43546   0.37135   0.83317   0.00000  Uiso   1.00
C341   C     0.47776   0.31212   0.82185   0.00000  Uiso   1.00
C342   C     0.52556   0.29249   0.86348   0.00000  Uiso   1.00
C343   C     0.31993   0.41506   0.84753   0.00000  Uiso   1.00
C344   C     0.26510   0.39258   0.84830   0.00000  Uiso   1.00
C345   C     0.21564   0.40973   0.90202   0.00000  Uiso   1.00
H346   H     0.39344   0.50234   0.92746   0.00000  Uiso   1.00
H347   H     0.40949   0.59787   0.83939   0.00000  Uiso   1.00
H348   H     0.49248   0.41968   0.96543   0.00000  Uiso   1.00
H349   H     0.27985   0.50012   0.99186   0.00000  Uiso   1.00
H350   H     0.42499   0.68690   0.71923   0.00000  Uiso   1.00
H351   H     0.59997   0.31118   0.98499   0.00000  Uiso   1.00
H352   H     0.15160   0.48080   0.04075   0.00000  Uiso   1.00
H353   H     0.37563   0.37231   0.75388   0.00000  Uiso   1.00
H354   H     0.39070   0.46071   0.65629   0.00000  Uiso   1.00
H355   H     0.47369   0.28253   0.78232   0.00000  Uiso   1.00
H356   H     0.26107   0.36297   0.80876   0.00000  Uiso   1.00
H357   H     0.40974   0.57558   0.57061   0.00000  Uiso   1.00
H358   H     0.58472   0.19985   0.83638   0.00000  Uiso   1.00
H359   H     0.13636   0.36948   0.89213   0.00000  Uiso   1.00
O360   O     0.42762   0.69173   0.58385   0.00000  Uiso   1.00
O361   O     0.65717   0.19879   0.93253   0.00000  Uiso   1.00
O362   O     0.06893   0.42134   0.00567   0.00000  Uiso   1.00
N363   N     0.41932   0.64858   0.69765   0.00000  Uiso   1.00
N364   N     0.58292   0.29730   0.94611   0.00000  Uiso   1.00
N365   N     0.16374   0.45587   0.99825   0.00000  Uiso   1.00
N366   N     0.41111   0.58867   0.61768   0.00000  Uiso   1.00
N367   N     0.57472   0.23740   0.86614   0.00000  Uiso   1.00
N368   N     0.15554   0.39597   0.91828   0.00000  Uiso   1.00
C369   C     0.06071   0.22384   0.37265   0.00000  Uiso   1.00
C370   C     0.99342   0.24639   0.41163   0.00000  Uiso   1.00
C371   C     0.97838   0.25526   0.48158   0.00000  Uiso   1.00
C372   C     0.91395   0.27614   0.50743   0.00000  Uiso   1.00
C373   C     0.81671   0.30942   0.57443   0.00000  Uiso   1.00
C374   C     0.06877   0.27575   0.31490   0.00000  Uiso   1.00
C375   C     0.11708   0.30930   0.30351   0.00000  Uiso   1.00
C376   C     0.11608   0.35490   0.24792   0.00000  Uiso   1.00
C377   C     0.13585   0.43374   0.16472   0.00000  Uiso   1.00
C378   C     0.05985   0.16400   0.33763   0.00000  Uiso   1.00
C379   C     0.10068   0.10359   0.34535   0.00000  Uiso   1.00
C380   C     0.09218   0.05510   0.30888   0.00000  Uiso   1.00
C381   C     0.09810   0.96042   0.26097   0.00000  Uiso   1.00
C382   C     0.97302   0.24516   0.29416   0.00000  Uiso   1.00
C383   C     0.94580   0.25797   0.36899   0.00000  Uiso   1.00
C384   C     0.88137   0.27884   0.39474   0.00000  Uiso   1.00
C385   C     0.86623   0.28774   0.46472   0.00000  Uiso   1.00
C386   C     0.02114   0.28733   0.27227   0.00000  Uiso   1.00
C387   C     0.02007   0.33289   0.21667   0.00000  Uiso   1.00
C388   C     0.06837   0.36650   0.20521   0.00000  Uiso   1.00
C389   C     0.01222   0.17558   0.29500   0.00000  Uiso   1.00
C390   C     0.00366   0.12718   0.25851   0.00000  Uiso   1.00
C391   C     0.04447   0.06670   0.26617   0.00000  Uiso   1.00
H392   H     0.09779   0.21483   0.40584   0.00000  Uiso   1.00
H393   H     0.01525   0.24629   0.51456   0.00000  Uiso   1.00
H394   H     0.15393   0.30033   0.33651   0.00000  Uiso   1.00
H395   H     0.13753   0.09464   0.37834   0.00000  Uiso   1.00
H396   H     0.90274   0.28631   0.61628   0.00000  Uiso   1.00
H397   H     0.19517   0.40022   0.24085   0.00000  Uiso   1.00
H398   H     0.16058   0.96650   0.32906   0.00000  Uiso   1.00
H399   H     0.93595   0.25418   0.26097   0.00000  Uiso   1.00
H400   H     0.84452   0.28780   0.36174   0.00000  Uiso   1.00
H401   H     0.98321   0.34184   0.18369   0.00000  Uiso   1.00
H402   H     0.96680   0.13615   0.22552   0.00000  Uiso   1.00
H403   H     0.76417   0.32001   0.49225   0.00000  Uiso   1.00
H404   H     0.05661   0.43392   0.11682   0.00000  Uiso   1.00
H405   H     0.02201   0.00019   0.20502   0.00000  Uiso   1.00
O406   O     0.77624   0.32459   0.62316   0.00000  Uiso   1.00
O407   O     0.15991   0.47403   0.13061   0.00000  Uiso   1.00
O408   O     0.11452   0.90499   0.24634   0.00000  Uiso   1.00
N409   N     0.88267   0.28961   0.57326   0.00000  Uiso   1.00
N410   N     0.15608   0.39612   0.22227   0.00000  Uiso   1.00
N411   N     0.12375   0.99063   0.30472   0.00000  Uiso   1.00
N412   N     0.80811   0.30774   0.50652   0.00000  Uiso   1.00
N413   N     0.08151   0.41425   0.15553   0.00000  Uiso   1.00
N414   N     0.04918   0.00876   0.23797   0.00000  Uiso   1.00
C415   C     0.12270   0.62952   0.35904   0.00000  Uiso   1.00
C416   C     0.14753   0.62592   0.28231   0.00000  Uiso   1.00
C417   C     0.20616   0.63656   0.24992   0.00000  Uiso   1.00
C418   C     0.21997   0.63098   0.17930   0.00000  Uiso   1.00
C419   C     0.26509   0.62780   0.06575   0.00000  Uiso   1.00
C420   C     0.05841   0.67860   0.36447   0.00000  Uiso   1.00
C421   C     0.04211   0.73351   0.40118   0.00000  Uiso   1.00
C422   C     0.98091   0.77227   0.39972   0.00000  Uiso   1.00
C423   C     0.88766   0.85085   0.41378   0.00000  Uiso   1.00
C424   C     0.10753   0.56430   0.38386   0.00000  Uiso   1.00
C425   C     0.13252   0.52313   0.43688   0.00000  Uiso   1.00
C426   C     0.11265   0.46566   0.45176   0.00000  Uiso   1.00
C427   C     0.09567   0.36678   0.49592   0.00000  Uiso   1.00
C428   C     0.04298   0.60070   0.29122   0.00000  Uiso   1.00
C429   C     0.10422   0.61027   0.24547   0.00000  Uiso   1.00
C430   C     0.11795   0.60467   0.17488   0.00000  Uiso   1.00
C431   C     0.17659   0.61529   0.14239   0.00000  Uiso   1.00
C432   C     0.01511   0.66295   0.32764   0.00000  Uiso   1.00
C433   C     0.95391   0.70163   0.32614   0.00000  Uiso   1.00
C434   C     0.93753   0.75659   0.36282   0.00000  Uiso   1.00
C435   C     0.06423   0.54865   0.34702   0.00000  Uiso   1.00
C436   C     0.04431   0.49124   0.36183   0.00000  Uiso   1.00
C437   C     0.06927   0.44998   0.41485   0.00000  Uiso   1.00
H438   H     0.15641   0.64171   0.38773   0.00000  Uiso   1.00
H439   H     0.23965   0.64868   0.27845   0.00000  Uiso   1.00
H440   H     0.07563   0.74561   0.42969   0.00000  Uiso   1.00
H441   H     0.16603   0.53526   0.46537   0.00000  Uiso   1.00
H442   H     0.31284   0.64952   0.14104   0.00000  Uiso   1.00
H443   H     0.96699   0.85390   0.45995   0.00000  Uiso   1.00
H444   H     0.15759   0.41032   0.53522   0.00000  Uiso   1.00
H445   H     0.00926   0.58851   0.26254   0.00000  Uiso   1.00
H446   H     0.08443   0.59255   0.14638   0.00000  Uiso   1.00
H447   H     0.92041   0.68949   0.29762   0.00000  Uiso   1.00
H448   H     0.01080   0.47914   0.33331   0.00000  Uiso   1.00
H449   H     0.18685   0.60397   0.03385   0.00000  Uiso   1.00
H450   H     0.84100   0.80835   0.35277   0.00000  Uiso   1.00
H451   H     0.03161   0.36477   0.42803   0.00000  Uiso   1.00
O452   O     0.30194   0.63038   0.01329   0.00000  Uiso   1.00
O453   O     0.84819   0.89852   0.43171   0.00000  Uiso   1.00
O454   O     0.09827   0.31656   0.53044   0.00000  Uiso   1.00
N455   N     0.27287   0.63823   0.13176   0.00000  Uiso   1.00
N456   N     0.94953   0.82932   0.42991   0.00000  Uiso   1.00
N457   N     0.12772   0.41462   0.50029   0.00000  Uiso   1.00
N458   N     0.20508   0.61372   0.07408   0.00000  Uiso   1.00
N459   N     0.88174   0.80481   0.37224   0.00000  Uiso   1.00
N460   N     0.05993   0.39011   0.44261   0.00000  Uiso   1.00
C461   C     0.93359   0.37046   0.90625   0.00000  Uiso   1.00
C462   C     0.94234   0.30107   0.93726   0.00000  Uiso   1.00
C463   C     0.95748   0.27956   0.00262   0.00000  Uiso   1.00
C464   C     0.96339   0.21424   0.02136   0.00000  Uiso   1.00
C465   C     0.97835   0.11292   0.07635   0.00000  Uiso   1.00
C466   C     0.98046   0.36803   0.83940   0.00000  Uiso   1.00
C467   C     0.02765   0.40282   0.82248   0.00000  Uiso   1.00
C468   C     0.06565   0.39387   0.75883   0.00000  Uiso   1.00
C469   C     0.13978   0.39654   0.66186   0.00000  Uiso   1.00
C470   C     0.86673   0.38899   0.88525   0.00000  Uiso   1.00
C471   C     0.81830   0.44142   0.90686   0.00000  Uiso   1.00
C472   C     0.76055   0.45013   0.88180   0.00000  Uiso   1.00
C473   C     0.65809   0.48534   0.85602   0.00000  Uiso   1.00
C474   C     0.91717   0.29271   0.82330   0.00000  Uiso   1.00
C475   C     0.93342   0.25884   0.89220   0.00000  Uiso   1.00
C476   C     0.93930   0.19354   0.91085   0.00000  Uiso   1.00
C477   C     0.95445   0.17193   0.97623   0.00000  Uiso   1.00
C478   C     0.97154   0.32580   0.79435   0.00000  Uiso   1.00
C479   C     0.00948   0.31680   0.73070   0.00000  Uiso   1.00
C480   C     0.05672   0.35157   0.71369   0.00000  Uiso   1.00
C481   C     0.85781   0.34676   0.84019   0.00000  Uiso   1.00
C482   C     0.80013   0.35539   0.81509   0.00000  Uiso   1.00
C483   C     0.75161   0.40782   0.83666   0.00000  Uiso   1.00
H484   H     0.94054   0.40334   0.94133   0.00000  Uiso   1.00
H485   H     0.96438   0.31226   0.03748   0.00000  Uiso   1.00
H486   H     0.03454   0.43551   0.85735   0.00000  Uiso   1.00
H487   H     0.82522   0.47409   0.94173   0.00000  Uiso   1.00
H488   H     0.98690   0.19265   0.12419   0.00000  Uiso   1.00
H489   H     0.13482   0.45254   0.74439   0.00000  Uiso   1.00
H490   H     0.69343   0.53391   0.92230   0.00000  Uiso   1.00
H491   H     0.91022   0.25983   0.78822   0.00000  Uiso   1.00
H492   H     0.93240   0.16087   0.87597   0.00000  Uiso   1.00
H493   H     0.00256   0.28412   0.69585   0.00000  Uiso   1.00
H494   H     0.79324   0.32270   0.78022   0.00000  Uiso   1.00
H495   H     0.96094   0.06977   0.99311   0.00000  Uiso   1.00
H496   H     0.10886   0.32967   0.61330   0.00000  Uiso   1.00
H497   H     0.66747   0.41104   0.79121   0.00000  Uiso   1.00
O498   O     0.98908   0.06869   0.11913   0.00000  Uiso   1.00
O499   O     0.18313   0.40968   0.62083   0.00000  Uiso   1.00
O500   O     0.60404   0.51643   0.85425   0.00000  Uiso   1.00
N501   N     0.97774   0.17731   0.08130   0.00000  Uiso   1.00
N502   N     0.11604   0.42029   0.72621   0.00000  Uiso   1.00
N503   N     0.70338   0.49637   0.89253   0.00000  Uiso   1.00
N504   N     0.96377   0.11119   0.01077   0.00000  Uiso   1.00
N505   N     0.10207   0.35417   0.65568   0.00000  Uiso   1.00
N506   N     0.68941   0.43026   0.82200   0.00000  Uiso   1.00
C507   C     0.55825   0.87056   0.69585   0.00000  Uiso   1.00
C508   C     0.48652   0.88520   0.69248   0.00000  Uiso   1.00
C509   C     0.44261   0.94219   0.70959   0.00000  Uiso   1.00
C510   C     0.37915   0.94613   0.70302   0.00000  Uiso   1.00
C511   C     0.27063   0.97664   0.70130   0.00000  Uiso   1.00
C512   C     0.57282   0.80880   0.74236   0.00000  Uiso   1.00
C513   C     0.60149   0.80156   0.80139   0.00000  Uiso   1.00
C514   C     0.61068   0.74118   0.83681   0.00000  Uiso   1.00
C515   C     0.63619   0.65307   0.91249   0.00000  Uiso   1.00
C516   C     0.59167   0.85302   0.62389   0.00000  Uiso   1.00
C517   C     0.63620   0.88295   0.58332   0.00000  Uiso   1.00
C518   C     0.66128   0.85980   0.51900   0.00000  Uiso   1.00
C519   C     0.71606   0.84035   0.41074   0.00000  Uiso   1.00
C520   C     0.52362   0.77621   0.65377   0.00000  Uiso   1.00
C521   C     0.46771   0.83395   0.66963   0.00000  Uiso   1.00
C522   C     0.40430   0.83781   0.66303   0.00000  Uiso   1.00
C523   C     0.36030   0.89480   0.68012   0.00000  Uiso   1.00
C524   C     0.55402   0.75755   0.71950   0.00000  Uiso   1.00
C525   C     0.56317   0.69717   0.75484   0.00000  Uiso   1.00
C526   C     0.59184   0.68984   0.81391   0.00000  Uiso   1.00
C527   C     0.57287   0.80178   0.60103   0.00000  Uiso   1.00
C528   C     0.59788   0.77857   0.53676   0.00000  Uiso   1.00
C529   C     0.64244   0.80846   0.49610   0.00000  Uiso   1.00
H530   H     0.57290   0.91045   0.71365   0.00000  Uiso   1.00
H531   H     0.45719   0.98183   0.72728   0.00000  Uiso   1.00
H532   H     0.61604   0.84122   0.81906   0.00000  Uiso   1.00
H533   H     0.65075   0.92260   0.60102   0.00000  Uiso   1.00
H534   H     0.32060   0.03837   0.73233   0.00000  Uiso   1.00
H535   H     0.65558   0.74187   0.92585   0.00000  Uiso   1.00
H536   H     0.72876   0.91348   0.46608   0.00000  Uiso   1.00
H537   H     0.50898   0.73631   0.63598   0.00000  Uiso   1.00
H538   H     0.38976   0.79814   0.64534   0.00000  Uiso   1.00
H539   H     0.54861   0.65753   0.73713   0.00000  Uiso   1.00
H540   H     0.58332   0.73891   0.51909   0.00000  Uiso   1.00
H541   H     0.26587   0.88927   0.66584   0.00000  Uiso   1.00
H542   H     0.60085   0.59278   0.85936   0.00000  Uiso   1.00
H543   H     0.67403   0.76439   0.39958   0.00000  Uiso   1.00
O544   O     0.21596   0.00763   0.70667   0.00000  Uiso   1.00
O545   O     0.65545   0.61863   0.96055   0.00000  Uiso   1.00
O546   O     0.75146   0.84379   0.35734   0.00000  Uiso   1.00
N547   N     0.32409   0.99480   0.71539   0.00000  Uiso   1.00
N548   N     0.63726   0.71759   0.89632   0.00000  Uiso   1.00
N549   N     0.70569   0.87803   0.46648   0.00000  Uiso   1.00
N550   N     0.29464   0.91457   0.67960   0.00000  Uiso   1.00
N551   N     0.60781   0.63737   0.86054   0.00000  Uiso   1.00
N552   N     0.67624   0.79780   0.43069   0.00000  Uiso   1.00
