data_job_00267
_audit_creation_date              2018-12-19
_audit_creation_method            'Materials Studio'
_symmetry_space_group_name_H-M    'P1'
_symmetry_Int_Tables_number       1
_symmetry_cell_setting            triclinic
loop_
_symmetry_equiv_pos_as_xyz
  x,y,z
_cell_length_a                    17.4384
_cell_length_b                    7.0290
_cell_length_c                    23.9809
_cell_angle_alpha                 90.0000
_cell_angle_beta                  128.5505
_cell_angle_gamma                 90.0000
loop_
_atom_site_label
_atom_site_type_symbol
_atom_site_fract_x
_atom_site_fract_y
_atom_site_fract_z
_atom_site_U_iso_or_equiv
_atom_site_adp_type
_atom_site_occupancy
C1     C     0.21089   0.95478   0.49428   0.00000  Uiso   1.00
C2     C     0.12329   0.08959   0.45379   0.00000  Uiso   1.00
C3     C     0.02540   0.03571   0.40982   0.00000  Uiso   1.00
C4     C     0.95620   0.18054   0.37758   0.00000  Uiso   1.00
C5     C     0.81595   0.36068   0.31295   0.00000  Uiso   1.00
C6     C     0.27213   0.00465   0.47087   0.00000  Uiso   1.00
C7     C     0.29938   0.87934   0.44127   0.00000  Uiso   1.00
C8     C     0.35548   0.95268   0.42342   0.00000  Uiso   1.00
C9     C     0.44636   0.00092   0.38536   0.00000  Uiso   1.00
C10    C     0.27233   0.01204   0.57253   0.00000  Uiso   1.00
C11    C     0.29978   0.89295   0.62841   0.00000  Uiso   1.00
C12    C     0.35607   0.97250   0.69616   0.00000  Uiso   1.00
C13    C     0.44726   0.03222   0.81593   0.00000  Uiso   1.00
C14    C     0.26207   0.30781   0.51523   0.00000  Uiso   1.00
C15    C     0.15110   0.28134   0.46517   0.00000  Uiso   1.00
C16    C     0.08202   0.42629   0.43300   0.00000  Uiso   1.00
C17    C     0.98404   0.37264   0.38898   0.00000  Uiso   1.00
C18    C     0.29993   0.19639   0.48225   0.00000  Uiso   1.00
C19    C     0.35600   0.26993   0.46445   0.00000  Uiso   1.00
C20    C     0.38333   0.14477   0.43482   0.00000  Uiso   1.00
C21    C     0.30013   0.20380   0.58391   0.00000  Uiso   1.00
C22    C     0.35639   0.28354   0.65159   0.00000  Uiso   1.00
C23    C     0.38391   0.16459   0.70755   0.00000  Uiso   1.00
H24    H     0.18926   0.80550   0.48542   0.00000  Uiso   1.00
H25    H     0.00392   0.88730   0.40102   0.00000  Uiso   1.00
H26    H     0.27787   0.73096   0.43248   0.00000  Uiso   1.00
H27    H     0.27825   0.74457   0.61958   0.00000  Uiso   1.00
H28    H     0.81070   0.06255   0.31244   0.00000  Uiso   1.00
H29    H     0.38836   0.73289   0.37879   0.00000  Uiso   1.00
H30    H     0.38918   0.76158   0.77335   0.00000  Uiso   1.00
H31    H     0.28371   0.45710   0.52409   0.00000  Uiso   1.00
H32    H     0.10356   0.57467   0.44181   0.00000  Uiso   1.00
H33    H     0.37750   0.41832   0.47327   0.00000  Uiso   1.00
H34    H     0.37789   0.43193   0.66037   0.00000  Uiso   1.00
H35    H     0.89157   0.62044   0.34555   0.00000  Uiso   1.00
H36    H     0.46923   0.29077   0.41190   0.00000  Uiso   1.00
H37    H     0.47005   0.31947   0.80645   0.00000  Uiso   1.00
O38    O     0.73091   0.40708   0.27415   0.00000  Uiso   1.00
O39    O     0.48880   0.97455   0.36121   0.00000  Uiso   1.00
O40    O     0.48987   0.01220   0.87885   0.00000  Uiso   1.00
N41    N     0.85445   0.17772   0.33154   0.00000  Uiso   1.00
N42    N     0.39452   0.86950   0.39356   0.00000  Uiso   1.00
N43    N     0.39531   0.89632   0.76244   0.00000  Uiso   1.00
N44    N     0.89797   0.47792   0.34935   0.00000  Uiso   1.00
N45    N     0.43803   0.16970   0.41137   0.00000  Uiso   1.00
N46    N     0.43882   0.19652   0.78025   0.00000  Uiso   1.00
C47    C     0.78911   0.45478   0.00572   0.00000  Uiso   1.00
C48    C     0.87671   0.58959   0.04621   0.00000  Uiso   1.00
C49    C     0.97460   0.53571   0.09018   0.00000  Uiso   1.00
C50    C     0.04380   0.68054   0.12242   0.00000  Uiso   1.00
C51    C     0.18405   0.86068   0.18705   0.00000  Uiso   1.00
C52    C     0.72787   0.50465   0.02913   0.00000  Uiso   1.00
C53    C     0.70062   0.37934   0.05873   0.00000  Uiso   1.00
C54    C     0.64452   0.45268   0.07658   0.00000  Uiso   1.00
C55    C     0.55364   0.50092   0.11464   0.00000  Uiso   1.00
C56    C     0.72767   0.51204   0.92747   0.00000  Uiso   1.00
C57    C     0.70022   0.39295   0.87159   0.00000  Uiso   1.00
C58    C     0.64393   0.47250   0.80384   0.00000  Uiso   1.00
C59    C     0.55274   0.53222   0.68407   0.00000  Uiso   1.00
C60    C     0.73793   0.80781   0.98477   0.00000  Uiso   1.00
C61    C     0.84890   0.78134   0.03483   0.00000  Uiso   1.00
C62    C     0.91798   0.92629   0.06700   0.00000  Uiso   1.00
C63    C     0.01596   0.87264   0.11102   0.00000  Uiso   1.00
C64    C     0.70007   0.69639   0.01775   0.00000  Uiso   1.00
C65    C     0.64400   0.76993   0.03555   0.00000  Uiso   1.00
C66    C     0.61667   0.64477   0.06518   0.00000  Uiso   1.00
C67    C     0.69987   0.70380   0.91609   0.00000  Uiso   1.00
C68    C     0.64361   0.78354   0.84841   0.00000  Uiso   1.00
C69    C     0.61609   0.66459   0.79245   0.00000  Uiso   1.00
H70    H     0.81074   0.30550   0.01458   0.00000  Uiso   1.00
H71    H     0.99608   0.38730   0.09898   0.00000  Uiso   1.00
H72    H     0.72213   0.23096   0.06752   0.00000  Uiso   1.00
H73    H     0.72175   0.24457   0.88042   0.00000  Uiso   1.00
H74    H     0.18930   0.56255   0.18756   0.00000  Uiso   1.00
H75    H     0.61164   0.23289   0.12121   0.00000  Uiso   1.00
H76    H     0.61082   0.26158   0.72665   0.00000  Uiso   1.00
H77    H     0.71629   0.95710   0.97591   0.00000  Uiso   1.00
H78    H     0.89644   0.07467   0.05819   0.00000  Uiso   1.00
H79    H     0.62250   0.91832   0.02673   0.00000  Uiso   1.00
H80    H     0.62211   0.93193   0.83963   0.00000  Uiso   1.00
H81    H     0.10843   0.12044   0.15445   0.00000  Uiso   1.00
H82    H     0.53077   0.79077   0.08810   0.00000  Uiso   1.00
H83    H     0.52995   0.81947   0.69355   0.00000  Uiso   1.00
O84    O     0.26909   0.90708   0.22585   0.00000  Uiso   1.00
O85    O     0.51120   0.47455   0.13879   0.00000  Uiso   1.00
O86    O     0.51013   0.51220   0.62115   0.00000  Uiso   1.00
N87    N     0.14555   0.67772   0.16846   0.00000  Uiso   1.00
N88    N     0.60548   0.36950   0.10644   0.00000  Uiso   1.00
N89    N     0.60469   0.39632   0.73756   0.00000  Uiso   1.00
N90    N     0.10203   0.97792   0.15065   0.00000  Uiso   1.00
N91    N     0.56197   0.66970   0.08863   0.00000  Uiso   1.00
N92    N     0.56118   0.69652   0.71975   0.00000  Uiso   1.00
C93    C     0.78911   0.04522   0.50572   0.00000  Uiso   1.00
C94    C     0.87671   0.91041   0.54621   0.00000  Uiso   1.00
C95    C     0.97460   0.96429   0.59018   0.00000  Uiso   1.00
C96    C     0.04380   0.81946   0.62242   0.00000  Uiso   1.00
C97    C     0.18405   0.63932   0.68705   0.00000  Uiso   1.00
C98    C     0.72787   0.99535   0.52913   0.00000  Uiso   1.00
C99    C     0.70062   0.12066   0.55873   0.00000  Uiso   1.00
C100   C     0.64452   0.04732   0.57658   0.00000  Uiso   1.00
C101   C     0.55364   0.99908   0.61464   0.00000  Uiso   1.00
C102   C     0.72767   0.98796   0.42747   0.00000  Uiso   1.00
C103   C     0.70022   0.10705   0.37159   0.00000  Uiso   1.00
C104   C     0.64393   0.02750   0.30384   0.00000  Uiso   1.00
C105   C     0.55274   0.96778   0.18407   0.00000  Uiso   1.00
C106   C     0.73793   0.69219   0.48477   0.00000  Uiso   1.00
C107   C     0.84890   0.71866   0.53483   0.00000  Uiso   1.00
C108   C     0.91798   0.57371   0.56700   0.00000  Uiso   1.00
C109   C     0.01596   0.62736   0.61102   0.00000  Uiso   1.00
C110   C     0.70007   0.80361   0.51775   0.00000  Uiso   1.00
C111   C     0.64400   0.73007   0.53555   0.00000  Uiso   1.00
C112   C     0.61667   0.85523   0.56518   0.00000  Uiso   1.00
C113   C     0.69987   0.79620   0.41609   0.00000  Uiso   1.00
C114   C     0.64361   0.71646   0.34841   0.00000  Uiso   1.00
C115   C     0.61609   0.83541   0.29245   0.00000  Uiso   1.00
H116   H     0.81074   0.19450   0.51458   0.00000  Uiso   1.00
H117   H     0.99608   0.11270   0.59898   0.00000  Uiso   1.00
H118   H     0.72213   0.26904   0.56752   0.00000  Uiso   1.00
H119   H     0.72175   0.25543   0.38042   0.00000  Uiso   1.00
H120   H     0.18930   0.93745   0.68756   0.00000  Uiso   1.00
H121   H     0.61164   0.26711   0.62121   0.00000  Uiso   1.00
H122   H     0.61082   0.23842   0.22665   0.00000  Uiso   1.00
H123   H     0.71629   0.54290   0.47591   0.00000  Uiso   1.00
H124   H     0.89644   0.42533   0.55819   0.00000  Uiso   1.00
H125   H     0.62250   0.58168   0.52673   0.00000  Uiso   1.00
H126   H     0.62211   0.56807   0.33963   0.00000  Uiso   1.00
H127   H     0.10843   0.37956   0.65445   0.00000  Uiso   1.00
H128   H     0.53077   0.70923   0.58810   0.00000  Uiso   1.00
H129   H     0.52995   0.68053   0.19355   0.00000  Uiso   1.00
O130   O     0.26909   0.59292   0.72585   0.00000  Uiso   1.00
O131   O     0.51120   0.02545   0.63879   0.00000  Uiso   1.00
O132   O     0.51013   0.98780   0.12115   0.00000  Uiso   1.00
N133   N     0.14555   0.82228   0.66846   0.00000  Uiso   1.00
N134   N     0.60548   0.13050   0.60644   0.00000  Uiso   1.00
N135   N     0.60469   0.10368   0.23756   0.00000  Uiso   1.00
N136   N     0.10203   0.52208   0.65065   0.00000  Uiso   1.00
N137   N     0.56197   0.83030   0.58863   0.00000  Uiso   1.00
N138   N     0.56118   0.80348   0.21975   0.00000  Uiso   1.00
C139   C     0.21089   0.54522   0.99428   0.00000  Uiso   1.00
C140   C     0.12329   0.41041   0.95379   0.00000  Uiso   1.00
C141   C     0.02540   0.46429   0.90982   0.00000  Uiso   1.00
C142   C     0.95620   0.31946   0.87758   0.00000  Uiso   1.00
C143   C     0.81595   0.13932   0.81295   0.00000  Uiso   1.00
C144   C     0.27213   0.49535   0.97087   0.00000  Uiso   1.00
C145   C     0.29938   0.62066   0.94127   0.00000  Uiso   1.00
C146   C     0.35548   0.54732   0.92342   0.00000  Uiso   1.00
C147   C     0.44636   0.49908   0.88536   0.00000  Uiso   1.00
C148   C     0.27233   0.48796   0.07253   0.00000  Uiso   1.00
C149   C     0.29978   0.60705   0.12841   0.00000  Uiso   1.00
C150   C     0.35607   0.52750   0.19616   0.00000  Uiso   1.00
C151   C     0.44726   0.46778   0.31593   0.00000  Uiso   1.00
C152   C     0.26207   0.19219   0.01523   0.00000  Uiso   1.00
C153   C     0.15110   0.21866   0.96517   0.00000  Uiso   1.00
C154   C     0.08202   0.07371   0.93300   0.00000  Uiso   1.00
C155   C     0.98404   0.12736   0.88898   0.00000  Uiso   1.00
C156   C     0.29993   0.30361   0.98225   0.00000  Uiso   1.00
C157   C     0.35600   0.23007   0.96445   0.00000  Uiso   1.00
C158   C     0.38333   0.35523   0.93482   0.00000  Uiso   1.00
C159   C     0.30013   0.29620   0.08391   0.00000  Uiso   1.00
C160   C     0.35639   0.21646   0.15159   0.00000  Uiso   1.00
C161   C     0.38391   0.33541   0.20755   0.00000  Uiso   1.00
H162   H     0.18926   0.69450   0.98542   0.00000  Uiso   1.00
H163   H     0.00392   0.61270   0.90102   0.00000  Uiso   1.00
H164   H     0.27787   0.76904   0.93248   0.00000  Uiso   1.00
H165   H     0.27825   0.75543   0.11958   0.00000  Uiso   1.00
H166   H     0.81070   0.43745   0.81244   0.00000  Uiso   1.00
H167   H     0.38836   0.76711   0.87879   0.00000  Uiso   1.00
H168   H     0.38918   0.73842   0.27335   0.00000  Uiso   1.00
H169   H     0.28371   0.04290   0.02409   0.00000  Uiso   1.00
H170   H     0.10356   0.92533   0.94181   0.00000  Uiso   1.00
H171   H     0.37750   0.08168   0.97327   0.00000  Uiso   1.00
H172   H     0.37789   0.06807   0.16037   0.00000  Uiso   1.00
H173   H     0.89157   0.87956   0.84555   0.00000  Uiso   1.00
H174   H     0.46923   0.20923   0.91190   0.00000  Uiso   1.00
H175   H     0.47005   0.18053   0.30645   0.00000  Uiso   1.00
O176   O     0.73091   0.09292   0.77415   0.00000  Uiso   1.00
O177   O     0.48880   0.52545   0.86121   0.00000  Uiso   1.00
O178   O     0.48987   0.48780   0.37885   0.00000  Uiso   1.00
N179   N     0.85445   0.32228   0.83154   0.00000  Uiso   1.00
N180   N     0.39452   0.63050   0.89356   0.00000  Uiso   1.00
N181   N     0.39531   0.60368   0.26244   0.00000  Uiso   1.00
N182   N     0.89797   0.02208   0.84935   0.00000  Uiso   1.00
N183   N     0.43803   0.33030   0.91137   0.00000  Uiso   1.00
N184   N     0.43882   0.30348   0.28025   0.00000  Uiso   1.00
