data_job_05597
_audit_creation_date              2018-12-19
_audit_creation_method            'Materials Studio'
_symmetry_space_group_name_H-M    'P1'
_symmetry_Int_Tables_number       1
_symmetry_cell_setting            triclinic
loop_
_symmetry_equiv_pos_as_xyz
  x,y,z
_cell_length_a                    21.2258
_cell_length_b                    21.2258
_cell_length_c                    15.0389
_cell_angle_alpha                 90.0000
_cell_angle_beta                  90.0000
_cell_angle_gamma                 90.0000
loop_
_atom_site_label
_atom_site_type_symbol
_atom_site_fract_x
_atom_site_fract_y
_atom_site_fract_z
_atom_site_U_iso_or_equiv
_atom_site_adp_type
_atom_site_occupancy
C1     C     0.53019   0.82703   0.33629   0.00000  Uiso   1.00
C2     C     0.49591   0.79287   0.41124   0.00000  Uiso   1.00
C3     C     0.43115   0.78551   0.41847   0.00000  Uiso   1.00
C4     C     0.40903   0.75277   0.49203   0.00000  Uiso   1.00
C5     C     0.34953   0.70349   0.59870   0.00000  Uiso   1.00
C6     C     0.57007   0.87778   0.38081   0.00000  Uiso   1.00
C7     C     0.56767   0.94181   0.36244   0.00000  Uiso   1.00
C8     C     0.60798   0.98054   0.41039   0.00000  Uiso   1.00
C9     C     0.66364   0.06308   0.46976   0.00000  Uiso   1.00
C10    C     0.57659   0.77954   0.29756   0.00000  Uiso   1.00
C11    C     0.57968   0.76098   0.20918   0.00000  Uiso   1.00
C12    C     0.62550   0.71701   0.18702   0.00000  Uiso   1.00
C13    C     0.69129   0.64701   0.11713   0.00000  Uiso   1.00
C14    C     0.60607   0.78195   0.45409   0.00000  Uiso   1.00
C15    C     0.53713   0.76839   0.47523   0.00000  Uiso   1.00
C16    C     0.51510   0.73564   0.54880   0.00000  Uiso   1.00
C17    C     0.45031   0.72824   0.55613   0.00000  Uiso   1.00
C18    C     0.61129   0.85330   0.44480   0.00000  Uiso   1.00
C19    C     0.65161   0.89194   0.49277   0.00000  Uiso   1.00
C20    C     0.64927   0.95602   0.47449   0.00000  Uiso   1.00
C21    C     0.61781   0.75506   0.36154   0.00000  Uiso   1.00
C22    C     0.66363   0.71111   0.33951   0.00000  Uiso   1.00
C23    C     0.66679   0.69248   0.25112   0.00000  Uiso   1.00
H24    H     0.49811   0.84609   0.28648   0.00000  Uiso   1.00
H25    H     0.39927   0.80447   0.36894   0.00000  Uiso   1.00
H26    H     0.53577   0.96074   0.31292   0.00000  Uiso   1.00
H27    H     0.54778   0.77994   0.15968   0.00000  Uiso   1.00
H28    H     0.30786   0.74756   0.48860   0.00000  Uiso   1.00
H29    H     0.59570   0.07706   0.37045   0.00000  Uiso   1.00
H30    H     0.62103   0.69580   0.04732   0.00000  Uiso   1.00
H31    H     0.63816   0.76289   0.50391   0.00000  Uiso   1.00
H32    H     0.54700   0.71670   0.59830   0.00000  Uiso   1.00
H33    H     0.68350   0.87298   0.54228   0.00000  Uiso   1.00
H34    H     0.69552   0.69217   0.38904   0.00000  Uiso   1.00
H35    H     0.42777   0.67632   0.67475   0.00000  Uiso   1.00
H36    H     0.71560   0.00583   0.55661   0.00000  Uiso   1.00
H37    H     0.74093   0.62456   0.23348   0.00000  Uiso   1.00
O38    O     0.30532   0.68308   0.63986   0.00000  Uiso   1.00
O39    O     0.68296   0.11537   0.48484   0.00000  Uiso   1.00
O40    O     0.71619   0.61516   0.06091   0.00000  Uiso   1.00
N41    N     0.34859   0.73712   0.51945   0.00000  Uiso   1.00
N42    N     0.61769   0.04519   0.40900   0.00000  Uiso   1.00
N43    N     0.64139   0.68875   0.10689   0.00000  Uiso   1.00
N44    N     0.41311   0.69879   0.61962   0.00000  Uiso   1.00
N45    N     0.68221   0.00686   0.50917   0.00000  Uiso   1.00
N46    N     0.70591   0.65042   0.20706   0.00000  Uiso   1.00
C47    C     0.46981   0.17297   0.83629   0.00000  Uiso   1.00
C48    C     0.50409   0.20713   0.91124   0.00000  Uiso   1.00
C49    C     0.56885   0.21449   0.91847   0.00000  Uiso   1.00
C50    C     0.59097   0.24723   0.99203   0.00000  Uiso   1.00
C51    C     0.65047   0.29651   0.09870   0.00000  Uiso   1.00
C52    C     0.42993   0.12222   0.88081   0.00000  Uiso   1.00
C53    C     0.43233   0.05819   0.86244   0.00000  Uiso   1.00
C54    C     0.39202   0.01946   0.91039   0.00000  Uiso   1.00
C55    C     0.33636   0.93692   0.96976   0.00000  Uiso   1.00
C56    C     0.42341   0.22046   0.79756   0.00000  Uiso   1.00
C57    C     0.42032   0.23902   0.70918   0.00000  Uiso   1.00
C58    C     0.37450   0.28299   0.68702   0.00000  Uiso   1.00
C59    C     0.30871   0.35299   0.61713   0.00000  Uiso   1.00
C60    C     0.39393   0.21805   0.95409   0.00000  Uiso   1.00
C61    C     0.46287   0.23161   0.97523   0.00000  Uiso   1.00
C62    C     0.48490   0.26436   0.04880   0.00000  Uiso   1.00
C63    C     0.54969   0.27176   0.05613   0.00000  Uiso   1.00
C64    C     0.38871   0.14670   0.94480   0.00000  Uiso   1.00
C65    C     0.34839   0.10806   0.99277   0.00000  Uiso   1.00
C66    C     0.35073   0.04398   0.97449   0.00000  Uiso   1.00
C67    C     0.38219   0.24494   0.86154   0.00000  Uiso   1.00
C68    C     0.33637   0.28889   0.83951   0.00000  Uiso   1.00
C69    C     0.33321   0.30752   0.75112   0.00000  Uiso   1.00
H70    H     0.50189   0.15391   0.78648   0.00000  Uiso   1.00
H71    H     0.60073   0.19553   0.86894   0.00000  Uiso   1.00
H72    H     0.46423   0.03926   0.81292   0.00000  Uiso   1.00
H73    H     0.45222   0.22006   0.65968   0.00000  Uiso   1.00
H74    H     0.69214   0.25244   0.98860   0.00000  Uiso   1.00
H75    H     0.40430   0.92294   0.87045   0.00000  Uiso   1.00
H76    H     0.37897   0.30420   0.54732   0.00000  Uiso   1.00
H77    H     0.36184   0.23711   0.00391   0.00000  Uiso   1.00
H78    H     0.45300   0.28330   0.09830   0.00000  Uiso   1.00
H79    H     0.31650   0.12702   0.04228   0.00000  Uiso   1.00
H80    H     0.30448   0.30783   0.88904   0.00000  Uiso   1.00
H81    H     0.57223   0.32368   0.17475   0.00000  Uiso   1.00
H82    H     0.28440   0.99417   0.05661   0.00000  Uiso   1.00
H83    H     0.25907   0.37544   0.73348   0.00000  Uiso   1.00
O84    O     0.69468   0.31692   0.13986   0.00000  Uiso   1.00
O85    O     0.31704   0.88463   0.98484   0.00000  Uiso   1.00
O86    O     0.28381   0.38484   0.56091   0.00000  Uiso   1.00
N87    N     0.65141   0.26288   0.01945   0.00000  Uiso   1.00
N88    N     0.38231   0.95481   0.90900   0.00000  Uiso   1.00
N89    N     0.35861   0.31125   0.60689   0.00000  Uiso   1.00
N90    N     0.58689   0.30121   0.11962   0.00000  Uiso   1.00
N91    N     0.31779   0.99314   0.00917   0.00000  Uiso   1.00
N92    N     0.29409   0.34958   0.70706   0.00000  Uiso   1.00
C93    C     0.67297   0.03019   0.08629   0.00000  Uiso   1.00
C94    C     0.70713   0.99591   0.16124   0.00000  Uiso   1.00
C95    C     0.71449   0.93115   0.16847   0.00000  Uiso   1.00
C96    C     0.74723   0.90903   0.24203   0.00000  Uiso   1.00
C97    C     0.79651   0.84953   0.34870   0.00000  Uiso   1.00
C98    C     0.62222   0.07007   0.13081   0.00000  Uiso   1.00
C99    C     0.55819   0.06767   0.11244   0.00000  Uiso   1.00
C100   C     0.51946   0.10798   0.16039   0.00000  Uiso   1.00
C101   C     0.43692   0.16364   0.21976   0.00000  Uiso   1.00
C102   C     0.72046   0.07659   0.04756   0.00000  Uiso   1.00
C103   C     0.73902   0.07968   0.95918   0.00000  Uiso   1.00
C104   C     0.78299   0.12550   0.93702   0.00000  Uiso   1.00
C105   C     0.85299   0.19129   0.86713   0.00000  Uiso   1.00
C106   C     0.71805   0.10607   0.20409   0.00000  Uiso   1.00
C107   C     0.73161   0.03713   0.22523   0.00000  Uiso   1.00
C108   C     0.76436   0.01510   0.29880   0.00000  Uiso   1.00
C109   C     0.77176   0.95031   0.30613   0.00000  Uiso   1.00
C110   C     0.64670   0.11129   0.19480   0.00000  Uiso   1.00
C111   C     0.60806   0.15161   0.24277   0.00000  Uiso   1.00
C112   C     0.54398   0.14927   0.22449   0.00000  Uiso   1.00
C113   C     0.74494   0.11781   0.11154   0.00000  Uiso   1.00
C114   C     0.78889   0.16363   0.08951   0.00000  Uiso   1.00
C115   C     0.80752   0.16679   0.00112   0.00000  Uiso   1.00
H116   H     0.65391   0.99811   0.03648   0.00000  Uiso   1.00
H117   H     0.69553   0.89927   0.11894   0.00000  Uiso   1.00
H118   H     0.53926   0.03577   0.06292   0.00000  Uiso   1.00
H119   H     0.72006   0.04778   0.90968   0.00000  Uiso   1.00
H120   H     0.75244   0.80786   0.23860   0.00000  Uiso   1.00
H121   H     0.42294   0.09570   0.12045   0.00000  Uiso   1.00
H122   H     0.80420   0.12103   0.79732   0.00000  Uiso   1.00
H123   H     0.73711   0.13816   0.25391   0.00000  Uiso   1.00
H124   H     0.78330   0.04700   0.34830   0.00000  Uiso   1.00
H125   H     0.62702   0.18350   0.29228   0.00000  Uiso   1.00
H126   H     0.80783   0.19552   0.13904   0.00000  Uiso   1.00
H127   H     0.82368   0.92777   0.42475   0.00000  Uiso   1.00
H128   H     0.49417   0.21560   0.30661   0.00000  Uiso   1.00
H129   H     0.87544   0.24093   0.98348   0.00000  Uiso   1.00
O130   O     0.81692   0.80532   0.38986   0.00000  Uiso   1.00
O131   O     0.38463   0.18296   0.23484   0.00000  Uiso   1.00
O132   O     0.88484   0.21619   0.81091   0.00000  Uiso   1.00
N133   N     0.76288   0.84859   0.26945   0.00000  Uiso   1.00
N134   N     0.45481   0.11769   0.15900   0.00000  Uiso   1.00
N135   N     0.81125   0.14139   0.85689   0.00000  Uiso   1.00
N136   N     0.80121   0.91311   0.36962   0.00000  Uiso   1.00
N137   N     0.49314   0.18221   0.25917   0.00000  Uiso   1.00
N138   N     0.84958   0.20591   0.95706   0.00000  Uiso   1.00
C139   C     0.32703   0.96981   0.58629   0.00000  Uiso   1.00
C140   C     0.29287   0.00409   0.66124   0.00000  Uiso   1.00
C141   C     0.28551   0.06885   0.66847   0.00000  Uiso   1.00
C142   C     0.25277   0.09097   0.74203   0.00000  Uiso   1.00
C143   C     0.20349   0.15047   0.84870   0.00000  Uiso   1.00
C144   C     0.37778   0.92993   0.63081   0.00000  Uiso   1.00
C145   C     0.44181   0.93233   0.61244   0.00000  Uiso   1.00
C146   C     0.48054   0.89202   0.66039   0.00000  Uiso   1.00
C147   C     0.56308   0.83636   0.71976   0.00000  Uiso   1.00
C148   C     0.27954   0.92341   0.54756   0.00000  Uiso   1.00
C149   C     0.26098   0.92032   0.45918   0.00000  Uiso   1.00
C150   C     0.21701   0.87450   0.43702   0.00000  Uiso   1.00
C151   C     0.14701   0.80871   0.36713   0.00000  Uiso   1.00
C152   C     0.28195   0.89393   0.70409   0.00000  Uiso   1.00
C153   C     0.26839   0.96287   0.72523   0.00000  Uiso   1.00
C154   C     0.23564   0.98490   0.79880   0.00000  Uiso   1.00
C155   C     0.22824   0.04969   0.80613   0.00000  Uiso   1.00
C156   C     0.35330   0.88871   0.69480   0.00000  Uiso   1.00
C157   C     0.39194   0.84839   0.74277   0.00000  Uiso   1.00
C158   C     0.45602   0.85073   0.72449   0.00000  Uiso   1.00
C159   C     0.25506   0.88219   0.61154   0.00000  Uiso   1.00
C160   C     0.21111   0.83637   0.58951   0.00000  Uiso   1.00
C161   C     0.19248   0.83321   0.50112   0.00000  Uiso   1.00
H162   H     0.34609   0.00189   0.53648   0.00000  Uiso   1.00
H163   H     0.30447   0.10073   0.61894   0.00000  Uiso   1.00
H164   H     0.46074   0.96423   0.56292   0.00000  Uiso   1.00
H165   H     0.27994   0.95222   0.40968   0.00000  Uiso   1.00
H166   H     0.24756   0.19214   0.73860   0.00000  Uiso   1.00
H167   H     0.57706   0.90430   0.62045   0.00000  Uiso   1.00
H168   H     0.19580   0.87897   0.29732   0.00000  Uiso   1.00
H169   H     0.26289   0.86184   0.75391   0.00000  Uiso   1.00
H170   H     0.21670   0.95300   0.84830   0.00000  Uiso   1.00
H171   H     0.37298   0.81650   0.79228   0.00000  Uiso   1.00
H172   H     0.19217   0.80448   0.63904   0.00000  Uiso   1.00
H173   H     0.17632   0.07223   0.92475   0.00000  Uiso   1.00
H174   H     0.50583   0.78440   0.80661   0.00000  Uiso   1.00
H175   H     0.12456   0.75907   0.48348   0.00000  Uiso   1.00
O176   O     0.18308   0.19468   0.88986   0.00000  Uiso   1.00
O177   O     0.61537   0.81704   0.73484   0.00000  Uiso   1.00
O178   O     0.11516   0.78381   0.31091   0.00000  Uiso   1.00
N179   N     0.23712   0.15141   0.76945   0.00000  Uiso   1.00
N180   N     0.54519   0.88231   0.65900   0.00000  Uiso   1.00
N181   N     0.18875   0.85861   0.35689   0.00000  Uiso   1.00
N182   N     0.19879   0.08689   0.86962   0.00000  Uiso   1.00
N183   N     0.50686   0.81779   0.75917   0.00000  Uiso   1.00
N184   N     0.15042   0.79409   0.45706   0.00000  Uiso   1.00
C185   C     0.96981   0.32703   0.41371   0.00000  Uiso   1.00
C186   C     0.00409   0.29287   0.33876   0.00000  Uiso   1.00
C187   C     0.06885   0.28551   0.33153   0.00000  Uiso   1.00
C188   C     0.09097   0.25277   0.25797   0.00000  Uiso   1.00
C189   C     0.15047   0.20349   0.15130   0.00000  Uiso   1.00
C190   C     0.92993   0.37778   0.36919   0.00000  Uiso   1.00
C191   C     0.93233   0.44181   0.38756   0.00000  Uiso   1.00
C192   C     0.89202   0.48054   0.33961   0.00000  Uiso   1.00
C193   C     0.83636   0.56308   0.28024   0.00000  Uiso   1.00
C194   C     0.92341   0.27954   0.45244   0.00000  Uiso   1.00
C195   C     0.92032   0.26098   0.54082   0.00000  Uiso   1.00
C196   C     0.87450   0.21701   0.56298   0.00000  Uiso   1.00
C197   C     0.80871   0.14701   0.63287   0.00000  Uiso   1.00
C198   C     0.89393   0.28195   0.29591   0.00000  Uiso   1.00
C199   C     0.96287   0.26839   0.27477   0.00000  Uiso   1.00
C200   C     0.98490   0.23564   0.20120   0.00000  Uiso   1.00
C201   C     0.04969   0.22824   0.19387   0.00000  Uiso   1.00
C202   C     0.88871   0.35330   0.30520   0.00000  Uiso   1.00
C203   C     0.84839   0.39194   0.25723   0.00000  Uiso   1.00
C204   C     0.85073   0.45602   0.27551   0.00000  Uiso   1.00
C205   C     0.88219   0.25506   0.38846   0.00000  Uiso   1.00
C206   C     0.83637   0.21111   0.41049   0.00000  Uiso   1.00
C207   C     0.83321   0.19248   0.49888   0.00000  Uiso   1.00
H208   H     0.00189   0.34609   0.46352   0.00000  Uiso   1.00
H209   H     0.10073   0.30447   0.38106   0.00000  Uiso   1.00
H210   H     0.96423   0.46074   0.43708   0.00000  Uiso   1.00
H211   H     0.95222   0.27994   0.59032   0.00000  Uiso   1.00
H212   H     0.19214   0.24756   0.26140   0.00000  Uiso   1.00
H213   H     0.90430   0.57706   0.37955   0.00000  Uiso   1.00
H214   H     0.87897   0.19580   0.70268   0.00000  Uiso   1.00
H215   H     0.86184   0.26289   0.24609   0.00000  Uiso   1.00
H216   H     0.95300   0.21670   0.15170   0.00000  Uiso   1.00
H217   H     0.81650   0.37298   0.20772   0.00000  Uiso   1.00
H218   H     0.80448   0.19217   0.36096   0.00000  Uiso   1.00
H219   H     0.07223   0.17632   0.07525   0.00000  Uiso   1.00
H220   H     0.78440   0.50583   0.19339   0.00000  Uiso   1.00
H221   H     0.75907   0.12456   0.51652   0.00000  Uiso   1.00
O222   O     0.19468   0.18308   0.11014   0.00000  Uiso   1.00
O223   O     0.81704   0.61537   0.26516   0.00000  Uiso   1.00
O224   O     0.78381   0.11516   0.68909   0.00000  Uiso   1.00
N225   N     0.15141   0.23712   0.23055   0.00000  Uiso   1.00
N226   N     0.88231   0.54519   0.34100   0.00000  Uiso   1.00
N227   N     0.85861   0.18875   0.64311   0.00000  Uiso   1.00
N228   N     0.08689   0.19879   0.13038   0.00000  Uiso   1.00
N229   N     0.81779   0.50686   0.24083   0.00000  Uiso   1.00
N230   N     0.79409   0.15042   0.54294   0.00000  Uiso   1.00
C231   C     0.03019   0.67297   0.91371   0.00000  Uiso   1.00
C232   C     0.99591   0.70713   0.83876   0.00000  Uiso   1.00
C233   C     0.93115   0.71449   0.83153   0.00000  Uiso   1.00
C234   C     0.90903   0.74723   0.75797   0.00000  Uiso   1.00
C235   C     0.84953   0.79651   0.65130   0.00000  Uiso   1.00
C236   C     0.07007   0.62222   0.86919   0.00000  Uiso   1.00
C237   C     0.06767   0.55819   0.88756   0.00000  Uiso   1.00
C238   C     0.10798   0.51946   0.83961   0.00000  Uiso   1.00
C239   C     0.16364   0.43692   0.78024   0.00000  Uiso   1.00
C240   C     0.07659   0.72046   0.95244   0.00000  Uiso   1.00
C241   C     0.07968   0.73902   0.04082   0.00000  Uiso   1.00
C242   C     0.12550   0.78299   0.06298   0.00000  Uiso   1.00
C243   C     0.19129   0.85299   0.13287   0.00000  Uiso   1.00
C244   C     0.10607   0.71805   0.79591   0.00000  Uiso   1.00
C245   C     0.03713   0.73161   0.77477   0.00000  Uiso   1.00
C246   C     0.01510   0.76436   0.70120   0.00000  Uiso   1.00
C247   C     0.95031   0.77176   0.69387   0.00000  Uiso   1.00
C248   C     0.11129   0.64670   0.80520   0.00000  Uiso   1.00
C249   C     0.15161   0.60806   0.75723   0.00000  Uiso   1.00
C250   C     0.14927   0.54398   0.77551   0.00000  Uiso   1.00
C251   C     0.11781   0.74494   0.88846   0.00000  Uiso   1.00
C252   C     0.16363   0.78889   0.91049   0.00000  Uiso   1.00
C253   C     0.16679   0.80752   0.99888   0.00000  Uiso   1.00
H254   H     0.99811   0.65391   0.96352   0.00000  Uiso   1.00
H255   H     0.89927   0.69553   0.88106   0.00000  Uiso   1.00
H256   H     0.03577   0.53926   0.93708   0.00000  Uiso   1.00
H257   H     0.04778   0.72006   0.09032   0.00000  Uiso   1.00
H258   H     0.80786   0.75244   0.76140   0.00000  Uiso   1.00
H259   H     0.09570   0.42294   0.87955   0.00000  Uiso   1.00
H260   H     0.12103   0.80420   0.20268   0.00000  Uiso   1.00
H261   H     0.13816   0.73711   0.74609   0.00000  Uiso   1.00
H262   H     0.04700   0.78330   0.65170   0.00000  Uiso   1.00
H263   H     0.18350   0.62702   0.70772   0.00000  Uiso   1.00
H264   H     0.19552   0.80783   0.86096   0.00000  Uiso   1.00
H265   H     0.92777   0.82368   0.57525   0.00000  Uiso   1.00
H266   H     0.21560   0.49417   0.69339   0.00000  Uiso   1.00
H267   H     0.24093   0.87544   0.01652   0.00000  Uiso   1.00
O268   O     0.80532   0.81692   0.61014   0.00000  Uiso   1.00
O269   O     0.18296   0.38463   0.76516   0.00000  Uiso   1.00
O270   O     0.21619   0.88484   0.18909   0.00000  Uiso   1.00
N271   N     0.84859   0.76288   0.73055   0.00000  Uiso   1.00
N272   N     0.11769   0.45481   0.84100   0.00000  Uiso   1.00
N273   N     0.14139   0.81125   0.14311   0.00000  Uiso   1.00
N274   N     0.91311   0.80121   0.63038   0.00000  Uiso   1.00
N275   N     0.18221   0.49314   0.74083   0.00000  Uiso   1.00
N276   N     0.20591   0.84958   0.04294   0.00000  Uiso   1.00
C277   C     0.82703   0.53019   0.66371   0.00000  Uiso   1.00
C278   C     0.79287   0.49591   0.58876   0.00000  Uiso   1.00
C279   C     0.78551   0.43115   0.58153   0.00000  Uiso   1.00
C280   C     0.75277   0.40903   0.50797   0.00000  Uiso   1.00
C281   C     0.70349   0.34953   0.40130   0.00000  Uiso   1.00
C282   C     0.87778   0.57007   0.61919   0.00000  Uiso   1.00
C283   C     0.94181   0.56767   0.63756   0.00000  Uiso   1.00
C284   C     0.98054   0.60798   0.58961   0.00000  Uiso   1.00
C285   C     0.06308   0.66364   0.53024   0.00000  Uiso   1.00
C286   C     0.77954   0.57659   0.70244   0.00000  Uiso   1.00
C287   C     0.76098   0.57968   0.79082   0.00000  Uiso   1.00
C288   C     0.71701   0.62550   0.81298   0.00000  Uiso   1.00
C289   C     0.64701   0.69129   0.88287   0.00000  Uiso   1.00
C290   C     0.78195   0.60607   0.54591   0.00000  Uiso   1.00
C291   C     0.76839   0.53713   0.52477   0.00000  Uiso   1.00
C292   C     0.73564   0.51510   0.45120   0.00000  Uiso   1.00
C293   C     0.72824   0.45031   0.44387   0.00000  Uiso   1.00
C294   C     0.85330   0.61129   0.55520   0.00000  Uiso   1.00
C295   C     0.89194   0.65161   0.50723   0.00000  Uiso   1.00
C296   C     0.95602   0.64927   0.52551   0.00000  Uiso   1.00
C297   C     0.75506   0.61781   0.63846   0.00000  Uiso   1.00
C298   C     0.71111   0.66363   0.66049   0.00000  Uiso   1.00
C299   C     0.69248   0.66679   0.74888   0.00000  Uiso   1.00
H300   H     0.84609   0.49811   0.71352   0.00000  Uiso   1.00
H301   H     0.80447   0.39927   0.63106   0.00000  Uiso   1.00
H302   H     0.96074   0.53577   0.68708   0.00000  Uiso   1.00
H303   H     0.77994   0.54778   0.84032   0.00000  Uiso   1.00
H304   H     0.74756   0.30786   0.51140   0.00000  Uiso   1.00
H305   H     0.07706   0.59570   0.62955   0.00000  Uiso   1.00
H306   H     0.69580   0.62103   0.95268   0.00000  Uiso   1.00
H307   H     0.76289   0.63816   0.49609   0.00000  Uiso   1.00
H308   H     0.71670   0.54700   0.40170   0.00000  Uiso   1.00
H309   H     0.87298   0.68350   0.45772   0.00000  Uiso   1.00
H310   H     0.69217   0.69552   0.61096   0.00000  Uiso   1.00
H311   H     0.67632   0.42777   0.32525   0.00000  Uiso   1.00
H312   H     0.00583   0.71560   0.44339   0.00000  Uiso   1.00
H313   H     0.62456   0.74093   0.76652   0.00000  Uiso   1.00
O314   O     0.68308   0.30532   0.36014   0.00000  Uiso   1.00
O315   O     0.11537   0.68296   0.51516   0.00000  Uiso   1.00
O316   O     0.61516   0.71619   0.93909   0.00000  Uiso   1.00
N317   N     0.73712   0.34859   0.48055   0.00000  Uiso   1.00
N318   N     0.04519   0.61769   0.59100   0.00000  Uiso   1.00
N319   N     0.68875   0.64139   0.89311   0.00000  Uiso   1.00
N320   N     0.69879   0.41311   0.38038   0.00000  Uiso   1.00
N321   N     0.00686   0.68221   0.49083   0.00000  Uiso   1.00
N322   N     0.65042   0.70591   0.79294   0.00000  Uiso   1.00
C323   C     0.17297   0.46981   0.16371   0.00000  Uiso   1.00
C324   C     0.20713   0.50409   0.08876   0.00000  Uiso   1.00
C325   C     0.21449   0.56885   0.08153   0.00000  Uiso   1.00
C326   C     0.24723   0.59097   0.00797   0.00000  Uiso   1.00
C327   C     0.29651   0.65047   0.90130   0.00000  Uiso   1.00
C328   C     0.12222   0.42993   0.11919   0.00000  Uiso   1.00
C329   C     0.05819   0.43233   0.13756   0.00000  Uiso   1.00
C330   C     0.01946   0.39202   0.08961   0.00000  Uiso   1.00
C331   C     0.93692   0.33636   0.03024   0.00000  Uiso   1.00
C332   C     0.22046   0.42341   0.20244   0.00000  Uiso   1.00
C333   C     0.23902   0.42032   0.29082   0.00000  Uiso   1.00
C334   C     0.28299   0.37450   0.31298   0.00000  Uiso   1.00
C335   C     0.35299   0.30871   0.38287   0.00000  Uiso   1.00
C336   C     0.21805   0.39393   0.04591   0.00000  Uiso   1.00
C337   C     0.23161   0.46287   0.02477   0.00000  Uiso   1.00
C338   C     0.26436   0.48490   0.95120   0.00000  Uiso   1.00
C339   C     0.27176   0.54969   0.94387   0.00000  Uiso   1.00
C340   C     0.14670   0.38871   0.05520   0.00000  Uiso   1.00
C341   C     0.10806   0.34839   0.00723   0.00000  Uiso   1.00
C342   C     0.04398   0.35073   0.02551   0.00000  Uiso   1.00
C343   C     0.24494   0.38219   0.13846   0.00000  Uiso   1.00
C344   C     0.28889   0.33637   0.16049   0.00000  Uiso   1.00
C345   C     0.30752   0.33321   0.24888   0.00000  Uiso   1.00
H346   H     0.15391   0.50189   0.21352   0.00000  Uiso   1.00
H347   H     0.19553   0.60073   0.13106   0.00000  Uiso   1.00
H348   H     0.03926   0.46423   0.18708   0.00000  Uiso   1.00
H349   H     0.22006   0.45222   0.34032   0.00000  Uiso   1.00
H350   H     0.25244   0.69214   0.01140   0.00000  Uiso   1.00
H351   H     0.92294   0.40430   0.12955   0.00000  Uiso   1.00
H352   H     0.30420   0.37897   0.45268   0.00000  Uiso   1.00
H353   H     0.23711   0.36184   0.99609   0.00000  Uiso   1.00
H354   H     0.28330   0.45300   0.90170   0.00000  Uiso   1.00
H355   H     0.12702   0.31650   0.95772   0.00000  Uiso   1.00
H356   H     0.30783   0.30448   0.11096   0.00000  Uiso   1.00
H357   H     0.32368   0.57223   0.82525   0.00000  Uiso   1.00
H358   H     0.99417   0.28440   0.94339   0.00000  Uiso   1.00
H359   H     0.37544   0.25907   0.26652   0.00000  Uiso   1.00
O360   O     0.31692   0.69468   0.86014   0.00000  Uiso   1.00
O361   O     0.88463   0.31704   0.01516   0.00000  Uiso   1.00
O362   O     0.38484   0.28381   0.43909   0.00000  Uiso   1.00
N363   N     0.26288   0.65141   0.98055   0.00000  Uiso   1.00
N364   N     0.95481   0.38231   0.09100   0.00000  Uiso   1.00
N365   N     0.31125   0.35861   0.39311   0.00000  Uiso   1.00
N366   N     0.30121   0.58689   0.88038   0.00000  Uiso   1.00
N367   N     0.99314   0.31779   0.99083   0.00000  Uiso   1.00
N368   N     0.34958   0.29409   0.29294   0.00000  Uiso   1.00
