data_job_04025
_audit_creation_date              2018-12-19
_audit_creation_method            'Materials Studio'
_symmetry_space_group_name_H-M    'P1'
_symmetry_Int_Tables_number       1
_symmetry_cell_setting            triclinic
loop_
_symmetry_equiv_pos_as_xyz
  x,y,z
_cell_length_a                    17.2576
_cell_length_b                    17.2576
_cell_length_c                    9.9200
_cell_angle_alpha                 90.0000
_cell_angle_beta                  90.0000
_cell_angle_gamma                 90.0000
loop_
_atom_site_label
_atom_site_type_symbol
_atom_site_fract_x
_atom_site_fract_y
_atom_site_fract_z
_atom_site_U_iso_or_equiv
_atom_site_adp_type
_atom_site_occupancy
C1     C     0.19703   0.67426   0.84067   0.00000  Uiso   1.00
C2     C     0.12353   0.68567   0.75768   0.00000  Uiso   1.00
C3     C     0.08254   0.75446   0.74482   0.00000  Uiso   1.00
C4     C     0.01676   0.75297   0.66430   0.00000  Uiso   1.00
C5     C     0.90624   0.78100   0.54542   0.00000  Uiso   1.00
C6     C     0.17959   0.60846   0.93868   0.00000  Uiso   1.00
C7     C     0.18574   0.61233   0.07802   0.00000  Uiso   1.00
C8     C     0.16715   0.54584   0.14986   0.00000  Uiso   1.00
C9     C     0.14372   0.45399   0.31199   0.00000  Uiso   1.00
C10    C     0.25785   0.64299   0.74332   0.00000  Uiso   1.00
C11    C     0.32982   0.67589   0.71841   0.00000  Uiso   1.00
C12    C     0.37713   0.63846   0.62580   0.00000  Uiso   1.00
C13    C     0.47521   0.60023   0.48461   0.00000  Uiso   1.00
C14    C     0.15308   0.54928   0.72053   0.00000  Uiso   1.00
C15    C     0.09966   0.61778   0.69243   0.00000  Uiso   1.00
C16    C     0.03392   0.61618   0.61190   0.00000  Uiso   1.00
C17    C     0.99284   0.68496   0.59892   0.00000  Uiso   1.00
C18    C     0.15571   0.54058   0.87343   0.00000  Uiso   1.00
C19    C     0.13712   0.47406   0.94509   0.00000  Uiso   1.00
C20    C     0.14324   0.47783   0.08450   0.00000  Uiso   1.00
C21    C     0.23398   0.57511   0.67806   0.00000  Uiso   1.00
C22    C     0.28119   0.53762   0.58549   0.00000  Uiso   1.00
C23    C     0.35321   0.57045   0.56043   0.00000  Uiso   1.00
H24    H     0.21561   0.72710   0.89148   0.00000  Uiso   1.00
H25    H     0.10103   0.80698   0.79535   0.00000  Uiso   1.00
H26    H     0.20422   0.66487   0.12848   0.00000  Uiso   1.00
H27    H     0.34827   0.72842   0.76893   0.00000  Uiso   1.00
H28    H     0.96346   0.86559   0.66003   0.00000  Uiso   1.00
H29    H     0.18107   0.56595   0.36246   0.00000  Uiso   1.00
H30    H     0.48482   0.69995   0.60428   0.00000  Uiso   1.00
H31    H     0.13449   0.49642   0.66972   0.00000  Uiso   1.00
H32    H     0.01546   0.56364   0.56142   0.00000  Uiso   1.00
H33    H     0.11865   0.42154   0.89456   0.00000  Uiso   1.00
H34    H     0.26270   0.48509   0.53501   0.00000  Uiso   1.00
H35    H     0.89400   0.66809   0.47017   0.00000  Uiso   1.00
H36    H     0.11161   0.36844   0.17261   0.00000  Uiso   1.00
H37    H     0.41536   0.50245   0.41442   0.00000  Uiso   1.00
O38    O     0.85187   0.81521   0.49789   0.00000  Uiso   1.00
O39    O     0.13738   0.42209   0.41945   0.00000  Uiso   1.00
O40    O     0.53590   0.59790   0.42473   0.00000  Uiso   1.00
N41    N     0.96345   0.80989   0.63019   0.00000  Uiso   1.00
N42    N     0.16689   0.52974   0.28693   0.00000  Uiso   1.00
N43    N     0.45089   0.65501   0.57812   0.00000  Uiso   1.00
N44    N     0.92608   0.70361   0.52802   0.00000  Uiso   1.00
N45    N     0.12952   0.42347   0.18476   0.00000  Uiso   1.00
N46    N     0.41351   0.54874   0.47595   0.00000  Uiso   1.00
C47    C     0.80297   0.32574   0.84067   0.00000  Uiso   1.00
C48    C     0.87647   0.31433   0.75768   0.00000  Uiso   1.00
C49    C     0.91746   0.24554   0.74482   0.00000  Uiso   1.00
C50    C     0.98324   0.24703   0.66430   0.00000  Uiso   1.00
C51    C     0.09376   0.21900   0.54542   0.00000  Uiso   1.00
C52    C     0.82041   0.39154   0.93868   0.00000  Uiso   1.00
C53    C     0.81426   0.38767   0.07802   0.00000  Uiso   1.00
C54    C     0.83285   0.45416   0.14986   0.00000  Uiso   1.00
C55    C     0.85628   0.54601   0.31199   0.00000  Uiso   1.00
C56    C     0.74215   0.35701   0.74332   0.00000  Uiso   1.00
C57    C     0.67018   0.32411   0.71841   0.00000  Uiso   1.00
C58    C     0.62287   0.36154   0.62580   0.00000  Uiso   1.00
C59    C     0.52479   0.39977   0.48461   0.00000  Uiso   1.00
C60    C     0.84692   0.45072   0.72053   0.00000  Uiso   1.00
C61    C     0.90034   0.38222   0.69243   0.00000  Uiso   1.00
C62    C     0.96608   0.38382   0.61190   0.00000  Uiso   1.00
C63    C     0.00716   0.31504   0.59892   0.00000  Uiso   1.00
C64    C     0.84429   0.45942   0.87343   0.00000  Uiso   1.00
C65    C     0.86288   0.52594   0.94509   0.00000  Uiso   1.00
C66    C     0.85676   0.52217   0.08450   0.00000  Uiso   1.00
C67    C     0.76602   0.42489   0.67806   0.00000  Uiso   1.00
C68    C     0.71881   0.46238   0.58549   0.00000  Uiso   1.00
C69    C     0.64679   0.42955   0.56043   0.00000  Uiso   1.00
H70    H     0.78439   0.27290   0.89148   0.00000  Uiso   1.00
H71    H     0.89897   0.19302   0.79535   0.00000  Uiso   1.00
H72    H     0.79578   0.33513   0.12848   0.00000  Uiso   1.00
H73    H     0.65173   0.27158   0.76893   0.00000  Uiso   1.00
H74    H     0.03654   0.13441   0.66003   0.00000  Uiso   1.00
H75    H     0.81893   0.43405   0.36246   0.00000  Uiso   1.00
H76    H     0.51518   0.30005   0.60428   0.00000  Uiso   1.00
H77    H     0.86551   0.50358   0.66972   0.00000  Uiso   1.00
H78    H     0.98454   0.43636   0.56142   0.00000  Uiso   1.00
H79    H     0.88135   0.57846   0.89456   0.00000  Uiso   1.00
H80    H     0.73730   0.51491   0.53501   0.00000  Uiso   1.00
H81    H     0.10600   0.33191   0.47017   0.00000  Uiso   1.00
H82    H     0.88839   0.63156   0.17261   0.00000  Uiso   1.00
H83    H     0.58464   0.49755   0.41442   0.00000  Uiso   1.00
O84    O     0.14813   0.18479   0.49789   0.00000  Uiso   1.00
O85    O     0.86262   0.57791   0.41945   0.00000  Uiso   1.00
O86    O     0.46410   0.40210   0.42473   0.00000  Uiso   1.00
N87    N     0.03655   0.19011   0.63019   0.00000  Uiso   1.00
N88    N     0.83311   0.47026   0.28693   0.00000  Uiso   1.00
N89    N     0.54911   0.34499   0.57812   0.00000  Uiso   1.00
N90    N     0.07392   0.29639   0.52802   0.00000  Uiso   1.00
N91    N     0.87048   0.57653   0.18476   0.00000  Uiso   1.00
N92    N     0.58649   0.45126   0.47595   0.00000  Uiso   1.00
C93    C     0.32574   0.19703   0.34067   0.00000  Uiso   1.00
C94    C     0.31433   0.12353   0.25768   0.00000  Uiso   1.00
C95    C     0.24554   0.08254   0.24482   0.00000  Uiso   1.00
C96    C     0.24703   0.01676   0.16430   0.00000  Uiso   1.00
C97    C     0.21900   0.90624   0.04542   0.00000  Uiso   1.00
C98    C     0.39154   0.17959   0.43868   0.00000  Uiso   1.00
C99    C     0.38767   0.18574   0.57802   0.00000  Uiso   1.00
C100   C     0.45416   0.16715   0.64986   0.00000  Uiso   1.00
C101   C     0.54601   0.14372   0.81199   0.00000  Uiso   1.00
C102   C     0.35701   0.25785   0.24332   0.00000  Uiso   1.00
C103   C     0.32411   0.32982   0.21841   0.00000  Uiso   1.00
C104   C     0.36154   0.37713   0.12580   0.00000  Uiso   1.00
C105   C     0.39977   0.47521   0.98461   0.00000  Uiso   1.00
C106   C     0.45072   0.15308   0.22053   0.00000  Uiso   1.00
C107   C     0.38222   0.09966   0.19243   0.00000  Uiso   1.00
C108   C     0.38382   0.03392   0.11190   0.00000  Uiso   1.00
C109   C     0.31504   0.99284   0.09892   0.00000  Uiso   1.00
C110   C     0.45942   0.15571   0.37343   0.00000  Uiso   1.00
C111   C     0.52594   0.13712   0.44509   0.00000  Uiso   1.00
C112   C     0.52217   0.14324   0.58450   0.00000  Uiso   1.00
C113   C     0.42489   0.23398   0.17806   0.00000  Uiso   1.00
C114   C     0.46238   0.28119   0.08549   0.00000  Uiso   1.00
C115   C     0.42955   0.35321   0.06043   0.00000  Uiso   1.00
H116   H     0.27290   0.21561   0.39148   0.00000  Uiso   1.00
H117   H     0.19302   0.10103   0.29535   0.00000  Uiso   1.00
H118   H     0.33513   0.20422   0.62848   0.00000  Uiso   1.00
H119   H     0.27158   0.34827   0.26893   0.00000  Uiso   1.00
H120   H     0.13441   0.96346   0.16003   0.00000  Uiso   1.00
H121   H     0.43405   0.18107   0.86246   0.00000  Uiso   1.00
H122   H     0.30005   0.48482   0.10428   0.00000  Uiso   1.00
H123   H     0.50358   0.13449   0.16972   0.00000  Uiso   1.00
H124   H     0.43636   0.01546   0.06142   0.00000  Uiso   1.00
H125   H     0.57846   0.11865   0.39456   0.00000  Uiso   1.00
H126   H     0.51491   0.26270   0.03501   0.00000  Uiso   1.00
H127   H     0.33191   0.89400   0.97017   0.00000  Uiso   1.00
H128   H     0.63156   0.11161   0.67261   0.00000  Uiso   1.00
H129   H     0.49755   0.41536   0.91442   0.00000  Uiso   1.00
O130   O     0.18479   0.85187   0.99789   0.00000  Uiso   1.00
O131   O     0.57791   0.13738   0.91945   0.00000  Uiso   1.00
O132   O     0.40210   0.53590   0.92473   0.00000  Uiso   1.00
N133   N     0.19011   0.96345   0.13019   0.00000  Uiso   1.00
N134   N     0.47026   0.16689   0.78693   0.00000  Uiso   1.00
N135   N     0.34499   0.45089   0.07812   0.00000  Uiso   1.00
N136   N     0.29639   0.92608   0.02802   0.00000  Uiso   1.00
N137   N     0.57653   0.12952   0.68476   0.00000  Uiso   1.00
N138   N     0.45126   0.41351   0.97595   0.00000  Uiso   1.00
C139   C     0.67426   0.80297   0.34067   0.00000  Uiso   1.00
C140   C     0.68567   0.87647   0.25768   0.00000  Uiso   1.00
C141   C     0.75446   0.91746   0.24482   0.00000  Uiso   1.00
C142   C     0.75297   0.98324   0.16430   0.00000  Uiso   1.00
C143   C     0.78100   0.09376   0.04542   0.00000  Uiso   1.00
C144   C     0.60846   0.82041   0.43868   0.00000  Uiso   1.00
C145   C     0.61233   0.81426   0.57802   0.00000  Uiso   1.00
C146   C     0.54584   0.83285   0.64986   0.00000  Uiso   1.00
C147   C     0.45399   0.85628   0.81199   0.00000  Uiso   1.00
C148   C     0.64299   0.74215   0.24332   0.00000  Uiso   1.00
C149   C     0.67589   0.67018   0.21841   0.00000  Uiso   1.00
C150   C     0.63846   0.62287   0.12580   0.00000  Uiso   1.00
C151   C     0.60023   0.52479   0.98461   0.00000  Uiso   1.00
C152   C     0.54928   0.84692   0.22053   0.00000  Uiso   1.00
C153   C     0.61778   0.90034   0.19243   0.00000  Uiso   1.00
C154   C     0.61618   0.96608   0.11190   0.00000  Uiso   1.00
C155   C     0.68496   0.00716   0.09892   0.00000  Uiso   1.00
C156   C     0.54058   0.84429   0.37343   0.00000  Uiso   1.00
C157   C     0.47406   0.86288   0.44509   0.00000  Uiso   1.00
C158   C     0.47783   0.85676   0.58450   0.00000  Uiso   1.00
C159   C     0.57511   0.76602   0.17806   0.00000  Uiso   1.00
C160   C     0.53762   0.71881   0.08549   0.00000  Uiso   1.00
C161   C     0.57045   0.64679   0.06043   0.00000  Uiso   1.00
H162   H     0.72710   0.78439   0.39148   0.00000  Uiso   1.00
H163   H     0.80698   0.89897   0.29535   0.00000  Uiso   1.00
H164   H     0.66487   0.79578   0.62848   0.00000  Uiso   1.00
H165   H     0.72842   0.65173   0.26893   0.00000  Uiso   1.00
H166   H     0.86559   0.03654   0.16003   0.00000  Uiso   1.00
H167   H     0.56595   0.81893   0.86246   0.00000  Uiso   1.00
H168   H     0.69995   0.51518   0.10428   0.00000  Uiso   1.00
H169   H     0.49642   0.86551   0.16972   0.00000  Uiso   1.00
H170   H     0.56364   0.98454   0.06142   0.00000  Uiso   1.00
H171   H     0.42154   0.88135   0.39456   0.00000  Uiso   1.00
H172   H     0.48509   0.73730   0.03501   0.00000  Uiso   1.00
H173   H     0.66809   0.10600   0.97017   0.00000  Uiso   1.00
H174   H     0.36844   0.88839   0.67261   0.00000  Uiso   1.00
H175   H     0.50245   0.58464   0.91442   0.00000  Uiso   1.00
O176   O     0.81521   0.14813   0.99789   0.00000  Uiso   1.00
O177   O     0.42209   0.86262   0.91945   0.00000  Uiso   1.00
O178   O     0.59790   0.46410   0.92473   0.00000  Uiso   1.00
N179   N     0.80989   0.03655   0.13019   0.00000  Uiso   1.00
N180   N     0.52974   0.83311   0.78693   0.00000  Uiso   1.00
N181   N     0.65501   0.54911   0.07812   0.00000  Uiso   1.00
N182   N     0.70361   0.07392   0.02802   0.00000  Uiso   1.00
N183   N     0.42347   0.87048   0.68476   0.00000  Uiso   1.00
N184   N     0.54874   0.58649   0.97595   0.00000  Uiso   1.00
