data_job_06562
_audit_creation_date              2018-12-19
_audit_creation_method            'Materials Studio'
_symmetry_space_group_name_H-M    'P1'
_symmetry_Int_Tables_number       1
_symmetry_cell_setting            triclinic
loop_
_symmetry_equiv_pos_as_xyz
  x,y,z
_cell_length_a                    22.0687
_cell_length_b                    17.6638
_cell_length_c                    20.2823
_cell_angle_alpha                 106.4330
_cell_angle_beta                  77.4244
_cell_angle_gamma                 84.9811
loop_
_atom_site_label
_atom_site_type_symbol
_atom_site_fract_x
_atom_site_fract_y
_atom_site_fract_z
_atom_site_U_iso_or_equiv
_atom_site_adp_type
_atom_site_occupancy
C1     C     0.23222   0.94399   0.15145   0.00000  Uiso   1.00
C2     C     0.25419   0.86901   0.08713   0.00000  Uiso   1.00
C3     C     0.23801   0.85700   0.02296   0.00000  Uiso   1.00
C4     C     0.26299   0.78431   0.97072   0.00000  Uiso   1.00
C5     C     0.29103   0.67677   0.86911   0.00000  Uiso   1.00
C6     C     0.20085   0.91609   0.21326   0.00000  Uiso   1.00
C7     C     0.13981   0.94368   0.25515   0.00000  Uiso   1.00
C8     C     0.11990   0.91062   0.30908   0.00000  Uiso   1.00
C9     C     0.06514   0.87622   0.40332   0.00000  Uiso   1.00
C10    C     0.29176   0.97302   0.16855   0.00000  Uiso   1.00
C11    C     0.30716   0.04848   0.17287   0.00000  Uiso   1.00
C12    C     0.36377   0.06336   0.18918   0.00000  Uiso   1.00
C13    C     0.45016   0.11735   0.21400   0.00000  Uiso   1.00
C14    C     0.30538   0.83623   0.17276   0.00000  Uiso   1.00
C15    C     0.29393   0.81048   0.09871   0.00000  Uiso   1.00
C16    C     0.31894   0.73779   0.04655   0.00000  Uiso   1.00
C17    C     0.30279   0.72567   0.98231   0.00000  Uiso   1.00
C18    C     0.24058   0.85756   0.22484   0.00000  Uiso   1.00
C19    C     0.22075   0.82446   0.27873   0.00000  Uiso   1.00
C20    C     0.15970   0.85199   0.32068   0.00000  Uiso   1.00
C21    C     0.33149   0.91449   0.18013   0.00000  Uiso   1.00
C22    C     0.38809   0.92926   0.19645   0.00000  Uiso   1.00
C23    C     0.40358   0.00472   0.20078   0.00000  Uiso   1.00
H24    H     0.20129   0.98955   0.14244   0.00000  Uiso   1.00
H25    H     0.20725   0.90231   0.01403   0.00000  Uiso   1.00
H26    H     0.10908   0.98897   0.24618   0.00000  Uiso   1.00
H27    H     0.27640   0.09375   0.16391   0.00000  Uiso   1.00
H28    H     0.23136   0.77976   0.87678   0.00000  Uiso   1.00
H29    H     0.02437   0.96252   0.36630   0.00000  Uiso   1.00
H30    H     0.37719   0.18347   0.19281   0.00000  Uiso   1.00
H31    H     0.33631   0.79067   0.18178   0.00000  Uiso   1.00
H32    H     0.34969   0.69251   0.05552   0.00000  Uiso   1.00
H33    H     0.25151   0.77917   0.28767   0.00000  Uiso   1.00
H34    H     0.41883   0.88395   0.20540   0.00000  Uiso   1.00
H35    H     0.34697   0.60947   0.91046   0.00000  Uiso   1.00
H36    H     0.13998   0.79224   0.39998   0.00000  Uiso   1.00
H37    H     0.49280   0.01319   0.22649   0.00000  Uiso   1.00
O38    O     0.29551   0.63362   0.80986   0.00000  Uiso   1.00
O39    O     0.02395   0.87341   0.45210   0.00000  Uiso   1.00
O40    O     0.48684   0.16329   0.22449   0.00000  Uiso   1.00
N41    N     0.25675   0.75316   0.90203   0.00000  Uiso   1.00
N42    N     0.06322   0.92402   0.35969   0.00000  Uiso   1.00
N43    N     0.39307   0.13060   0.19752   0.00000  Uiso   1.00
N44    N     0.31895   0.66153   0.92015   0.00000  Uiso   1.00
N45    N     0.12542   0.83240   0.37781   0.00000  Uiso   1.00
N46    N     0.45527   0.03897   0.21564   0.00000  Uiso   1.00
C47    C     0.03333   0.16033   0.80082   0.00000  Uiso   1.00
C48    C     0.97761   0.21240   0.79400   0.00000  Uiso   1.00
C49    C     0.91730   0.23011   0.83840   0.00000  Uiso   1.00
C50    C     0.87291   0.27882   0.82325   0.00000  Uiso   1.00
C51    C     0.78404   0.35510   0.82138   0.00000  Uiso   1.00
C52    C     0.05680   0.09434   0.72970   0.00000  Uiso   1.00
C53    C     0.06309   0.01279   0.72005   0.00000  Uiso   1.00
C54    C     0.08538   0.96211   0.65077   0.00000  Uiso   1.00
C55    C     0.11950   0.85509   0.54909   0.00000  Uiso   1.00
C56    C     0.08504   0.21194   0.80621   0.00000  Uiso   1.00
C57    C     0.11508   0.22926   0.86088   0.00000  Uiso   1.00
C58    C     0.16115   0.27758   0.85601   0.00000  Uiso   1.00
C59    C     0.23911   0.35316   0.87312   0.00000  Uiso   1.00
C60    C     0.06173   0.21534   0.69496   0.00000  Uiso   1.00
C61    C     0.99304   0.24227   0.73650   0.00000  Uiso   1.00
C62    C     0.94873   0.29097   0.72128   0.00000  Uiso   1.00
C63    C     0.88837   0.30876   0.76565   0.00000  Uiso   1.00
C64    C     0.07223   0.12421   0.67220   0.00000  Uiso   1.00
C65    C     0.09452   0.07365   0.60293   0.00000  Uiso   1.00
C66    C     0.10084   0.99204   0.59317   0.00000  Uiso   1.00
C67    C     0.10047   0.24182   0.74871   0.00000  Uiso   1.00
C68    C     0.14650   0.29012   0.74376   0.00000  Uiso   1.00
C69    C     0.17660   0.30751   0.79840   0.00000  Uiso   1.00
H70    H     0.02132   0.13706   0.84558   0.00000  Uiso   1.00
H71    H     0.90538   0.20697   0.88288   0.00000  Uiso   1.00
H72    H     0.05116   0.98968   0.76455   0.00000  Uiso   1.00
H73    H     0.10313   0.20613   0.90536   0.00000  Uiso   1.00
H74    H     0.78364   0.29764   0.89887   0.00000  Uiso   1.00
H75    H     0.09103   0.83947   0.64937   0.00000  Uiso   1.00
H76    H     0.20063   0.29587   0.94629   0.00000  Uiso   1.00
H77    H     0.07375   0.23860   0.65019   0.00000  Uiso   1.00
H78    H     0.96068   0.31409   0.67678   0.00000  Uiso   1.00
H79    H     0.10646   0.09679   0.55845   0.00000  Uiso   1.00
H80    H     0.15843   0.31323   0.69925   0.00000  Uiso   1.00
H81    H     0.82852   0.38457   0.73158   0.00000  Uiso   1.00
H82    H     0.13592   0.92639   0.48208   0.00000  Uiso   1.00
H83    H     0.24552   0.38280   0.77900   0.00000  Uiso   1.00
O84    O     0.73075   0.38891   0.83622   0.00000  Uiso   1.00
O85    O     0.13406   0.78780   0.50889   0.00000  Uiso   1.00
O86    O     0.27784   0.38660   0.89844   0.00000  Uiso   1.00
N87    N     0.80972   0.30775   0.85586   0.00000  Uiso   1.00
N88    N     0.09711   0.87939   0.62259   0.00000  Uiso   1.00
N89    N     0.19958   0.30607   0.90017   0.00000  Uiso   1.00
N90    N     0.83387   0.35453   0.76584   0.00000  Uiso   1.00
N91    N     0.12126   0.92616   0.53257   0.00000  Uiso   1.00
N92    N     0.22374   0.35285   0.81016   0.00000  Uiso   1.00
C93    C     0.99837   0.31628   0.07254   0.00000  Uiso   1.00
C94    C     0.96600   0.25150   0.09508   0.00000  Uiso   1.00
C95    C     0.98743   0.16986   0.06727   0.00000  Uiso   1.00
C96    C     0.95105   0.12042   0.09500   0.00000  Uiso   1.00
C97    C     0.90925   0.01509   0.12182   0.00000  Uiso   1.00
C98    C     0.94992   0.36388   0.05018   0.00000  Uiso   1.00
C99    C     0.95784   0.37673   0.98463   0.00000  Uiso   1.00
C100   C     0.90792   0.42189   0.97457   0.00000  Uiso   1.00
C101   C     0.84118   0.49108   0.93171   0.00000  Uiso   1.00
C102   C     0.00880   0.37278   0.13998   0.00000  Uiso   1.00
C103   C     0.06622   0.39314   0.14994   0.00000  Uiso   1.00
C104   C     0.06588   0.44582   0.21548   0.00000  Uiso   1.00
C105   C     0.09056   0.52883   0.31205   0.00000  Uiso   1.00
C106   C     0.89565   0.37366   0.17123   0.00000  Uiso   1.00
C107   C     0.91020   0.28267   0.14868   0.00000  Uiso   1.00
C108   C     0.87378   0.23335   0.17647   0.00000  Uiso   1.00
C109   C     0.89515   0.15164   0.14871   0.00000  Uiso   1.00
C110   C     0.89412   0.39505   0.10379   0.00000  Uiso   1.00
C111   C     0.84419   0.44021   0.09383   0.00000  Uiso   1.00
C112   C     0.85202   0.45312   0.02828   0.00000  Uiso   1.00
C113   C     0.95300   0.40395   0.19359   0.00000  Uiso   1.00
C114   C     0.95257   0.45662   0.25914   0.00000  Uiso   1.00
C115   C     0.00998   0.47705   0.26919   0.00000  Uiso   1.00
H116   H     0.04181   0.29202   0.03080   0.00000  Uiso   1.00
H117   H     0.03061   0.14576   0.02578   0.00000  Uiso   1.00
H118   H     0.00102   0.35260   0.94316   0.00000  Uiso   1.00
H119   H     0.10939   0.36901   0.10844   0.00000  Uiso   1.00
H120   H     0.99357   0.99735   0.04384   0.00000  Uiso   1.00
H121   H     0.93120   0.43351   0.86963   0.00000  Uiso   1.00
H122   H     0.15971   0.46811   0.21816   0.00000  Uiso   1.00
H123   H     0.85221   0.39793   0.21297   0.00000  Uiso   1.00
H124   H     0.83060   0.25748   0.21796   0.00000  Uiso   1.00
H125   H     0.80102   0.46433   0.13533   0.00000  Uiso   1.00
H126   H     0.90938   0.48073   0.30061   0.00000  Uiso   1.00
H127   H     0.83124   0.08803   0.19981   0.00000  Uiso   1.00
H128   H     0.76887   0.52419   0.02560   0.00000  Uiso   1.00
H129   H     0.99738   0.55878   0.37413   0.00000  Uiso   1.00
O130   O     0.90161   0.94839   0.12180   0.00000  Uiso   1.00
O131   O     0.81978   0.52062   0.89325   0.00000  Uiso   1.00
O132   O     0.11958   0.56600   0.35051   0.00000  Uiso   1.00
N133   N     0.95834   0.03797   0.07988   0.00000  Uiso   1.00
N134   N     0.90002   0.44574   0.91699   0.00000  Uiso   1.00
N135   N     0.11366   0.47810   0.24284   0.00000  Uiso   1.00
N136   N     0.87099   0.08676   0.16380   0.00000  Uiso   1.00
N137   N     0.81267   0.49453   0.00092   0.00000  Uiso   1.00
N138   N     0.02631   0.52689   0.32676   0.00000  Uiso   1.00
C139   C     0.62544   0.86164   0.55418   0.00000  Uiso   1.00
C140   C     0.60612   0.78060   0.55316   0.00000  Uiso   1.00
C141   C     0.55880   0.76685   0.60389   0.00000  Uiso   1.00
C142   C     0.54835   0.68843   0.59336   0.00000  Uiso   1.00
C143   C     0.51290   0.57208   0.60076   0.00000  Uiso   1.00
C144   C     0.61965   0.87318   0.48396   0.00000  Uiso   1.00
C145   C     0.58370   0.93729   0.47651   0.00000  Uiso   1.00
C146   C     0.58465   0.93681   0.40772   0.00000  Uiso   1.00
C147   C     0.57024   0.96424   0.30768   0.00000  Uiso   1.00
C148   C     0.69551   0.85245   0.55078   0.00000  Uiso   1.00
C149   C     0.72336   0.89913   0.59949   0.00000  Uiso   1.00
C150   C     0.78818   0.88120   0.58695   0.00000  Uiso   1.00
C151   C     0.89156   0.87643   0.59065   0.00000  Uiso   1.00
C152   C     0.69103   0.74681   0.44527   0.00000  Uiso   1.00
C153   C     0.64175   0.71823   0.49401   0.00000  Uiso   1.00
C154   C     0.63137   0.63980   0.48339   0.00000  Uiso   1.00
C155   C     0.58404   0.62594   0.53410   0.00000  Uiso   1.00
C156   C     0.65527   0.81082   0.42481   0.00000  Uiso   1.00
C157   C     0.65627   0.81024   0.35601   0.00000  Uiso   1.00
C158   C     0.62034   0.87433   0.34846   0.00000  Uiso   1.00
C159   C     0.73114   0.79007   0.49162   0.00000  Uiso   1.00
C160   C     0.79592   0.77208   0.47900   0.00000  Uiso   1.00
C161   C     0.82387   0.81872   0.52768   0.00000  Uiso   1.00
H162   H     0.59771   0.91020   0.60023   0.00000  Uiso   1.00
H163   H     0.53124   0.81513   0.64966   0.00000  Uiso   1.00
H164   H     0.55615   0.98555   0.52230   0.00000  Uiso   1.00
H165   H     0.69578   0.94739   0.64526   0.00000  Uiso   1.00
H166   H     0.47324   0.68224   0.67836   0.00000  Uiso   1.00
H167   H     0.52577   0.04158   0.40981   0.00000  Uiso   1.00
H168   H     0.82021   0.96112   0.66910   0.00000  Uiso   1.00
H169   H     0.71877   0.69825   0.39921   0.00000  Uiso   1.00
H170   H     0.65894   0.59155   0.43761   0.00000  Uiso   1.00
H171   H     0.68385   0.76197   0.31025   0.00000  Uiso   1.00
H172   H     0.82348   0.72381   0.43321   0.00000  Uiso   1.00
H173   H     0.57688   0.50077   0.50625   0.00000  Uiso   1.00
H174   H     0.62942   0.86012   0.23770   0.00000  Uiso   1.00
H175   H     0.92386   0.77965   0.49699   0.00000  Uiso   1.00
O176   O     0.48351   0.52514   0.62118   0.00000  Uiso   1.00
O177   O     0.55244   0.99660   0.26885   0.00000  Uiso   1.00
O178   O     0.93874   0.89102   0.60904   0.00000  Uiso   1.00
N179   N     0.50585   0.65417   0.63259   0.00000  Uiso   1.00
N180   N     0.55496   0.99013   0.38151   0.00000  Uiso   1.00
N181   N     0.83024   0.91491   0.62392   0.00000  Uiso   1.00
N182   N     0.56162   0.55652   0.53998   0.00000  Uiso   1.00
N183   N     0.61073   0.89248   0.28890   0.00000  Uiso   1.00
N184   N     0.88601   0.81727   0.53131   0.00000  Uiso   1.00
C185   C     0.57360   0.65746   0.79690   0.00000  Uiso   1.00
C186   C     0.53486   0.58958   0.79049   0.00000  Uiso   1.00
C187   C     0.47452   0.59303   0.78063   0.00000  Uiso   1.00
C188   C     0.44711   0.52452   0.77606   0.00000  Uiso   1.00
C189   C     0.38212   0.42966   0.76529   0.00000  Uiso   1.00
C190   C     0.63487   0.62447   0.73918   0.00000  Uiso   1.00
C191   C     0.65863   0.65726   0.68618   0.00000  Uiso   1.00
C192   C     0.71542   0.61813   0.63842   0.00000  Uiso   1.00
C193   C     0.80572   0.57747   0.54802   0.00000  Uiso   1.00
C194   C     0.59125   0.67076   0.86749   0.00000  Uiso   1.00
C195   C     0.57835   0.74249   0.92236   0.00000  Uiso   1.00
C196   C     0.59843   0.74234   0.98263   0.00000  Uiso   1.00
C197   C     0.62101   0.77357   0.09145   0.00000  Uiso   1.00
C198   C     0.63223   0.52967   0.80634   0.00000  Uiso   1.00
C199   C     0.56671   0.52016   0.79562   0.00000  Uiso   1.00
C200   C     0.53938   0.45164   0.79107   0.00000  Uiso   1.00
C201   C     0.47901   0.45498   0.78120   0.00000  Uiso   1.00
C202   C     0.66672   0.55506   0.74430   0.00000  Uiso   1.00
C203   C     0.72349   0.51587   0.69662   0.00000  Uiso   1.00
C204   C     0.74732   0.54860   0.64355   0.00000  Uiso   1.00
C205   C     0.62310   0.60135   0.87262   0.00000  Uiso   1.00
C206   C     0.64321   0.60110   0.93280   0.00000  Uiso   1.00
C207   C     0.63033   0.67281   0.98776   0.00000  Uiso   1.00
H208   H     0.54881   0.71150   0.79291   0.00000  Uiso   1.00
H209   H     0.44989   0.64675   0.77666   0.00000  Uiso   1.00
H210   H     0.63397   0.71098   0.68223   0.00000  Uiso   1.00
H211   H     0.55370   0.79619   0.91838   0.00000  Uiso   1.00
H212   H     0.35427   0.54435   0.76087   0.00000  Uiso   1.00
H213   H     0.74243   0.67979   0.56178   0.00000  Uiso   1.00
H214   H     0.57316   0.85948   0.05975   0.00000  Uiso   1.00
H215   H     0.65703   0.47562   0.81033   0.00000  Uiso   1.00
H216   H     0.56404   0.39793   0.79504   0.00000  Uiso   1.00
H217   H     0.74812   0.46216   0.70060   0.00000  Uiso   1.00
H218   H     0.66785   0.54737   0.93675   0.00000  Uiso   1.00
H219   H     0.44692   0.34239   0.77579   0.00000  Uiso   1.00
H220   H     0.83508   0.47784   0.57669   0.00000  Uiso   1.00
H221   H     0.66581   0.65752   0.07466   0.00000  Uiso   1.00
O222   O     0.33748   0.39651   0.75793   0.00000  Uiso   1.00
O223   O     0.84673   0.57422   0.49674   0.00000  Uiso   1.00
O224   O     0.62466   0.80996   0.15006   0.00000  Uiso   1.00
N225   N     0.38883   0.50748   0.76650   0.00000  Uiso   1.00
N226   N     0.75173   0.63411   0.58035   0.00000  Uiso   1.00
N227   N     0.59350   0.80211   0.04590   0.00000  Uiso   1.00
N228   N     0.43868   0.39881   0.77452   0.00000  Uiso   1.00
N229   N     0.80159   0.52544   0.58837   0.00000  Uiso   1.00
N230   N     0.64335   0.69344   0.05392   0.00000  Uiso   1.00
C231   C     0.36780   0.76536   0.62610   0.00000  Uiso   1.00
C232   C     0.38074   0.77320   0.55153   0.00000  Uiso   1.00
C233   C     0.43956   0.76034   0.50481   0.00000  Uiso   1.00
C234   C     0.44146   0.77057   0.43903   0.00000  Uiso   1.00
C235   C     0.46991   0.77931   0.32602   0.00000  Uiso   1.00
C236   C     0.32231   0.70531   0.62765   0.00000  Uiso   1.00
C237   C     0.33201   0.63538   0.64495   0.00000  Uiso   1.00
C238   C     0.28472   0.58847   0.64326   0.00000  Uiso   1.00
C239   C     0.22243   0.49185   0.64848   0.00000  Uiso   1.00
C240   C     0.33099   0.84568   0.67599   0.00000  Uiso   1.00
C241   C     0.34797   0.89377   0.73394   0.00000  Uiso   1.00
C242   C     0.30797   0.96504   0.77297   0.00000  Uiso   1.00
C243   C     0.25916   0.08636   0.85324   0.00000  Uiso   1.00
C244   C     0.26657   0.80640   0.59237   0.00000  Uiso   1.00
C245   C     0.32575   0.79549   0.53321   0.00000  Uiso   1.00
C246   C     0.32756   0.80574   0.46749   0.00000  Uiso   1.00
C247   C     0.38638   0.79290   0.42068   0.00000  Uiso   1.00
C248   C     0.26732   0.72760   0.60934   0.00000  Uiso   1.00
C249   C     0.22000   0.68079   0.60763   0.00000  Uiso   1.00
C250   C     0.22963   0.61080   0.62491   0.00000  Uiso   1.00
C251   C     0.27600   0.86798   0.65767   0.00000  Uiso   1.00
C252   C     0.23597   0.93918   0.69662   0.00000  Uiso   1.00
C253   C     0.25289   0.98737   0.75461   0.00000  Uiso   1.00
H254   H     0.41061   0.74800   0.64036   0.00000  Uiso   1.00
H255   H     0.48211   0.74308   0.51900   0.00000  Uiso   1.00
H256   H     0.37456   0.61815   0.65913   0.00000  Uiso   1.00
H257   H     0.39052   0.87650   0.74810   0.00000  Uiso   1.00
H258   H     0.53712   0.74742   0.37636   0.00000  Uiso   1.00
H259   H     0.31035   0.48402   0.67185   0.00000  Uiso   1.00
H260   H     0.34401   0.02880   0.85947   0.00000  Uiso   1.00
H261   H     0.22376   0.82375   0.57811   0.00000  Uiso   1.00
H262   H     0.28500   0.82299   0.45333   0.00000  Uiso   1.00
H263   H     0.17746   0.69806   0.59345   0.00000  Uiso   1.00
H264   H     0.19342   0.95641   0.68243   0.00000  Uiso   1.00
H265   H     0.37714   0.81228   0.32306   0.00000  Uiso   1.00
H266   H     0.15037   0.54888   0.61855   0.00000  Uiso   1.00
H267   H     0.18403   0.09366   0.80617   0.00000  Uiso   1.00
O268   O     0.50079   0.77796   0.26874   0.00000  Uiso   1.00
O269   O     0.20328   0.43239   0.65642   0.00000  Uiso   1.00
O270   O     0.24743   0.14713   0.90258   0.00000  Uiso   1.00
N271   N     0.49107   0.76281   0.38095   0.00000  Uiso   1.00
N272   N     0.27906   0.51653   0.65720   0.00000  Uiso   1.00
N273   N     0.31051   0.02585   0.83262   0.00000  Uiso   1.00
N274   N     0.40498   0.79771   0.35226   0.00000  Uiso   1.00
N275   N     0.19297   0.55143   0.62851   0.00000  Uiso   1.00
N276   N     0.22443   0.06075   0.80394   0.00000  Uiso   1.00
C277   C     0.76778   0.05601   0.84855   0.00000  Uiso   1.00
C278   C     0.74581   0.13099   0.91287   0.00000  Uiso   1.00
C279   C     0.76199   0.14300   0.97704   0.00000  Uiso   1.00
C280   C     0.73701   0.21569   0.02928   0.00000  Uiso   1.00
C281   C     0.70897   0.32323   0.13089   0.00000  Uiso   1.00
C282   C     0.79915   0.08391   0.78674   0.00000  Uiso   1.00
C283   C     0.86019   0.05632   0.74485   0.00000  Uiso   1.00
C284   C     0.88010   0.08938   0.69092   0.00000  Uiso   1.00
C285   C     0.93486   0.12378   0.59668   0.00000  Uiso   1.00
C286   C     0.70824   0.02698   0.83145   0.00000  Uiso   1.00
C287   C     0.69284   0.95152   0.82713   0.00000  Uiso   1.00
C288   C     0.63623   0.93664   0.81082   0.00000  Uiso   1.00
C289   C     0.54984   0.88265   0.78600   0.00000  Uiso   1.00
C290   C     0.69462   0.16377   0.82724   0.00000  Uiso   1.00
C291   C     0.70607   0.18952   0.90129   0.00000  Uiso   1.00
C292   C     0.68106   0.26221   0.95345   0.00000  Uiso   1.00
C293   C     0.69721   0.27433   0.01769   0.00000  Uiso   1.00
C294   C     0.75942   0.14244   0.77516   0.00000  Uiso   1.00
C295   C     0.77925   0.17554   0.72127   0.00000  Uiso   1.00
C296   C     0.84030   0.14801   0.67932   0.00000  Uiso   1.00
C297   C     0.66851   0.08551   0.81987   0.00000  Uiso   1.00
C298   C     0.61191   0.07074   0.80355   0.00000  Uiso   1.00
C299   C     0.59642   0.99528   0.79922   0.00000  Uiso   1.00
H300   H     0.79871   0.01045   0.85756   0.00000  Uiso   1.00
H301   H     0.79275   0.09769   0.98597   0.00000  Uiso   1.00
H302   H     0.89092   0.01103   0.75382   0.00000  Uiso   1.00
H303   H     0.72360   0.90625   0.83609   0.00000  Uiso   1.00
H304   H     0.76864   0.22024   0.12322   0.00000  Uiso   1.00
H305   H     0.97563   0.03748   0.63370   0.00000  Uiso   1.00
H306   H     0.62281   0.81653   0.80719   0.00000  Uiso   1.00
H307   H     0.66369   0.20933   0.81822   0.00000  Uiso   1.00
H308   H     0.65031   0.30749   0.94448   0.00000  Uiso   1.00
H309   H     0.74849   0.22083   0.71233   0.00000  Uiso   1.00
H310   H     0.58117   0.11605   0.79460   0.00000  Uiso   1.00
H311   H     0.65303   0.39053   0.08954   0.00000  Uiso   1.00
H312   H     0.86002   0.20776   0.60002   0.00000  Uiso   1.00
H313   H     0.50720   0.98681   0.77351   0.00000  Uiso   1.00
O314   O     0.70449   0.36638   0.19014   0.00000  Uiso   1.00
O315   O     0.97605   0.12659   0.54790   0.00000  Uiso   1.00
O316   O     0.51316   0.83671   0.77551   0.00000  Uiso   1.00
N317   N     0.74325   0.24684   0.09797   0.00000  Uiso   1.00
N318   N     0.93678   0.07598   0.64031   0.00000  Uiso   1.00
N319   N     0.60693   0.86940   0.80248   0.00000  Uiso   1.00
N320   N     0.68105   0.33847   0.07985   0.00000  Uiso   1.00
N321   N     0.87458   0.16760   0.62219   0.00000  Uiso   1.00
N322   N     0.54473   0.96103   0.78436   0.00000  Uiso   1.00
C323   C     0.96667   0.83967   0.19918   0.00000  Uiso   1.00
C324   C     0.02239   0.78760   0.20600   0.00000  Uiso   1.00
C325   C     0.08270   0.76989   0.16160   0.00000  Uiso   1.00
C326   C     0.12709   0.72118   0.17675   0.00000  Uiso   1.00
C327   C     0.21596   0.64490   0.17862   0.00000  Uiso   1.00
C328   C     0.94320   0.90566   0.27030   0.00000  Uiso   1.00
C329   C     0.93691   0.98721   0.27995   0.00000  Uiso   1.00
C330   C     0.91462   0.03789   0.34923   0.00000  Uiso   1.00
C331   C     0.88050   0.14491   0.45091   0.00000  Uiso   1.00
C332   C     0.91496   0.78806   0.19379   0.00000  Uiso   1.00
C333   C     0.88492   0.77074   0.13912   0.00000  Uiso   1.00
C334   C     0.83885   0.72242   0.14399   0.00000  Uiso   1.00
C335   C     0.76089   0.64684   0.12688   0.00000  Uiso   1.00
C336   C     0.93827   0.78466   0.30504   0.00000  Uiso   1.00
C337   C     0.00696   0.75773   0.26350   0.00000  Uiso   1.00
C338   C     0.05127   0.70903   0.27872   0.00000  Uiso   1.00
C339   C     0.11163   0.69124   0.23435   0.00000  Uiso   1.00
C340   C     0.92777   0.87579   0.32780   0.00000  Uiso   1.00
C341   C     0.90548   0.92635   0.39707   0.00000  Uiso   1.00
C342   C     0.89916   0.00796   0.40683   0.00000  Uiso   1.00
C343   C     0.89953   0.75818   0.25129   0.00000  Uiso   1.00
C344   C     0.85350   0.70988   0.25624   0.00000  Uiso   1.00
C345   C     0.82340   0.69249   0.20160   0.00000  Uiso   1.00
H346   H     0.97868   0.86294   0.15442   0.00000  Uiso   1.00
H347   H     0.09462   0.79303   0.11712   0.00000  Uiso   1.00
H348   H     0.94884   0.01032   0.23545   0.00000  Uiso   1.00
H349   H     0.89687   0.79387   0.09464   0.00000  Uiso   1.00
H350   H     0.21636   0.70236   0.10113   0.00000  Uiso   1.00
H351   H     0.90897   0.16053   0.35063   0.00000  Uiso   1.00
H352   H     0.79937   0.70413   0.05371   0.00000  Uiso   1.00
H353   H     0.92625   0.76140   0.34981   0.00000  Uiso   1.00
H354   H     0.03932   0.68591   0.32322   0.00000  Uiso   1.00
H355   H     0.89354   0.90321   0.44155   0.00000  Uiso   1.00
H356   H     0.84157   0.68677   0.30075   0.00000  Uiso   1.00
H357   H     0.17148   0.61543   0.26842   0.00000  Uiso   1.00
H358   H     0.86408   0.07361   0.51792   0.00000  Uiso   1.00
H359   H     0.75448   0.61720   0.22100   0.00000  Uiso   1.00
O360   O     0.26925   0.61109   0.16378   0.00000  Uiso   1.00
O361   O     0.86594   0.21220   0.49111   0.00000  Uiso   1.00
O362   O     0.72216   0.61340   0.10156   0.00000  Uiso   1.00
N363   N     0.19028   0.69225   0.14414   0.00000  Uiso   1.00
N364   N     0.90289   0.12061   0.37741   0.00000  Uiso   1.00
N365   N     0.80042   0.69393   0.09983   0.00000  Uiso   1.00
N366   N     0.16613   0.64547   0.23416   0.00000  Uiso   1.00
N367   N     0.87874   0.07384   0.46743   0.00000  Uiso   1.00
N368   N     0.77626   0.64715   0.18984   0.00000  Uiso   1.00
C369   C     0.00163   0.68372   0.92746   0.00000  Uiso   1.00
C370   C     0.03400   0.74850   0.90492   0.00000  Uiso   1.00
C371   C     0.01257   0.83014   0.93273   0.00000  Uiso   1.00
C372   C     0.04895   0.87958   0.90500   0.00000  Uiso   1.00
C373   C     0.09075   0.98491   0.87818   0.00000  Uiso   1.00
C374   C     0.05008   0.63612   0.94982   0.00000  Uiso   1.00
C375   C     0.04216   0.62327   0.01537   0.00000  Uiso   1.00
C376   C     0.09208   0.57811   0.02543   0.00000  Uiso   1.00
C377   C     0.15882   0.50892   0.06829   0.00000  Uiso   1.00
C378   C     0.99120   0.62722   0.86002   0.00000  Uiso   1.00
C379   C     0.93378   0.60686   0.85006   0.00000  Uiso   1.00
C380   C     0.93412   0.55418   0.78452   0.00000  Uiso   1.00
C381   C     0.90944   0.47117   0.68795   0.00000  Uiso   1.00
C382   C     0.10435   0.62634   0.82877   0.00000  Uiso   1.00
C383   C     0.08980   0.71733   0.85132   0.00000  Uiso   1.00
C384   C     0.12622   0.76665   0.82353   0.00000  Uiso   1.00
C385   C     0.10485   0.84836   0.85129   0.00000  Uiso   1.00
C386   C     0.10588   0.60495   0.89621   0.00000  Uiso   1.00
C387   C     0.15581   0.55979   0.90617   0.00000  Uiso   1.00
C388   C     0.14798   0.54688   0.97172   0.00000  Uiso   1.00
C389   C     0.04700   0.59605   0.80641   0.00000  Uiso   1.00
C390   C     0.04743   0.54338   0.74086   0.00000  Uiso   1.00
C391   C     0.99002   0.52295   0.73081   0.00000  Uiso   1.00
H392   H     0.95819   0.70798   0.96920   0.00000  Uiso   1.00
H393   H     0.96939   0.85424   0.97422   0.00000  Uiso   1.00
H394   H     0.99898   0.64740   0.05684   0.00000  Uiso   1.00
H395   H     0.89061   0.63099   0.89156   0.00000  Uiso   1.00
H396   H     0.00643   0.00265   0.95616   0.00000  Uiso   1.00
H397   H     0.06880   0.56649   0.13037   0.00000  Uiso   1.00
H398   H     0.84029   0.53189   0.78184   0.00000  Uiso   1.00
H399   H     0.14779   0.60207   0.78703   0.00000  Uiso   1.00
H400   H     0.16940   0.74252   0.78204   0.00000  Uiso   1.00
H401   H     0.19898   0.53567   0.86467   0.00000  Uiso   1.00
H402   H     0.09062   0.51927   0.69939   0.00000  Uiso   1.00
H403   H     0.16876   0.91197   0.80019   0.00000  Uiso   1.00
H404   H     0.23113   0.47581   0.97440   0.00000  Uiso   1.00
H405   H     0.00262   0.44122   0.62587   0.00000  Uiso   1.00
O406   O     0.09839   0.05161   0.87820   0.00000  Uiso   1.00
O407   O     0.18022   0.47938   0.10675   0.00000  Uiso   1.00
O408   O     0.88042   0.43400   0.64949   0.00000  Uiso   1.00
N409   N     0.04166   0.96203   0.92012   0.00000  Uiso   1.00
N410   N     0.09998   0.55426   0.08301   0.00000  Uiso   1.00
N411   N     0.88634   0.52190   0.75716   0.00000  Uiso   1.00
N412   N     0.12901   0.91324   0.83620   0.00000  Uiso   1.00
N413   N     0.18733   0.50547   0.99908   0.00000  Uiso   1.00
N414   N     0.97369   0.47311   0.67324   0.00000  Uiso   1.00
C415   C     0.37456   0.13836   0.44582   0.00000  Uiso   1.00
C416   C     0.39388   0.21940   0.44684   0.00000  Uiso   1.00
C417   C     0.44120   0.23315   0.39611   0.00000  Uiso   1.00
C418   C     0.45165   0.31157   0.40664   0.00000  Uiso   1.00
C419   C     0.48710   0.42792   0.39924   0.00000  Uiso   1.00
C420   C     0.38035   0.12682   0.51604   0.00000  Uiso   1.00
C421   C     0.41630   0.06271   0.52349   0.00000  Uiso   1.00
C422   C     0.41535   0.06319   0.59228   0.00000  Uiso   1.00
C423   C     0.42976   0.03576   0.69232   0.00000  Uiso   1.00
C424   C     0.30449   0.14755   0.44922   0.00000  Uiso   1.00
C425   C     0.27664   0.10087   0.40051   0.00000  Uiso   1.00
C426   C     0.21182   0.11880   0.41305   0.00000  Uiso   1.00
C427   C     0.10844   0.12357   0.40935   0.00000  Uiso   1.00
C428   C     0.30897   0.25319   0.55473   0.00000  Uiso   1.00
C429   C     0.35825   0.28177   0.50599   0.00000  Uiso   1.00
C430   C     0.36863   0.36020   0.51661   0.00000  Uiso   1.00
C431   C     0.41596   0.37406   0.46590   0.00000  Uiso   1.00
C432   C     0.34473   0.18918   0.57519   0.00000  Uiso   1.00
C433   C     0.34373   0.18976   0.64399   0.00000  Uiso   1.00
C434   C     0.37966   0.12567   0.65154   0.00000  Uiso   1.00
C435   C     0.26886   0.20993   0.50838   0.00000  Uiso   1.00
C436   C     0.20408   0.22792   0.52100   0.00000  Uiso   1.00
C437   C     0.17613   0.18128   0.47232   0.00000  Uiso   1.00
H438   H     0.40229   0.08980   0.39977   0.00000  Uiso   1.00
H439   H     0.46876   0.18487   0.35034   0.00000  Uiso   1.00
H440   H     0.44385   0.01445   0.47770   0.00000  Uiso   1.00
H441   H     0.30422   0.05261   0.35474   0.00000  Uiso   1.00
H442   H     0.52676   0.31776   0.32164   0.00000  Uiso   1.00
H443   H     0.47423   0.95842   0.59019   0.00000  Uiso   1.00
H444   H     0.17979   0.03888   0.33090   0.00000  Uiso   1.00
H445   H     0.28123   0.30175   0.60079   0.00000  Uiso   1.00
H446   H     0.34106   0.40845   0.56239   0.00000  Uiso   1.00
H447   H     0.31615   0.23803   0.68975   0.00000  Uiso   1.00
H448   H     0.17652   0.27619   0.56679   0.00000  Uiso   1.00
H449   H     0.42312   0.49923   0.49375   0.00000  Uiso   1.00
H450   H     0.37058   0.13988   0.76230   0.00000  Uiso   1.00
H451   H     0.07614   0.22035   0.50301   0.00000  Uiso   1.00
O452   O     0.51649   0.47486   0.37882   0.00000  Uiso   1.00
O453   O     0.44756   0.00340   0.73115   0.00000  Uiso   1.00
O454   O     0.06126   0.10898   0.39096   0.00000  Uiso   1.00
N455   N     0.49415   0.34583   0.36741   0.00000  Uiso   1.00
N456   N     0.44504   0.00987   0.61849   0.00000  Uiso   1.00
N457   N     0.16976   0.08509   0.37608   0.00000  Uiso   1.00
N458   N     0.43838   0.44348   0.46002   0.00000  Uiso   1.00
N459   N     0.38927   0.10752   0.71110   0.00000  Uiso   1.00
N460   N     0.11399   0.18273   0.46869   0.00000  Uiso   1.00
C461   C     0.42640   0.34254   0.20310   0.00000  Uiso   1.00
C462   C     0.46514   0.41042   0.20951   0.00000  Uiso   1.00
C463   C     0.52548   0.40697   0.21937   0.00000  Uiso   1.00
C464   C     0.55289   0.47548   0.22394   0.00000  Uiso   1.00
C465   C     0.61788   0.57034   0.23471   0.00000  Uiso   1.00
C466   C     0.36513   0.37553   0.26082   0.00000  Uiso   1.00
C467   C     0.34137   0.34274   0.31382   0.00000  Uiso   1.00
C468   C     0.28458   0.38187   0.36158   0.00000  Uiso   1.00
C469   C     0.19428   0.42253   0.45198   0.00000  Uiso   1.00
C470   C     0.40875   0.32924   0.13251   0.00000  Uiso   1.00
C471   C     0.42165   0.25751   0.07764   0.00000  Uiso   1.00
C472   C     0.40157   0.25766   0.01737   0.00000  Uiso   1.00
C473   C     0.37899   0.22643   0.90855   0.00000  Uiso   1.00
C474   C     0.36777   0.47033   0.19366   0.00000  Uiso   1.00
C475   C     0.43329   0.47984   0.20438   0.00000  Uiso   1.00
C476   C     0.46062   0.54836   0.20893   0.00000  Uiso   1.00
C477   C     0.52099   0.54502   0.21880   0.00000  Uiso   1.00
C478   C     0.33328   0.44494   0.25570   0.00000  Uiso   1.00
C479   C     0.27651   0.48413   0.30338   0.00000  Uiso   1.00
C480   C     0.25268   0.45140   0.35645   0.00000  Uiso   1.00
C481   C     0.37690   0.39865   0.12738   0.00000  Uiso   1.00
C482   C     0.35679   0.39890   0.06720   0.00000  Uiso   1.00
C483   C     0.36967   0.32719   0.01224   0.00000  Uiso   1.00
H484   H     0.45119   0.28850   0.20709   0.00000  Uiso   1.00
H485   H     0.55011   0.35325   0.22334   0.00000  Uiso   1.00
H486   H     0.36603   0.28902   0.31777   0.00000  Uiso   1.00
H487   H     0.44630   0.20381   0.08162   0.00000  Uiso   1.00
H488   H     0.64573   0.45565   0.23913   0.00000  Uiso   1.00
H489   H     0.25757   0.32021   0.43822   0.00000  Uiso   1.00
H490   H     0.42684   0.14052   0.94025   0.00000  Uiso   1.00
H491   H     0.34297   0.52438   0.18967   0.00000  Uiso   1.00
H492   H     0.43596   0.60207   0.20496   0.00000  Uiso   1.00
H493   H     0.25188   0.53784   0.29940   0.00000  Uiso   1.00
H494   H     0.33215   0.45263   0.06325   0.00000  Uiso   1.00
H495   H     0.55308   0.65761   0.22421   0.00000  Uiso   1.00
H496   H     0.16492   0.52216   0.42331   0.00000  Uiso   1.00
H497   H     0.33419   0.34248   0.92534   0.00000  Uiso   1.00
O498   O     0.66252   0.60349   0.24207   0.00000  Uiso   1.00
O499   O     0.15327   0.42578   0.50326   0.00000  Uiso   1.00
O500   O     0.37534   0.19004   0.84994   0.00000  Uiso   1.00
N501   N     0.61117   0.49252   0.23350   0.00000  Uiso   1.00
N502   N     0.24827   0.36589   0.41965   0.00000  Uiso   1.00
N503   N     0.40650   0.19789   0.95410   0.00000  Uiso   1.00
N504   N     0.56132   0.60119   0.22548   0.00000  Uiso   1.00
N505   N     0.19841   0.47456   0.41163   0.00000  Uiso   1.00
N506   N     0.35665   0.30656   0.94608   0.00000  Uiso   1.00
C507   C     0.63220   0.23464   0.37390   0.00000  Uiso   1.00
C508   C     0.61926   0.22680   0.44847   0.00000  Uiso   1.00
C509   C     0.56044   0.23966   0.49519   0.00000  Uiso   1.00
C510   C     0.55854   0.22943   0.56097   0.00000  Uiso   1.00
C511   C     0.53009   0.22069   0.67398   0.00000  Uiso   1.00
C512   C     0.67769   0.29469   0.37235   0.00000  Uiso   1.00
C513   C     0.66799   0.36462   0.35505   0.00000  Uiso   1.00
C514   C     0.71528   0.41153   0.35674   0.00000  Uiso   1.00
C515   C     0.77757   0.50815   0.35152   0.00000  Uiso   1.00
C516   C     0.66901   0.15432   0.32401   0.00000  Uiso   1.00
C517   C     0.65203   0.10623   0.26606   0.00000  Uiso   1.00
C518   C     0.69203   0.03496   0.22703   0.00000  Uiso   1.00
C519   C     0.74084   0.91364   0.14676   0.00000  Uiso   1.00
C520   C     0.73343   0.19360   0.40763   0.00000  Uiso   1.00
C521   C     0.67425   0.20451   0.46679   0.00000  Uiso   1.00
C522   C     0.67244   0.19426   0.53251   0.00000  Uiso   1.00
C523   C     0.61362   0.20710   0.57932   0.00000  Uiso   1.00
C524   C     0.73268   0.27240   0.39066   0.00000  Uiso   1.00
C525   C     0.78000   0.31921   0.39237   0.00000  Uiso   1.00
C526   C     0.77037   0.38920   0.37509   0.00000  Uiso   1.00
C527   C     0.72400   0.13202   0.34233   0.00000  Uiso   1.00
C528   C     0.76403   0.06082   0.30338   0.00000  Uiso   1.00
C529   C     0.74711   0.01263   0.24539   0.00000  Uiso   1.00
H530   H     0.58939   0.25200   0.35964   0.00000  Uiso   1.00
H531   H     0.51789   0.25692   0.48100   0.00000  Uiso   1.00
H532   H     0.62544   0.38185   0.34087   0.00000  Uiso   1.00
H533   H     0.60948   0.12350   0.25190   0.00000  Uiso   1.00
H534   H     0.46288   0.25258   0.62364   0.00000  Uiso   1.00
H535   H     0.68965   0.51598   0.32815   0.00000  Uiso   1.00
H536   H     0.65599   0.97120   0.14053   0.00000  Uiso   1.00
H537   H     0.77624   0.17625   0.42189   0.00000  Uiso   1.00
H538   H     0.71500   0.17701   0.54667   0.00000  Uiso   1.00
H539   H     0.82254   0.30194   0.40655   0.00000  Uiso   1.00
H540   H     0.80658   0.04359   0.31757   0.00000  Uiso   1.00
H541   H     0.62286   0.18772   0.67694   0.00000  Uiso   1.00
H542   H     0.84963   0.45112   0.38145   0.00000  Uiso   1.00
H543   H     0.81597   0.90634   0.19383   0.00000  Uiso   1.00
O544   O     0.49921   0.22204   0.73126   0.00000  Uiso   1.00
O545   O     0.79672   0.56761   0.34358   0.00000  Uiso   1.00
O546   O     0.75257   0.85287   0.09742   0.00000  Uiso   1.00
N547   N     0.50893   0.23719   0.61905   0.00000  Uiso   1.00
N548   N     0.72094   0.48347   0.34280   0.00000  Uiso   1.00
N549   N     0.68949   0.97415   0.16738   0.00000  Uiso   1.00
N550   N     0.59502   0.20229   0.64774   0.00000  Uiso   1.00
N551   N     0.80703   0.44857   0.37149   0.00000  Uiso   1.00
N552   N     0.77557   0.93925   0.19606   0.00000  Uiso   1.00
