data_job_05175
_audit_creation_date              2018-12-19
_audit_creation_method            'Materials Studio'
_symmetry_space_group_name_H-M    'P1'
_symmetry_Int_Tables_number       1
_symmetry_cell_setting            triclinic
loop_
_symmetry_equiv_pos_as_xyz
  x,y,z
_cell_length_a                    15.2141
_cell_length_b                    19.9068
_cell_length_c                    15.0705
_cell_angle_alpha                 90.0000
_cell_angle_beta                  90.0000
_cell_angle_gamma                 90.0000
loop_
_atom_site_label
_atom_site_type_symbol
_atom_site_fract_x
_atom_site_fract_y
_atom_site_fract_z
_atom_site_U_iso_or_equiv
_atom_site_adp_type
_atom_site_occupancy
C1     C     0.10318   0.82728   0.96706   0.00000  Uiso   1.00
C2     C     0.05926   0.84651   0.05439   0.00000  Uiso   1.00
C3     C     0.08642   0.89738   0.11108   0.00000  Uiso   1.00
C4     C     0.03744   0.90705   0.18775   0.00000  Uiso   1.00
C5     C     0.98045   0.94294   0.32046   0.00000  Uiso   1.00
C6     C     0.12568   0.75286   0.97479   0.00000  Uiso   1.00
C7     C     0.20868   0.72500   0.96454   0.00000  Uiso   1.00
C8     C     0.21560   0.65584   0.97419   0.00000  Uiso   1.00
C9     C     0.26171   0.54633   0.98326   0.00000  Uiso   1.00
C10    C     0.03191   0.83226   0.89622   0.00000  Uiso   1.00
C11    C     0.03607   0.87113   0.81989   0.00000  Uiso   1.00
C12    C     0.96405   0.86880   0.76339   0.00000  Uiso   1.00
C13    C     0.86457   0.88256   0.65046   0.00000  Uiso   1.00
C14    C     0.96791   0.75401   0.00242   0.00000  Uiso   1.00
C15    C     0.98579   0.80671   0.07360   0.00000  Uiso   1.00
C16    C     0.93675   0.81631   0.15021   0.00000  Uiso   1.00
C17    C     0.96383   0.86718   0.20700   0.00000  Uiso   1.00
C18    C     0.05221   0.71306   0.99400   0.00000  Uiso   1.00
C19    C     0.05901   0.64393   0.00366   0.00000  Uiso   1.00
C20    C     0.14199   0.61596   0.99344   0.00000  Uiso   1.00
C21    C     0.95843   0.79246   0.91543   0.00000  Uiso   1.00
C22    C     0.88640   0.79006   0.85903   0.00000  Uiso   1.00
C23    C     0.89044   0.82892   0.78263   0.00000  Uiso   1.00
H24    H     0.16039   0.85826   0.95210   0.00000  Uiso   1.00
H25    H     0.14329   0.92816   0.09619   0.00000  Uiso   1.00
H26    H     0.26552   0.75581   0.94966   0.00000  Uiso   1.00
H27    H     0.09294   0.90192   0.80505   0.00000  Uiso   1.00
H28    H     0.09195   0.98809   0.26443   0.00000  Uiso   1.00
H29    H     0.34968   0.62467   0.95544   0.00000  Uiso   1.00
H30    H     0.98575   0.93277   0.65049   0.00000  Uiso   1.00
H31    H     0.91070   0.72302   0.01737   0.00000  Uiso   1.00
H32    H     0.87989   0.78550   0.16505   0.00000  Uiso   1.00
H33    H     0.00213   0.61315   0.01853   0.00000  Uiso   1.00
H34    H     0.82955   0.75926   0.87391   0.00000  Uiso   1.00
H35    H     0.87817   0.87230   0.32033   0.00000  Uiso   1.00
H36    H     0.13590   0.50887   0.01133   0.00000  Uiso   1.00
H37    H     0.77197   0.81698   0.70638   0.00000  Uiso   1.00
O38    O     0.96932   0.97372   0.38836   0.00000  Uiso   1.00
O39    O     0.30745   0.49692   0.98296   0.00000  Uiso   1.00
O40    O     0.82999   0.90115   0.58287   0.00000  Uiso   1.00
N41    N     0.04586   0.95227   0.25731   0.00000  Uiso   1.00
N42    N     0.28682   0.61249   0.96844   0.00000  Uiso   1.00
N43    N     0.94659   0.90053   0.68332   0.00000  Uiso   1.00
N44    N     0.93082   0.88997   0.28739   0.00000  Uiso   1.00
N45    N     0.17178   0.55019   0.99851   0.00000  Uiso   1.00
N46    N     0.83155   0.83823   0.71339   0.00000  Uiso   1.00
C47    C     0.39682   0.17272   0.46706   0.00000  Uiso   1.00
C48    C     0.44074   0.15349   0.55439   0.00000  Uiso   1.00
C49    C     0.41358   0.10262   0.61108   0.00000  Uiso   1.00
C50    C     0.46256   0.09295   0.68775   0.00000  Uiso   1.00
C51    C     0.51955   0.05706   0.82046   0.00000  Uiso   1.00
C52    C     0.37432   0.24714   0.47479   0.00000  Uiso   1.00
C53    C     0.29132   0.27500   0.46454   0.00000  Uiso   1.00
C54    C     0.28440   0.34416   0.47419   0.00000  Uiso   1.00
C55    C     0.23829   0.45367   0.48326   0.00000  Uiso   1.00
C56    C     0.46809   0.16774   0.39622   0.00000  Uiso   1.00
C57    C     0.46393   0.12887   0.31989   0.00000  Uiso   1.00
C58    C     0.53595   0.13120   0.26339   0.00000  Uiso   1.00
C59    C     0.63543   0.11744   0.15046   0.00000  Uiso   1.00
C60    C     0.53209   0.24599   0.50242   0.00000  Uiso   1.00
C61    C     0.51421   0.19329   0.57360   0.00000  Uiso   1.00
C62    C     0.56325   0.18369   0.65021   0.00000  Uiso   1.00
C63    C     0.53617   0.13282   0.70700   0.00000  Uiso   1.00
C64    C     0.44779   0.28694   0.49400   0.00000  Uiso   1.00
C65    C     0.44099   0.35607   0.50366   0.00000  Uiso   1.00
C66    C     0.35801   0.38404   0.49344   0.00000  Uiso   1.00
C67    C     0.54157   0.20754   0.41543   0.00000  Uiso   1.00
C68    C     0.61360   0.20994   0.35903   0.00000  Uiso   1.00
C69    C     0.60956   0.17108   0.28263   0.00000  Uiso   1.00
H70    H     0.33961   0.14174   0.45210   0.00000  Uiso   1.00
H71    H     0.35671   0.07184   0.59619   0.00000  Uiso   1.00
H72    H     0.23448   0.24419   0.44966   0.00000  Uiso   1.00
H73    H     0.40706   0.09808   0.30505   0.00000  Uiso   1.00
H74    H     0.40805   0.01191   0.76443   0.00000  Uiso   1.00
H75    H     0.15032   0.37533   0.45544   0.00000  Uiso   1.00
H76    H     0.51425   0.06723   0.15049   0.00000  Uiso   1.00
H77    H     0.58930   0.27698   0.51737   0.00000  Uiso   1.00
H78    H     0.62011   0.21450   0.66505   0.00000  Uiso   1.00
H79    H     0.49787   0.38685   0.51853   0.00000  Uiso   1.00
H80    H     0.67045   0.24074   0.37391   0.00000  Uiso   1.00
H81    H     0.62183   0.12770   0.82033   0.00000  Uiso   1.00
H82    H     0.36410   0.49113   0.51133   0.00000  Uiso   1.00
H83    H     0.72803   0.18302   0.20638   0.00000  Uiso   1.00
O84    O     0.53068   0.02628   0.88836   0.00000  Uiso   1.00
O85    O     0.19255   0.50308   0.48296   0.00000  Uiso   1.00
O86    O     0.67001   0.09885   0.08287   0.00000  Uiso   1.00
N87    N     0.45414   0.04773   0.75731   0.00000  Uiso   1.00
N88    N     0.21318   0.38751   0.46844   0.00000  Uiso   1.00
N89    N     0.55341   0.09947   0.18332   0.00000  Uiso   1.00
N90    N     0.56918   0.11003   0.78739   0.00000  Uiso   1.00
N91    N     0.32822   0.44981   0.49851   0.00000  Uiso   1.00
N92    N     0.66845   0.16177   0.21339   0.00000  Uiso   1.00
C93    C     0.89682   0.32728   0.53294   0.00000  Uiso   1.00
C94    C     0.94074   0.34651   0.44561   0.00000  Uiso   1.00
C95    C     0.91358   0.39738   0.38892   0.00000  Uiso   1.00
C96    C     0.96256   0.40705   0.31225   0.00000  Uiso   1.00
C97    C     0.01955   0.44294   0.17954   0.00000  Uiso   1.00
C98    C     0.87432   0.25286   0.52521   0.00000  Uiso   1.00
C99    C     0.79132   0.22500   0.53546   0.00000  Uiso   1.00
C100   C     0.78440   0.15584   0.52581   0.00000  Uiso   1.00
C101   C     0.73829   0.04633   0.51674   0.00000  Uiso   1.00
C102   C     0.96809   0.33226   0.60378   0.00000  Uiso   1.00
C103   C     0.96393   0.37113   0.68011   0.00000  Uiso   1.00
C104   C     0.03595   0.36880   0.73661   0.00000  Uiso   1.00
C105   C     0.13543   0.38256   0.84954   0.00000  Uiso   1.00
C106   C     0.03209   0.25401   0.49758   0.00000  Uiso   1.00
C107   C     0.01421   0.30671   0.42640   0.00000  Uiso   1.00
C108   C     0.06325   0.31631   0.34979   0.00000  Uiso   1.00
C109   C     0.03617   0.36718   0.29300   0.00000  Uiso   1.00
C110   C     0.94779   0.21306   0.50600   0.00000  Uiso   1.00
C111   C     0.94099   0.14393   0.49634   0.00000  Uiso   1.00
C112   C     0.85801   0.11596   0.50656   0.00000  Uiso   1.00
C113   C     0.04157   0.29246   0.58457   0.00000  Uiso   1.00
C114   C     0.11360   0.29006   0.64097   0.00000  Uiso   1.00
C115   C     0.10956   0.32892   0.71737   0.00000  Uiso   1.00
H116   H     0.83961   0.35826   0.54790   0.00000  Uiso   1.00
H117   H     0.85671   0.42816   0.40381   0.00000  Uiso   1.00
H118   H     0.73448   0.25581   0.55034   0.00000  Uiso   1.00
H119   H     0.90706   0.40192   0.69495   0.00000  Uiso   1.00
H120   H     0.90805   0.48809   0.23557   0.00000  Uiso   1.00
H121   H     0.65032   0.12467   0.54456   0.00000  Uiso   1.00
H122   H     0.01425   0.43277   0.84951   0.00000  Uiso   1.00
H123   H     0.08930   0.22302   0.48263   0.00000  Uiso   1.00
H124   H     0.12011   0.28550   0.33495   0.00000  Uiso   1.00
H125   H     0.99787   0.11315   0.48147   0.00000  Uiso   1.00
H126   H     0.17045   0.25926   0.62609   0.00000  Uiso   1.00
H127   H     0.12183   0.37230   0.17967   0.00000  Uiso   1.00
H128   H     0.86410   0.00887   0.48867   0.00000  Uiso   1.00
H129   H     0.22803   0.31698   0.79362   0.00000  Uiso   1.00
O130   O     0.03068   0.47372   0.11164   0.00000  Uiso   1.00
O131   O     0.69255   0.99692   0.51704   0.00000  Uiso   1.00
O132   O     0.17001   0.40115   0.91713   0.00000  Uiso   1.00
N133   N     0.95414   0.45227   0.24269   0.00000  Uiso   1.00
N134   N     0.71318   0.11249   0.53156   0.00000  Uiso   1.00
N135   N     0.05341   0.40053   0.81668   0.00000  Uiso   1.00
N136   N     0.06918   0.38997   0.21261   0.00000  Uiso   1.00
N137   N     0.82822   0.05019   0.50149   0.00000  Uiso   1.00
N138   N     0.16845   0.33823   0.78661   0.00000  Uiso   1.00
C139   C     0.60318   0.67272   0.03294   0.00000  Uiso   1.00
C140   C     0.55926   0.65349   0.94561   0.00000  Uiso   1.00
C141   C     0.58642   0.60262   0.88892   0.00000  Uiso   1.00
C142   C     0.53744   0.59295   0.81225   0.00000  Uiso   1.00
C143   C     0.48045   0.55706   0.67954   0.00000  Uiso   1.00
C144   C     0.62568   0.74714   0.02521   0.00000  Uiso   1.00
C145   C     0.70868   0.77500   0.03546   0.00000  Uiso   1.00
C146   C     0.71560   0.84416   0.02581   0.00000  Uiso   1.00
C147   C     0.76171   0.95367   0.01674   0.00000  Uiso   1.00
C148   C     0.53191   0.66774   0.10378   0.00000  Uiso   1.00
C149   C     0.53607   0.62887   0.18011   0.00000  Uiso   1.00
C150   C     0.46405   0.63120   0.23661   0.00000  Uiso   1.00
C151   C     0.36457   0.61744   0.34954   0.00000  Uiso   1.00
C152   C     0.46791   0.74599   0.99758   0.00000  Uiso   1.00
C153   C     0.48579   0.69329   0.92640   0.00000  Uiso   1.00
C154   C     0.43675   0.68369   0.84979   0.00000  Uiso   1.00
C155   C     0.46383   0.63282   0.79300   0.00000  Uiso   1.00
C156   C     0.55221   0.78694   0.00600   0.00000  Uiso   1.00
C157   C     0.55901   0.85607   0.99634   0.00000  Uiso   1.00
C158   C     0.64199   0.88404   0.00656   0.00000  Uiso   1.00
C159   C     0.45843   0.70754   0.08457   0.00000  Uiso   1.00
C160   C     0.38640   0.70994   0.14097   0.00000  Uiso   1.00
C161   C     0.39044   0.67108   0.21737   0.00000  Uiso   1.00
H162   H     0.66039   0.64174   0.04790   0.00000  Uiso   1.00
H163   H     0.64329   0.57184   0.90381   0.00000  Uiso   1.00
H164   H     0.76552   0.74419   0.05034   0.00000  Uiso   1.00
H165   H     0.59294   0.59808   0.19495   0.00000  Uiso   1.00
H166   H     0.59195   0.51191   0.73557   0.00000  Uiso   1.00
H167   H     0.84968   0.87533   0.04456   0.00000  Uiso   1.00
H168   H     0.48575   0.56723   0.34951   0.00000  Uiso   1.00
H169   H     0.41070   0.77698   0.98263   0.00000  Uiso   1.00
H170   H     0.37989   0.71450   0.83495   0.00000  Uiso   1.00
H171   H     0.50213   0.88685   0.98147   0.00000  Uiso   1.00
H172   H     0.32955   0.74074   0.12609   0.00000  Uiso   1.00
H173   H     0.37817   0.62770   0.67967   0.00000  Uiso   1.00
H174   H     0.63590   0.99113   0.98867   0.00000  Uiso   1.00
H175   H     0.27197   0.68302   0.29362   0.00000  Uiso   1.00
O176   O     0.46932   0.52628   0.61164   0.00000  Uiso   1.00
O177   O     0.80745   0.00308   0.01704   0.00000  Uiso   1.00
O178   O     0.32999   0.59885   0.41713   0.00000  Uiso   1.00
N179   N     0.54586   0.54773   0.74269   0.00000  Uiso   1.00
N180   N     0.78682   0.88751   0.03156   0.00000  Uiso   1.00
N181   N     0.44659   0.59947   0.31668   0.00000  Uiso   1.00
N182   N     0.43082   0.61003   0.71261   0.00000  Uiso   1.00
N183   N     0.67178   0.94981   0.00149   0.00000  Uiso   1.00
N184   N     0.33155   0.66177   0.28661   0.00000  Uiso   1.00
C185   C     0.89682   0.17272   0.03294   0.00000  Uiso   1.00
C186   C     0.94074   0.15349   0.94561   0.00000  Uiso   1.00
C187   C     0.91358   0.10262   0.88892   0.00000  Uiso   1.00
C188   C     0.96256   0.09295   0.81225   0.00000  Uiso   1.00
C189   C     0.01955   0.05706   0.67954   0.00000  Uiso   1.00
C190   C     0.87432   0.24714   0.02521   0.00000  Uiso   1.00
C191   C     0.79132   0.27500   0.03546   0.00000  Uiso   1.00
C192   C     0.78440   0.34416   0.02581   0.00000  Uiso   1.00
C193   C     0.73829   0.45367   0.01674   0.00000  Uiso   1.00
C194   C     0.96809   0.16774   0.10378   0.00000  Uiso   1.00
C195   C     0.96393   0.12887   0.18011   0.00000  Uiso   1.00
C196   C     0.03595   0.13120   0.23661   0.00000  Uiso   1.00
C197   C     0.13543   0.11744   0.34954   0.00000  Uiso   1.00
C198   C     0.03209   0.24599   0.99758   0.00000  Uiso   1.00
C199   C     0.01421   0.19329   0.92640   0.00000  Uiso   1.00
C200   C     0.06325   0.18369   0.84979   0.00000  Uiso   1.00
C201   C     0.03617   0.13282   0.79300   0.00000  Uiso   1.00
C202   C     0.94779   0.28694   0.00600   0.00000  Uiso   1.00
C203   C     0.94099   0.35607   0.99634   0.00000  Uiso   1.00
C204   C     0.85801   0.38404   0.00656   0.00000  Uiso   1.00
C205   C     0.04157   0.20754   0.08457   0.00000  Uiso   1.00
C206   C     0.11360   0.20994   0.14097   0.00000  Uiso   1.00
C207   C     0.10956   0.17108   0.21737   0.00000  Uiso   1.00
H208   H     0.83961   0.14174   0.04790   0.00000  Uiso   1.00
H209   H     0.85671   0.07184   0.90381   0.00000  Uiso   1.00
H210   H     0.73448   0.24419   0.05034   0.00000  Uiso   1.00
H211   H     0.90706   0.09808   0.19495   0.00000  Uiso   1.00
H212   H     0.90805   0.01191   0.73557   0.00000  Uiso   1.00
H213   H     0.65032   0.37533   0.04456   0.00000  Uiso   1.00
H214   H     0.01425   0.06723   0.34951   0.00000  Uiso   1.00
H215   H     0.08930   0.27698   0.98263   0.00000  Uiso   1.00
H216   H     0.12011   0.21450   0.83495   0.00000  Uiso   1.00
H217   H     0.99787   0.38685   0.98147   0.00000  Uiso   1.00
H218   H     0.17045   0.24074   0.12609   0.00000  Uiso   1.00
H219   H     0.12183   0.12770   0.67967   0.00000  Uiso   1.00
H220   H     0.86410   0.49113   0.98867   0.00000  Uiso   1.00
H221   H     0.22803   0.18302   0.29362   0.00000  Uiso   1.00
O222   O     0.03068   0.02628   0.61164   0.00000  Uiso   1.00
O223   O     0.69255   0.50308   0.01704   0.00000  Uiso   1.00
O224   O     0.17001   0.09885   0.41713   0.00000  Uiso   1.00
N225   N     0.95414   0.04773   0.74269   0.00000  Uiso   1.00
N226   N     0.71318   0.38751   0.03156   0.00000  Uiso   1.00
N227   N     0.05341   0.09947   0.31668   0.00000  Uiso   1.00
N228   N     0.06918   0.11003   0.71261   0.00000  Uiso   1.00
N229   N     0.82822   0.44981   0.00149   0.00000  Uiso   1.00
N230   N     0.16845   0.16177   0.28661   0.00000  Uiso   1.00
C231   C     0.60318   0.82728   0.53294   0.00000  Uiso   1.00
C232   C     0.55926   0.84651   0.44561   0.00000  Uiso   1.00
C233   C     0.58642   0.89738   0.38892   0.00000  Uiso   1.00
C234   C     0.53744   0.90705   0.31225   0.00000  Uiso   1.00
C235   C     0.48045   0.94294   0.17954   0.00000  Uiso   1.00
C236   C     0.62568   0.75286   0.52521   0.00000  Uiso   1.00
C237   C     0.70868   0.72500   0.53546   0.00000  Uiso   1.00
C238   C     0.71560   0.65584   0.52581   0.00000  Uiso   1.00
C239   C     0.76171   0.54633   0.51674   0.00000  Uiso   1.00
C240   C     0.53191   0.83226   0.60378   0.00000  Uiso   1.00
C241   C     0.53607   0.87113   0.68011   0.00000  Uiso   1.00
C242   C     0.46405   0.86880   0.73661   0.00000  Uiso   1.00
C243   C     0.36457   0.88256   0.84954   0.00000  Uiso   1.00
C244   C     0.46791   0.75401   0.49758   0.00000  Uiso   1.00
C245   C     0.48579   0.80671   0.42640   0.00000  Uiso   1.00
C246   C     0.43675   0.81631   0.34979   0.00000  Uiso   1.00
C247   C     0.46383   0.86718   0.29300   0.00000  Uiso   1.00
C248   C     0.55221   0.71306   0.50600   0.00000  Uiso   1.00
C249   C     0.55901   0.64393   0.49634   0.00000  Uiso   1.00
C250   C     0.64199   0.61596   0.50656   0.00000  Uiso   1.00
C251   C     0.45843   0.79246   0.58457   0.00000  Uiso   1.00
C252   C     0.38640   0.79006   0.64097   0.00000  Uiso   1.00
C253   C     0.39044   0.82892   0.71737   0.00000  Uiso   1.00
H254   H     0.66039   0.85826   0.54790   0.00000  Uiso   1.00
H255   H     0.64329   0.92816   0.40381   0.00000  Uiso   1.00
H256   H     0.76552   0.75581   0.55034   0.00000  Uiso   1.00
H257   H     0.59294   0.90192   0.69495   0.00000  Uiso   1.00
H258   H     0.59195   0.98809   0.23557   0.00000  Uiso   1.00
H259   H     0.84968   0.62467   0.54456   0.00000  Uiso   1.00
H260   H     0.48575   0.93277   0.84951   0.00000  Uiso   1.00
H261   H     0.41070   0.72302   0.48263   0.00000  Uiso   1.00
H262   H     0.37989   0.78550   0.33495   0.00000  Uiso   1.00
H263   H     0.50213   0.61315   0.48147   0.00000  Uiso   1.00
H264   H     0.32955   0.75926   0.62609   0.00000  Uiso   1.00
H265   H     0.37817   0.87230   0.17967   0.00000  Uiso   1.00
H266   H     0.63590   0.50887   0.48867   0.00000  Uiso   1.00
H267   H     0.27197   0.81698   0.79362   0.00000  Uiso   1.00
O268   O     0.46932   0.97372   0.11164   0.00000  Uiso   1.00
O269   O     0.80745   0.49692   0.51704   0.00000  Uiso   1.00
O270   O     0.32999   0.90115   0.91713   0.00000  Uiso   1.00
N271   N     0.54586   0.95227   0.24269   0.00000  Uiso   1.00
N272   N     0.78682   0.61249   0.53156   0.00000  Uiso   1.00
N273   N     0.44659   0.90053   0.81668   0.00000  Uiso   1.00
N274   N     0.43082   0.88997   0.21261   0.00000  Uiso   1.00
N275   N     0.67178   0.55019   0.50149   0.00000  Uiso   1.00
N276   N     0.33155   0.83823   0.78661   0.00000  Uiso   1.00
C277   C     0.10318   0.67272   0.46706   0.00000  Uiso   1.00
C278   C     0.05926   0.65349   0.55439   0.00000  Uiso   1.00
C279   C     0.08642   0.60262   0.61108   0.00000  Uiso   1.00
C280   C     0.03744   0.59295   0.68775   0.00000  Uiso   1.00
C281   C     0.98045   0.55706   0.82046   0.00000  Uiso   1.00
C282   C     0.12568   0.74714   0.47479   0.00000  Uiso   1.00
C283   C     0.20868   0.77500   0.46454   0.00000  Uiso   1.00
C284   C     0.21560   0.84416   0.47419   0.00000  Uiso   1.00
C285   C     0.26171   0.95367   0.48326   0.00000  Uiso   1.00
C286   C     0.03191   0.66774   0.39622   0.00000  Uiso   1.00
C287   C     0.03607   0.62887   0.31989   0.00000  Uiso   1.00
C288   C     0.96405   0.63120   0.26339   0.00000  Uiso   1.00
C289   C     0.86457   0.61744   0.15046   0.00000  Uiso   1.00
C290   C     0.96791   0.74599   0.50242   0.00000  Uiso   1.00
C291   C     0.98579   0.69329   0.57360   0.00000  Uiso   1.00
C292   C     0.93675   0.68369   0.65021   0.00000  Uiso   1.00
C293   C     0.96383   0.63282   0.70700   0.00000  Uiso   1.00
C294   C     0.05221   0.78694   0.49400   0.00000  Uiso   1.00
C295   C     0.05901   0.85607   0.50366   0.00000  Uiso   1.00
C296   C     0.14199   0.88404   0.49344   0.00000  Uiso   1.00
C297   C     0.95843   0.70754   0.41543   0.00000  Uiso   1.00
C298   C     0.88640   0.70994   0.35903   0.00000  Uiso   1.00
C299   C     0.89044   0.67108   0.28263   0.00000  Uiso   1.00
H300   H     0.16039   0.64174   0.45210   0.00000  Uiso   1.00
H301   H     0.14329   0.57184   0.59619   0.00000  Uiso   1.00
H302   H     0.26552   0.74419   0.44966   0.00000  Uiso   1.00
H303   H     0.09294   0.59808   0.30505   0.00000  Uiso   1.00
H304   H     0.09195   0.51191   0.76443   0.00000  Uiso   1.00
H305   H     0.34968   0.87533   0.45544   0.00000  Uiso   1.00
H306   H     0.98575   0.56723   0.15049   0.00000  Uiso   1.00
H307   H     0.91070   0.77698   0.51737   0.00000  Uiso   1.00
H308   H     0.87989   0.71450   0.66505   0.00000  Uiso   1.00
H309   H     0.00213   0.88685   0.51853   0.00000  Uiso   1.00
H310   H     0.82955   0.74074   0.37391   0.00000  Uiso   1.00
H311   H     0.87817   0.62770   0.82033   0.00000  Uiso   1.00
H312   H     0.13590   0.99113   0.51133   0.00000  Uiso   1.00
H313   H     0.77197   0.68302   0.20638   0.00000  Uiso   1.00
O314   O     0.96932   0.52628   0.88836   0.00000  Uiso   1.00
O315   O     0.30745   0.00308   0.48296   0.00000  Uiso   1.00
O316   O     0.82999   0.59885   0.08287   0.00000  Uiso   1.00
N317   N     0.04586   0.54773   0.75731   0.00000  Uiso   1.00
N318   N     0.28682   0.88751   0.46844   0.00000  Uiso   1.00
N319   N     0.94659   0.59947   0.18332   0.00000  Uiso   1.00
N320   N     0.93082   0.61003   0.78739   0.00000  Uiso   1.00
N321   N     0.17178   0.94981   0.49851   0.00000  Uiso   1.00
N322   N     0.83155   0.66177   0.21339   0.00000  Uiso   1.00
C323   C     0.39682   0.32728   0.96706   0.00000  Uiso   1.00
C324   C     0.44074   0.34651   0.05439   0.00000  Uiso   1.00
C325   C     0.41358   0.39738   0.11108   0.00000  Uiso   1.00
C326   C     0.46256   0.40705   0.18775   0.00000  Uiso   1.00
C327   C     0.51955   0.44294   0.32046   0.00000  Uiso   1.00
C328   C     0.37432   0.25286   0.97479   0.00000  Uiso   1.00
C329   C     0.29132   0.22500   0.96454   0.00000  Uiso   1.00
C330   C     0.28440   0.15584   0.97419   0.00000  Uiso   1.00
C331   C     0.23829   0.04633   0.98326   0.00000  Uiso   1.00
C332   C     0.46809   0.33226   0.89622   0.00000  Uiso   1.00
C333   C     0.46393   0.37113   0.81989   0.00000  Uiso   1.00
C334   C     0.53595   0.36880   0.76339   0.00000  Uiso   1.00
C335   C     0.63543   0.38256   0.65046   0.00000  Uiso   1.00
C336   C     0.53209   0.25401   0.00242   0.00000  Uiso   1.00
C337   C     0.51421   0.30671   0.07360   0.00000  Uiso   1.00
C338   C     0.56325   0.31631   0.15021   0.00000  Uiso   1.00
C339   C     0.53617   0.36718   0.20700   0.00000  Uiso   1.00
C340   C     0.44779   0.21306   0.99400   0.00000  Uiso   1.00
C341   C     0.44099   0.14393   0.00366   0.00000  Uiso   1.00
C342   C     0.35801   0.11596   0.99344   0.00000  Uiso   1.00
C343   C     0.54157   0.29246   0.91543   0.00000  Uiso   1.00
C344   C     0.61360   0.29006   0.85903   0.00000  Uiso   1.00
C345   C     0.60956   0.32892   0.78263   0.00000  Uiso   1.00
H346   H     0.33961   0.35826   0.95210   0.00000  Uiso   1.00
H347   H     0.35671   0.42816   0.09619   0.00000  Uiso   1.00
H348   H     0.23448   0.25581   0.94966   0.00000  Uiso   1.00
H349   H     0.40706   0.40192   0.80505   0.00000  Uiso   1.00
H350   H     0.40805   0.48809   0.26443   0.00000  Uiso   1.00
H351   H     0.15032   0.12467   0.95544   0.00000  Uiso   1.00
H352   H     0.51425   0.43277   0.65049   0.00000  Uiso   1.00
H353   H     0.58930   0.22302   0.01737   0.00000  Uiso   1.00
H354   H     0.62011   0.28550   0.16505   0.00000  Uiso   1.00
H355   H     0.49787   0.11315   0.01853   0.00000  Uiso   1.00
H356   H     0.67045   0.25926   0.87391   0.00000  Uiso   1.00
H357   H     0.62183   0.37230   0.32033   0.00000  Uiso   1.00
H358   H     0.36410   0.00887   0.01133   0.00000  Uiso   1.00
H359   H     0.72803   0.31698   0.70638   0.00000  Uiso   1.00
O360   O     0.53068   0.47372   0.38836   0.00000  Uiso   1.00
O361   O     0.19255   0.99692   0.98296   0.00000  Uiso   1.00
O362   O     0.67001   0.40115   0.58287   0.00000  Uiso   1.00
N363   N     0.45414   0.45227   0.25731   0.00000  Uiso   1.00
N364   N     0.21318   0.11249   0.96844   0.00000  Uiso   1.00
N365   N     0.55341   0.40053   0.68332   0.00000  Uiso   1.00
N366   N     0.56918   0.38997   0.28739   0.00000  Uiso   1.00
N367   N     0.32822   0.05019   0.99851   0.00000  Uiso   1.00
N368   N     0.66845   0.33823   0.71339   0.00000  Uiso   1.00
