data_job_04363
_audit_creation_date              2018-12-19
_audit_creation_method            'Materials Studio'
_symmetry_space_group_name_H-M    'P1'
_symmetry_Int_Tables_number       1
_symmetry_cell_setting            triclinic
loop_
_symmetry_equiv_pos_as_xyz
  x,y,z
_cell_length_a                    12.5024
_cell_length_b                    13.8319
_cell_length_c                    26.3236
_cell_angle_alpha                 90.0000
_cell_angle_beta                  90.0000
_cell_angle_gamma                 90.0000
loop_
_atom_site_label
_atom_site_type_symbol
_atom_site_fract_x
_atom_site_fract_y
_atom_site_fract_z
_atom_site_U_iso_or_equiv
_atom_site_adp_type
_atom_site_occupancy
C1     C     0.98804   0.25958   0.67273   0.00000  Uiso   1.00
C2     C     0.06974   0.22358   0.63410   0.00000  Uiso   1.00
C3     C     0.16564   0.17789   0.64543   0.00000  Uiso   1.00
C4     C     0.22933   0.15049   0.60470   0.00000  Uiso   1.00
C5     C     0.36096   0.09194   0.55236   0.00000  Uiso   1.00
C6     C     0.97240   0.36687   0.66166   0.00000  Uiso   1.00
C7     C     0.98645   0.44166   0.69617   0.00000  Uiso   1.00
C8     C     0.96819   0.53487   0.67863   0.00000  Uiso   1.00
C9     C     0.94862   0.69878   0.66908   0.00000  Uiso   1.00
C10    C     0.88263   0.21063   0.65904   0.00000  Uiso   1.00
C11    C     0.82117   0.15406   0.69136   0.00000  Uiso   1.00
C12    C     0.72731   0.11575   0.67162   0.00000  Uiso   1.00
C13    C     0.56835   0.03706   0.65801   0.00000  Uiso   1.00
C14    C     0.93061   0.29215   0.58023   0.00000  Uiso   1.00
C15    C     0.03855   0.24127   0.58386   0.00000  Uiso   1.00
C16    C     0.10211   0.21393   0.54309   0.00000  Uiso   1.00
C17    C     0.19808   0.16821   0.55436   0.00000  Uiso   1.00
C18    C     0.94121   0.38456   0.61141   0.00000  Uiso   1.00
C19    C     0.92292   0.47769   0.59382   0.00000  Uiso   1.00
C20    C     0.93694   0.55260   0.62829   0.00000  Uiso   1.00
C21    C     0.85143   0.22831   0.60880   0.00000  Uiso   1.00
C22    C     0.75764   0.19009   0.58901   0.00000  Uiso   1.00
C23    C     0.69606   0.13348   0.62129   0.00000  Uiso   1.00
H24    H     0.01232   0.24582   0.71185   0.00000  Uiso   1.00
H25    H     0.18975   0.16423   0.68432   0.00000  Uiso   1.00
H26    H     0.01058   0.42794   0.73505   0.00000  Uiso   1.00
H27    H     0.84533   0.14039   0.73023   0.00000  Uiso   1.00
H28    H     0.37273   0.08160   0.63165   0.00000  Uiso   1.00
H29    H     0.99490   0.63766   0.73861   0.00000  Uiso   1.00
H30    H     0.64644   0.03130   0.72846   0.00000  Uiso   1.00
H31    H     0.90633   0.30592   0.54111   0.00000  Uiso   1.00
H32    H     0.07795   0.22763   0.50421   0.00000  Uiso   1.00
H33    H     0.89878   0.49135   0.55494   0.00000  Uiso   1.00
H34    H     0.73353   0.20379   0.55013   0.00000  Uiso   1.00
H35    H     0.28199   0.13306   0.48547   0.00000  Uiso   1.00
H36    H     0.90415   0.68913   0.59243   0.00000  Uiso   1.00
H37    H     0.55570   0.08276   0.58228   0.00000  Uiso   1.00
O38    O     0.44219   0.05477   0.53737   0.00000  Uiso   1.00
O39    O     0.94646   0.78430   0.67770   0.00000  Uiso   1.00
O40    O     0.48930   0.98876   0.66439   0.00000  Uiso   1.00
N41    N     0.32782   0.10444   0.60231   0.00000  Uiso   1.00
N42    N     0.97458   0.62433   0.70231   0.00000  Uiso   1.00
N43    N     0.64878   0.05745   0.69283   0.00000  Uiso   1.00
N44    N     0.27899   0.13213   0.52365   0.00000  Uiso   1.00
N45    N     0.92575   0.65202   0.62365   0.00000  Uiso   1.00
N46    N     0.59996   0.08514   0.61417   0.00000  Uiso   1.00
C47    C     0.73585   0.29686   0.32571   0.00000  Uiso   1.00
C48    C     0.65597   0.23240   0.35345   0.00000  Uiso   1.00
C49    C     0.56233   0.19512   0.33301   0.00000  Uiso   1.00
C50    C     0.50004   0.13770   0.36457   0.00000  Uiso   1.00
C51    C     0.37137   0.04060   0.40002   0.00000  Uiso   1.00
C52    C     0.74636   0.38822   0.35774   0.00000  Uiso   1.00
C53    C     0.72873   0.48196   0.34090   0.00000  Uiso   1.00
C54    C     0.74254   0.55572   0.37608   0.00000  Uiso   1.00
C55    C     0.75427   0.70055   0.41818   0.00000  Uiso   1.00
C56    C     0.84351   0.24549   0.32926   0.00000  Uiso   1.00
C57    C     0.90758   0.21925   0.28847   0.00000  Uiso   1.00
C58    C     0.00320   0.17285   0.29967   0.00000  Uiso   1.00
C59    C     0.16578   0.09607   0.29754   0.00000  Uiso   1.00
C60    C     0.79174   0.26116   0.41810   0.00000  Uiso   1.00
C61    C     0.68633   0.21301   0.40364   0.00000  Uiso   1.00
C62    C     0.62417   0.15563   0.43524   0.00000  Uiso   1.00
C63    C     0.53045   0.11827   0.41485   0.00000  Uiso   1.00
C64    C     0.77671   0.36884   0.40792   0.00000  Uiso   1.00
C65    C     0.79056   0.44247   0.44313   0.00000  Uiso   1.00
C66    C     0.77295   0.53630   0.42635   0.00000  Uiso   1.00
C67    C     0.87387   0.22610   0.37944   0.00000  Uiso   1.00
C68    C     0.96941   0.17975   0.39070   0.00000  Uiso   1.00
C69    C     0.03362   0.15343   0.34994   0.00000  Uiso   1.00
H70    H     0.71221   0.31196   0.28664   0.00000  Uiso   1.00
H71    H     0.53886   0.21015   0.29417   0.00000  Uiso   1.00
H72    H     0.70524   0.49695   0.30206   0.00000  Uiso   1.00
H73    H     0.88406   0.23426   0.24964   0.00000  Uiso   1.00
H74    H     0.36004   0.08876   0.32466   0.00000  Uiso   1.00
H75    H     0.71090   0.69348   0.34130   0.00000  Uiso   1.00
H76    H     0.08798   0.13957   0.23076   0.00000  Uiso   1.00
H77    H     0.81538   0.24607   0.45718   0.00000  Uiso   1.00
H78    H     0.64768   0.14064   0.47407   0.00000  Uiso   1.00
H79    H     0.81406   0.42744   0.48196   0.00000  Uiso   1.00
H80    H     0.99288   0.16476   0.42954   0.00000  Uiso   1.00
H81    H     0.44836   0.03234   0.47068   0.00000  Uiso   1.00
H82    H     0.79922   0.63707   0.48731   0.00000  Uiso   1.00
H83    H     0.17630   0.08315   0.37677   0.00000  Uiso   1.00
O84    O     0.29200   0.99241   0.40571   0.00000  Uiso   1.00
O85    O     0.75234   0.78579   0.42753   0.00000  Uiso   1.00
O86    O     0.24705   0.05906   0.28250   0.00000  Uiso   1.00
N87    N     0.40385   0.08993   0.35671   0.00000  Uiso   1.00
N88    N     0.73186   0.65532   0.37226   0.00000  Uiso   1.00
N89    N     0.08442   0.13747   0.26891   0.00000  Uiso   1.00
N90    N     0.45137   0.05957   0.43527   0.00000  Uiso   1.00
N91    N     0.77939   0.62496   0.45083   0.00000  Uiso   1.00
N92    N     0.13194   0.10712   0.34748   0.00000  Uiso   1.00
C93    C     0.01196   0.74042   0.17273   0.00000  Uiso   1.00
C94    C     0.93026   0.77642   0.13410   0.00000  Uiso   1.00
C95    C     0.83436   0.82211   0.14543   0.00000  Uiso   1.00
C96    C     0.77067   0.84951   0.10470   0.00000  Uiso   1.00
C97    C     0.63904   0.90806   0.05236   0.00000  Uiso   1.00
C98    C     0.02760   0.63313   0.16166   0.00000  Uiso   1.00
C99    C     0.01355   0.55834   0.19617   0.00000  Uiso   1.00
C100   C     0.03181   0.46513   0.17863   0.00000  Uiso   1.00
C101   C     0.05138   0.30122   0.16908   0.00000  Uiso   1.00
C102   C     0.11737   0.78937   0.15904   0.00000  Uiso   1.00
C103   C     0.17883   0.84594   0.19136   0.00000  Uiso   1.00
C104   C     0.27269   0.88425   0.17162   0.00000  Uiso   1.00
C105   C     0.43165   0.96294   0.15801   0.00000  Uiso   1.00
C106   C     0.06939   0.70785   0.08023   0.00000  Uiso   1.00
C107   C     0.96145   0.75873   0.08386   0.00000  Uiso   1.00
C108   C     0.89789   0.78607   0.04309   0.00000  Uiso   1.00
C109   C     0.80192   0.83179   0.05436   0.00000  Uiso   1.00
C110   C     0.05879   0.61544   0.11141   0.00000  Uiso   1.00
C111   C     0.07708   0.52231   0.09382   0.00000  Uiso   1.00
C112   C     0.06306   0.44740   0.12829   0.00000  Uiso   1.00
C113   C     0.14857   0.77169   0.10880   0.00000  Uiso   1.00
C114   C     0.24236   0.80991   0.08901   0.00000  Uiso   1.00
C115   C     0.30394   0.86652   0.12129   0.00000  Uiso   1.00
H116   H     0.98768   0.75418   0.21185   0.00000  Uiso   1.00
H117   H     0.81025   0.83577   0.18432   0.00000  Uiso   1.00
H118   H     0.98942   0.57206   0.23505   0.00000  Uiso   1.00
H119   H     0.15467   0.85961   0.23023   0.00000  Uiso   1.00
H120   H     0.62727   0.91840   0.13165   0.00000  Uiso   1.00
H121   H     0.00510   0.36234   0.23861   0.00000  Uiso   1.00
H122   H     0.35356   0.96870   0.22846   0.00000  Uiso   1.00
H123   H     0.09367   0.69408   0.04111   0.00000  Uiso   1.00
H124   H     0.92205   0.77237   0.00421   0.00000  Uiso   1.00
H125   H     0.10122   0.50865   0.05494   0.00000  Uiso   1.00
H126   H     0.26647   0.79621   0.05013   0.00000  Uiso   1.00
H127   H     0.71801   0.86694   0.98547   0.00000  Uiso   1.00
H128   H     0.09585   0.31087   0.09243   0.00000  Uiso   1.00
H129   H     0.44430   0.91724   0.08228   0.00000  Uiso   1.00
O130   O     0.55781   0.94523   0.03737   0.00000  Uiso   1.00
O131   O     0.05354   0.21570   0.17770   0.00000  Uiso   1.00
O132   O     0.51070   0.01124   0.16439   0.00000  Uiso   1.00
N133   N     0.67218   0.89556   0.10231   0.00000  Uiso   1.00
N134   N     0.02542   0.37567   0.20231   0.00000  Uiso   1.00
N135   N     0.35122   0.94255   0.19283   0.00000  Uiso   1.00
N136   N     0.72101   0.86787   0.02365   0.00000  Uiso   1.00
N137   N     0.07425   0.34798   0.12365   0.00000  Uiso   1.00
N138   N     0.40004   0.91486   0.11417   0.00000  Uiso   1.00
C139   C     0.26415   0.70314   0.82571   0.00000  Uiso   1.00
C140   C     0.34403   0.76760   0.85345   0.00000  Uiso   1.00
C141   C     0.43767   0.80488   0.83301   0.00000  Uiso   1.00
C142   C     0.49996   0.86230   0.86457   0.00000  Uiso   1.00
C143   C     0.62863   0.95940   0.90002   0.00000  Uiso   1.00
C144   C     0.25364   0.61178   0.85774   0.00000  Uiso   1.00
C145   C     0.27127   0.51804   0.84090   0.00000  Uiso   1.00
C146   C     0.25746   0.44428   0.87608   0.00000  Uiso   1.00
C147   C     0.24573   0.29945   0.91818   0.00000  Uiso   1.00
C148   C     0.15649   0.75451   0.82926   0.00000  Uiso   1.00
C149   C     0.09242   0.78075   0.78847   0.00000  Uiso   1.00
C150   C     0.99680   0.82715   0.79967   0.00000  Uiso   1.00
C151   C     0.83422   0.90393   0.79754   0.00000  Uiso   1.00
C152   C     0.20826   0.73884   0.91810   0.00000  Uiso   1.00
C153   C     0.31367   0.78699   0.90364   0.00000  Uiso   1.00
C154   C     0.37583   0.84437   0.93524   0.00000  Uiso   1.00
C155   C     0.46955   0.88173   0.91485   0.00000  Uiso   1.00
C156   C     0.22329   0.63116   0.90792   0.00000  Uiso   1.00
C157   C     0.20944   0.55753   0.94313   0.00000  Uiso   1.00
C158   C     0.22705   0.46370   0.92635   0.00000  Uiso   1.00
C159   C     0.12613   0.77390   0.87944   0.00000  Uiso   1.00
C160   C     0.03059   0.82025   0.89070   0.00000  Uiso   1.00
C161   C     0.96638   0.84657   0.84994   0.00000  Uiso   1.00
H162   H     0.28779   0.68804   0.78664   0.00000  Uiso   1.00
H163   H     0.46114   0.78985   0.79417   0.00000  Uiso   1.00
H164   H     0.29476   0.50305   0.80206   0.00000  Uiso   1.00
H165   H     0.11594   0.76574   0.74964   0.00000  Uiso   1.00
H166   H     0.63996   0.91124   0.82466   0.00000  Uiso   1.00
H167   H     0.28910   0.30652   0.84130   0.00000  Uiso   1.00
H168   H     0.91202   0.86043   0.73076   0.00000  Uiso   1.00
H169   H     0.18462   0.75393   0.95718   0.00000  Uiso   1.00
H170   H     0.35232   0.85936   0.97407   0.00000  Uiso   1.00
H171   H     0.18594   0.57256   0.98196   0.00000  Uiso   1.00
H172   H     0.00712   0.83524   0.92954   0.00000  Uiso   1.00
H173   H     0.55164   0.96766   0.97068   0.00000  Uiso   1.00
H174   H     0.20078   0.36293   0.98731   0.00000  Uiso   1.00
H175   H     0.82370   0.91685   0.87677   0.00000  Uiso   1.00
O176   O     0.70800   0.00759   0.90571   0.00000  Uiso   1.00
O177   O     0.24766   0.21421   0.92753   0.00000  Uiso   1.00
O178   O     0.75295   0.94094   0.78250   0.00000  Uiso   1.00
N179   N     0.59615   0.91007   0.85671   0.00000  Uiso   1.00
N180   N     0.26814   0.34468   0.87226   0.00000  Uiso   1.00
N181   N     0.91558   0.86253   0.76891   0.00000  Uiso   1.00
N182   N     0.54863   0.94043   0.93527   0.00000  Uiso   1.00
N183   N     0.22061   0.37504   0.95083   0.00000  Uiso   1.00
N184   N     0.86806   0.89288   0.84748   0.00000  Uiso   1.00
C185   C     0.48804   0.74042   0.67273   0.00000  Uiso   1.00
C186   C     0.56974   0.77642   0.63410   0.00000  Uiso   1.00
C187   C     0.66564   0.82211   0.64543   0.00000  Uiso   1.00
C188   C     0.72933   0.84951   0.60470   0.00000  Uiso   1.00
C189   C     0.86096   0.90806   0.55236   0.00000  Uiso   1.00
C190   C     0.47240   0.63313   0.66166   0.00000  Uiso   1.00
C191   C     0.48645   0.55834   0.69617   0.00000  Uiso   1.00
C192   C     0.46819   0.46513   0.67863   0.00000  Uiso   1.00
C193   C     0.44862   0.30122   0.66908   0.00000  Uiso   1.00
C194   C     0.38263   0.78937   0.65904   0.00000  Uiso   1.00
C195   C     0.32117   0.84594   0.69136   0.00000  Uiso   1.00
C196   C     0.22731   0.88425   0.67162   0.00000  Uiso   1.00
C197   C     0.06835   0.96294   0.65801   0.00000  Uiso   1.00
C198   C     0.43061   0.70785   0.58023   0.00000  Uiso   1.00
C199   C     0.53855   0.75873   0.58386   0.00000  Uiso   1.00
C200   C     0.60211   0.78607   0.54309   0.00000  Uiso   1.00
C201   C     0.69808   0.83179   0.55436   0.00000  Uiso   1.00
C202   C     0.44121   0.61544   0.61141   0.00000  Uiso   1.00
C203   C     0.42292   0.52231   0.59382   0.00000  Uiso   1.00
C204   C     0.43694   0.44740   0.62829   0.00000  Uiso   1.00
C205   C     0.35143   0.77169   0.60880   0.00000  Uiso   1.00
C206   C     0.25764   0.80991   0.58901   0.00000  Uiso   1.00
C207   C     0.19606   0.86652   0.62129   0.00000  Uiso   1.00
H208   H     0.51232   0.75418   0.71185   0.00000  Uiso   1.00
H209   H     0.68975   0.83577   0.68432   0.00000  Uiso   1.00
H210   H     0.51058   0.57206   0.73505   0.00000  Uiso   1.00
H211   H     0.34533   0.85961   0.73023   0.00000  Uiso   1.00
H212   H     0.87273   0.91840   0.63165   0.00000  Uiso   1.00
H213   H     0.49490   0.36234   0.73861   0.00000  Uiso   1.00
H214   H     0.14644   0.96870   0.72846   0.00000  Uiso   1.00
H215   H     0.40633   0.69408   0.54111   0.00000  Uiso   1.00
H216   H     0.57795   0.77237   0.50421   0.00000  Uiso   1.00
H217   H     0.39878   0.50865   0.55494   0.00000  Uiso   1.00
H218   H     0.23353   0.79621   0.55013   0.00000  Uiso   1.00
H219   H     0.78199   0.86694   0.48547   0.00000  Uiso   1.00
H220   H     0.40415   0.31087   0.59243   0.00000  Uiso   1.00
H221   H     0.05570   0.91724   0.58228   0.00000  Uiso   1.00
O222   O     0.94219   0.94523   0.53737   0.00000  Uiso   1.00
O223   O     0.44646   0.21570   0.67770   0.00000  Uiso   1.00
O224   O     0.98930   0.01124   0.66439   0.00000  Uiso   1.00
N225   N     0.82782   0.89556   0.60231   0.00000  Uiso   1.00
N226   N     0.47458   0.37567   0.70231   0.00000  Uiso   1.00
N227   N     0.14878   0.94255   0.69283   0.00000  Uiso   1.00
N228   N     0.77899   0.86787   0.52365   0.00000  Uiso   1.00
N229   N     0.42575   0.34798   0.62365   0.00000  Uiso   1.00
N230   N     0.09996   0.91486   0.61417   0.00000  Uiso   1.00
C231   C     0.23585   0.70314   0.32571   0.00000  Uiso   1.00
C232   C     0.15597   0.76760   0.35345   0.00000  Uiso   1.00
C233   C     0.06233   0.80488   0.33301   0.00000  Uiso   1.00
C234   C     0.00004   0.86230   0.36457   0.00000  Uiso   1.00
C235   C     0.87137   0.95940   0.40002   0.00000  Uiso   1.00
C236   C     0.24636   0.61178   0.35774   0.00000  Uiso   1.00
C237   C     0.22873   0.51804   0.34090   0.00000  Uiso   1.00
C238   C     0.24254   0.44428   0.37608   0.00000  Uiso   1.00
C239   C     0.25427   0.29945   0.41818   0.00000  Uiso   1.00
C240   C     0.34351   0.75451   0.32926   0.00000  Uiso   1.00
C241   C     0.40758   0.78075   0.28847   0.00000  Uiso   1.00
C242   C     0.50320   0.82715   0.29967   0.00000  Uiso   1.00
C243   C     0.66578   0.90393   0.29754   0.00000  Uiso   1.00
C244   C     0.29174   0.73884   0.41810   0.00000  Uiso   1.00
C245   C     0.18633   0.78699   0.40364   0.00000  Uiso   1.00
C246   C     0.12417   0.84437   0.43524   0.00000  Uiso   1.00
C247   C     0.03045   0.88173   0.41485   0.00000  Uiso   1.00
C248   C     0.27671   0.63116   0.40792   0.00000  Uiso   1.00
C249   C     0.29056   0.55753   0.44313   0.00000  Uiso   1.00
C250   C     0.27295   0.46370   0.42635   0.00000  Uiso   1.00
C251   C     0.37387   0.77390   0.37944   0.00000  Uiso   1.00
C252   C     0.46941   0.82025   0.39070   0.00000  Uiso   1.00
C253   C     0.53362   0.84657   0.34994   0.00000  Uiso   1.00
H254   H     0.21221   0.68804   0.28664   0.00000  Uiso   1.00
H255   H     0.03886   0.78985   0.29417   0.00000  Uiso   1.00
H256   H     0.20524   0.50305   0.30206   0.00000  Uiso   1.00
H257   H     0.38406   0.76574   0.24964   0.00000  Uiso   1.00
H258   H     0.86004   0.91124   0.32466   0.00000  Uiso   1.00
H259   H     0.21090   0.30652   0.34130   0.00000  Uiso   1.00
H260   H     0.58798   0.86043   0.23076   0.00000  Uiso   1.00
H261   H     0.31538   0.75393   0.45718   0.00000  Uiso   1.00
H262   H     0.14768   0.85936   0.47407   0.00000  Uiso   1.00
H263   H     0.31406   0.57256   0.48196   0.00000  Uiso   1.00
H264   H     0.49288   0.83524   0.42954   0.00000  Uiso   1.00
H265   H     0.94836   0.96766   0.47068   0.00000  Uiso   1.00
H266   H     0.29922   0.36293   0.48731   0.00000  Uiso   1.00
H267   H     0.67630   0.91685   0.37677   0.00000  Uiso   1.00
O268   O     0.79200   0.00759   0.40571   0.00000  Uiso   1.00
O269   O     0.25234   0.21421   0.42753   0.00000  Uiso   1.00
O270   O     0.74705   0.94094   0.28250   0.00000  Uiso   1.00
N271   N     0.90385   0.91007   0.35671   0.00000  Uiso   1.00
N272   N     0.23186   0.34468   0.37226   0.00000  Uiso   1.00
N273   N     0.58442   0.86253   0.26891   0.00000  Uiso   1.00
N274   N     0.95137   0.94043   0.43527   0.00000  Uiso   1.00
N275   N     0.27939   0.37504   0.45083   0.00000  Uiso   1.00
N276   N     0.63194   0.89288   0.34748   0.00000  Uiso   1.00
C277   C     0.51196   0.25958   0.17273   0.00000  Uiso   1.00
C278   C     0.43026   0.22358   0.13410   0.00000  Uiso   1.00
C279   C     0.33436   0.17789   0.14543   0.00000  Uiso   1.00
C280   C     0.27067   0.15049   0.10470   0.00000  Uiso   1.00
C281   C     0.13904   0.09194   0.05236   0.00000  Uiso   1.00
C282   C     0.52760   0.36687   0.16166   0.00000  Uiso   1.00
C283   C     0.51355   0.44166   0.19617   0.00000  Uiso   1.00
C284   C     0.53181   0.53487   0.17863   0.00000  Uiso   1.00
C285   C     0.55138   0.69878   0.16908   0.00000  Uiso   1.00
C286   C     0.61737   0.21063   0.15904   0.00000  Uiso   1.00
C287   C     0.67883   0.15406   0.19136   0.00000  Uiso   1.00
C288   C     0.77269   0.11575   0.17162   0.00000  Uiso   1.00
C289   C     0.93165   0.03706   0.15801   0.00000  Uiso   1.00
C290   C     0.56939   0.29215   0.08023   0.00000  Uiso   1.00
C291   C     0.46145   0.24127   0.08386   0.00000  Uiso   1.00
C292   C     0.39789   0.21393   0.04309   0.00000  Uiso   1.00
C293   C     0.30192   0.16821   0.05436   0.00000  Uiso   1.00
C294   C     0.55879   0.38456   0.11141   0.00000  Uiso   1.00
C295   C     0.57708   0.47769   0.09382   0.00000  Uiso   1.00
C296   C     0.56306   0.55260   0.12829   0.00000  Uiso   1.00
C297   C     0.64857   0.22831   0.10880   0.00000  Uiso   1.00
C298   C     0.74236   0.19009   0.08901   0.00000  Uiso   1.00
C299   C     0.80394   0.13348   0.12129   0.00000  Uiso   1.00
H300   H     0.48768   0.24582   0.21185   0.00000  Uiso   1.00
H301   H     0.31025   0.16423   0.18432   0.00000  Uiso   1.00
H302   H     0.48942   0.42794   0.23505   0.00000  Uiso   1.00
H303   H     0.65467   0.14039   0.23023   0.00000  Uiso   1.00
H304   H     0.12727   0.08160   0.13165   0.00000  Uiso   1.00
H305   H     0.50510   0.63766   0.23861   0.00000  Uiso   1.00
H306   H     0.85356   0.03130   0.22846   0.00000  Uiso   1.00
H307   H     0.59367   0.30592   0.04111   0.00000  Uiso   1.00
H308   H     0.42205   0.22763   0.00421   0.00000  Uiso   1.00
H309   H     0.60122   0.49135   0.05494   0.00000  Uiso   1.00
H310   H     0.76647   0.20379   0.05013   0.00000  Uiso   1.00
H311   H     0.21801   0.13306   0.98547   0.00000  Uiso   1.00
H312   H     0.59585   0.68913   0.09243   0.00000  Uiso   1.00
H313   H     0.94430   0.08276   0.08228   0.00000  Uiso   1.00
O314   O     0.05781   0.05477   0.03737   0.00000  Uiso   1.00
O315   O     0.55354   0.78430   0.17770   0.00000  Uiso   1.00
O316   O     0.01070   0.98876   0.16439   0.00000  Uiso   1.00
N317   N     0.17218   0.10444   0.10231   0.00000  Uiso   1.00
N318   N     0.52542   0.62433   0.20231   0.00000  Uiso   1.00
N319   N     0.85122   0.05745   0.19283   0.00000  Uiso   1.00
N320   N     0.22101   0.13213   0.02365   0.00000  Uiso   1.00
N321   N     0.57425   0.65202   0.12365   0.00000  Uiso   1.00
N322   N     0.90004   0.08514   0.11417   0.00000  Uiso   1.00
C323   C     0.76415   0.29686   0.82571   0.00000  Uiso   1.00
C324   C     0.84403   0.23240   0.85345   0.00000  Uiso   1.00
C325   C     0.93767   0.19512   0.83301   0.00000  Uiso   1.00
C326   C     0.99996   0.13770   0.86457   0.00000  Uiso   1.00
C327   C     0.12863   0.04060   0.90002   0.00000  Uiso   1.00
C328   C     0.75364   0.38822   0.85774   0.00000  Uiso   1.00
C329   C     0.77127   0.48196   0.84090   0.00000  Uiso   1.00
C330   C     0.75746   0.55572   0.87608   0.00000  Uiso   1.00
C331   C     0.74573   0.70055   0.91818   0.00000  Uiso   1.00
C332   C     0.65649   0.24549   0.82926   0.00000  Uiso   1.00
C333   C     0.59242   0.21925   0.78847   0.00000  Uiso   1.00
C334   C     0.49680   0.17285   0.79967   0.00000  Uiso   1.00
C335   C     0.33422   0.09607   0.79754   0.00000  Uiso   1.00
C336   C     0.70826   0.26116   0.91810   0.00000  Uiso   1.00
C337   C     0.81367   0.21301   0.90364   0.00000  Uiso   1.00
C338   C     0.87583   0.15563   0.93524   0.00000  Uiso   1.00
C339   C     0.96955   0.11827   0.91485   0.00000  Uiso   1.00
C340   C     0.72329   0.36884   0.90792   0.00000  Uiso   1.00
C341   C     0.70944   0.44247   0.94313   0.00000  Uiso   1.00
C342   C     0.72705   0.53630   0.92635   0.00000  Uiso   1.00
C343   C     0.62613   0.22610   0.87944   0.00000  Uiso   1.00
C344   C     0.53059   0.17975   0.89070   0.00000  Uiso   1.00
C345   C     0.46638   0.15343   0.84994   0.00000  Uiso   1.00
H346   H     0.78779   0.31196   0.78664   0.00000  Uiso   1.00
H347   H     0.96114   0.21015   0.79417   0.00000  Uiso   1.00
H348   H     0.79476   0.49695   0.80206   0.00000  Uiso   1.00
H349   H     0.61594   0.23426   0.74964   0.00000  Uiso   1.00
H350   H     0.13996   0.08876   0.82466   0.00000  Uiso   1.00
H351   H     0.78910   0.69348   0.84130   0.00000  Uiso   1.00
H352   H     0.41202   0.13957   0.73076   0.00000  Uiso   1.00
H353   H     0.68462   0.24607   0.95718   0.00000  Uiso   1.00
H354   H     0.85232   0.14064   0.97407   0.00000  Uiso   1.00
H355   H     0.68594   0.42744   0.98196   0.00000  Uiso   1.00
H356   H     0.50712   0.16476   0.92954   0.00000  Uiso   1.00
H357   H     0.05164   0.03234   0.97068   0.00000  Uiso   1.00
H358   H     0.70078   0.63707   0.98731   0.00000  Uiso   1.00
H359   H     0.32370   0.08315   0.87677   0.00000  Uiso   1.00
O360   O     0.20800   0.99241   0.90571   0.00000  Uiso   1.00
O361   O     0.74766   0.78579   0.92753   0.00000  Uiso   1.00
O362   O     0.25295   0.05906   0.78250   0.00000  Uiso   1.00
N363   N     0.09615   0.08993   0.85671   0.00000  Uiso   1.00
N364   N     0.76814   0.65532   0.87226   0.00000  Uiso   1.00
N365   N     0.41558   0.13747   0.76891   0.00000  Uiso   1.00
N366   N     0.04863   0.05957   0.93527   0.00000  Uiso   1.00
N367   N     0.72061   0.62496   0.95083   0.00000  Uiso   1.00
N368   N     0.36806   0.10712   0.84748   0.00000  Uiso   1.00
