data_job_06575
_audit_creation_date              2018-12-19
_audit_creation_method            'Materials Studio'
_symmetry_space_group_name_H-M    'P1'
_symmetry_Int_Tables_number       1
_symmetry_cell_setting            triclinic
loop_
_symmetry_equiv_pos_as_xyz
  x,y,z
_cell_length_a                    19.5517
_cell_length_b                    20.6363
_cell_length_c                    21.6019
_cell_angle_alpha                 104.5746
_cell_angle_beta                  88.0365
_cell_angle_gamma                 67.8805
loop_
_atom_site_label
_atom_site_type_symbol
_atom_site_fract_x
_atom_site_fract_y
_atom_site_fract_z
_atom_site_U_iso_or_equiv
_atom_site_adp_type
_atom_site_occupancy
C1     C     0.96521   0.70087   0.78061   0.00000  Uiso   1.00
C2     C     0.89172   0.76792   0.80087   0.00000  Uiso   1.00
C3     C     0.87939   0.83580   0.79264   0.00000  Uiso   1.00
C4     C     0.80826   0.89009   0.81445   0.00000  Uiso   1.00
C5     C     0.70278   0.99622   0.84154   0.00000  Uiso   1.00
C6     C     0.98455   0.67739   0.84151   0.00000  Uiso   1.00
C7     C     0.05027   0.66915   0.86743   0.00000  Uiso   1.00
C8     C     0.05728   0.64723   0.92344   0.00000  Uiso   1.00
C9     C     0.09594   0.61275   0.01359   0.00000  Uiso   1.00
C10    C     0.94782   0.64067   0.73603   0.00000  Uiso   1.00
C11    C     0.98267   0.60152   0.67326   0.00000  Uiso   1.00
C12    C     0.95876   0.54866   0.64047   0.00000  Uiso   1.00
C13    C     0.94039   0.45717   0.56684   0.00000  Uiso   1.00
C14    C     0.86081   0.67659   0.83399   0.00000  Uiso   1.00
C15    C     0.83502   0.75473   0.82987   0.00000  Uiso   1.00
C16    C     0.76388   0.80893   0.85170   0.00000  Uiso   1.00
C17    C     0.75144   0.87688   0.84349   0.00000  Uiso   1.00
C18    C     0.92784   0.66420   0.87050   0.00000  Uiso   1.00
C19    C     0.93476   0.64228   0.92649   0.00000  Uiso   1.00
C20    C     0.00047   0.63401   0.95249   0.00000  Uiso   1.00
C21    C     0.89111   0.62748   0.76502   0.00000  Uiso   1.00
C22    C     0.86715   0.57466   0.73232   0.00000  Uiso   1.00
C23    C     0.90195   0.53545   0.66952   0.00000  Uiso   1.00
H24    H     0.00936   0.71114   0.75803   0.00000  Uiso   1.00
H25    H     0.92329   0.84599   0.77020   0.00000  Uiso   1.00
H26    H     0.09415   0.67935   0.84498   0.00000  Uiso   1.00
H27    H     0.02655   0.61174   0.65084   0.00000  Uiso   1.00
H28    H     0.80287   0.98968   0.79650   0.00000  Uiso   1.00
H29    H     0.16313   0.63830   0.95415   0.00000  Uiso   1.00
H30    H     0.02059   0.49573   0.54478   0.00000  Uiso   1.00
H31    H     0.81666   0.66632   0.85656   0.00000  Uiso   1.00
H32    H     0.72001   0.79871   0.87414   0.00000  Uiso   1.00
H33    H     0.89086   0.63208   0.94891   0.00000  Uiso   1.00
H34    H     0.82326   0.56447   0.75478   0.00000  Uiso   1.00
H35    H     0.63787   0.95131   0.88086   0.00000  Uiso   1.00
H36    H     0.99814   0.59993   0.03851   0.00000  Uiso   1.00
H37    H     0.85559   0.45736   0.62914   0.00000  Uiso   1.00
O38    O     0.66028   0.05840   0.84848   0.00000  Uiso   1.00
O39    O     0.13293   0.59739   0.05531   0.00000  Uiso   1.00
O40    O     0.94592   0.41035   0.51822   0.00000  Uiso   1.00
N41    N     0.77730   0.96248   0.81393   0.00000  Uiso   1.00
N42    N     0.11412   0.63397   0.96133   0.00000  Uiso   1.00
N43    N     0.98087   0.50066   0.57861   0.00000  Uiso   1.00
N44    N     0.68851   0.94183   0.85932   0.00000  Uiso   1.00
N45    N     0.02533   0.61332   0.00672   0.00000  Uiso   1.00
N46    N     0.89208   0.48002   0.62400   0.00000  Uiso   1.00
C47    C     0.29014   0.61524   0.77778   0.00000  Uiso   1.00
C48    C     0.30017   0.55914   0.81483   0.00000  Uiso   1.00
C49    C     0.24539   0.53732   0.83295   0.00000  Uiso   1.00
C50    C     0.26567   0.48536   0.86660   0.00000  Uiso   1.00
C51    C     0.27021   0.40270   0.92189   0.00000  Uiso   1.00
C52    C     0.31267   0.67331   0.81957   0.00000  Uiso   1.00
C53    C     0.26841   0.74749   0.84165   0.00000  Uiso   1.00
C54    C     0.29923   0.79163   0.87927   0.00000  Uiso   1.00
C55    C     0.32319   0.88623   0.94187   0.00000  Uiso   1.00
C56    C     0.34902   0.57661   0.71783   0.00000  Uiso   1.00
C57    C     0.33533   0.56949   0.65437   0.00000  Uiso   1.00
C58    C     0.39676   0.53222   0.60634   0.00000  Uiso   1.00
C59    C     0.47717   0.47668   0.51097   0.00000  Uiso   1.00
C60    C     0.42358   0.56174   0.80533   0.00000  Uiso   1.00
C61    C     0.37264   0.53009   0.82980   0.00000  Uiso   1.00
C62    C     0.39302   0.47814   0.86343   0.00000  Uiso   1.00
C63    C     0.33828   0.45624   0.88159   0.00000  Uiso   1.00
C64    C     0.38515   0.64426   0.83453   0.00000  Uiso   1.00
C65    C     0.41604   0.68830   0.87213   0.00000  Uiso   1.00
C66    C     0.37184   0.76252   0.89427   0.00000  Uiso   1.00
C67    C     0.42150   0.54755   0.73279   0.00000  Uiso   1.00
C68    C     0.48297   0.51030   0.68485   0.00000  Uiso   1.00
C69    C     0.46937   0.50312   0.62133   0.00000  Uiso   1.00
H70    H     0.23371   0.63787   0.76613   0.00000  Uiso   1.00
H71    H     0.18930   0.55983   0.82136   0.00000  Uiso   1.00
H72    H     0.21233   0.76996   0.83005   0.00000  Uiso   1.00
H73    H     0.27924   0.59198   0.64280   0.00000  Uiso   1.00
H74    H     0.17202   0.46052   0.88921   0.00000  Uiso   1.00
H75    H     0.22057   0.90359   0.90752   0.00000  Uiso   1.00
H76    H     0.36167   0.52829   0.51267   0.00000  Uiso   1.00
H77    H     0.48001   0.53912   0.81699   0.00000  Uiso   1.00
H78    H     0.44911   0.45566   0.87501   0.00000  Uiso   1.00
H79    H     0.47213   0.66579   0.88370   0.00000  Uiso   1.00
H80    H     0.53904   0.48782   0.69645   0.00000  Uiso   1.00
H81    H     0.38289   0.37597   0.93276   0.00000  Uiso   1.00
H82    H     0.43144   0.81905   0.95107   0.00000  Uiso   1.00
H83    H     0.57254   0.44375   0.55621   0.00000  Uiso   1.00
O84    O     0.25268   0.36514   0.94825   0.00000  Uiso   1.00
O85    O     0.31638   0.94644   0.97226   0.00000  Uiso   1.00
O86    O     0.50150   0.45406   0.45423   0.00000  Uiso   1.00
N87    N     0.22589   0.45206   0.89149   0.00000  Uiso   1.00
N88    N     0.27128   0.86631   0.90861   0.00000  Uiso   1.00
N89    N     0.40320   0.51545   0.53946   0.00000  Uiso   1.00
N90    N     0.33936   0.40657   0.91492   0.00000  Uiso   1.00
N91    N     0.38475   0.82081   0.93204   0.00000  Uiso   1.00
N92    N     0.51667   0.46996   0.56289   0.00000  Uiso   1.00
C93    C     0.00666   0.00167   0.76966   0.00000  Uiso   1.00
C94    C     0.07329   0.02079   0.78596   0.00000  Uiso   1.00
C95    C     0.14626   0.97112   0.78044   0.00000  Uiso   1.00
C96    C     0.19918   0.99954   0.79777   0.00000  Uiso   1.00
C97    C     0.30560   0.01775   0.81974   0.00000  Uiso   1.00
C98    C     0.94942   0.03836   0.83077   0.00000  Uiso   1.00
C99    C     0.91824   0.00345   0.86291   0.00000  Uiso   1.00
C100   C     0.86688   0.04666   0.91796   0.00000  Uiso   1.00
C101   C     0.78094   0.09216   0.00947   0.00000  Uiso   1.00
C102   C     0.97274   0.04099   0.72010   0.00000  Uiso   1.00
C103   C     0.96114   0.00831   0.65920   0.00000  Uiso   1.00
C104   C     0.92939   0.05374   0.62108   0.00000  Uiso   1.00
C105   C     0.87966   0.10332   0.54076   0.00000  Uiso   1.00
C106   C     0.97088   0.14047   0.81026   0.00000  Uiso   1.00
C107   C     0.05386   0.09618   0.80801   0.00000  Uiso   1.00
C108   C     0.10668   0.12469   0.82535   0.00000  Uiso   1.00
C109   C     0.17972   0.07506   0.81985   0.00000  Uiso   1.00
C110   C     0.92999   0.11374   0.85282   0.00000  Uiso   1.00
C111   C     0.87865   0.15702   0.90782   0.00000  Uiso   1.00
C112   C     0.84741   0.12219   0.94005   0.00000  Uiso   1.00
C113   C     0.95331   0.11638   0.74215   0.00000  Uiso   1.00
C114   C     0.92156   0.16187   0.70411   0.00000  Uiso   1.00
C115   C     0.90992   0.12927   0.64317   0.00000  Uiso   1.00
H116   H     0.02178   0.94298   0.75250   0.00000  Uiso   1.00
H117   H     0.16128   0.91278   0.76337   0.00000  Uiso   1.00
H118   H     0.93328   0.94511   0.84583   0.00000  Uiso   1.00
H119   H     0.97619   0.94996   0.64215   0.00000  Uiso   1.00
H120   H     0.30736   0.91254   0.78518   0.00000  Uiso   1.00
H121   H     0.82660   0.98072   0.95903   0.00000  Uiso   1.00
H122   H     0.91706   0.99095   0.52953   0.00000  Uiso   1.00
H123   H     0.95575   0.19917   0.82743   0.00000  Uiso   1.00
H124   H     0.09162   0.18303   0.84241   0.00000  Uiso   1.00
H125   H     0.86363   0.21536   0.92487   0.00000  Uiso   1.00
H126   H     0.90653   0.22021   0.72119   0.00000  Uiso   1.00
H127   H     0.25082   0.13189   0.84933   0.00000  Uiso   1.00
H128   H     0.77006   0.20006   0.02318   0.00000  Uiso   1.00
H129   H     0.86052   0.21030   0.59369   0.00000  Uiso   1.00
O130   O     0.36966   0.00697   0.82578   0.00000  Uiso   1.00
O131   O     0.73892   0.09642   0.05386   0.00000  Uiso   1.00
O132   O     0.85760   0.10985   0.49037   0.00000  Uiso   1.00
N133   N     0.27541   0.96638   0.79821   0.00000  Uiso   1.00
N134   N     0.82594   0.03012   0.96075   0.00000  Uiso   1.00
N135   N     0.91049   0.03969   0.55922   0.00000  Uiso   1.00
N136   N     0.24499   0.08441   0.83273   0.00000  Uiso   1.00
N137   N     0.79552   0.14815   0.99527   0.00000  Uiso   1.00
N138   N     0.88007   0.15772   0.59374   0.00000  Uiso   1.00
C139   C     0.33957   0.80174   0.27852   0.00000  Uiso   1.00
C140   C     0.38359   0.74065   0.30718   0.00000  Uiso   1.00
C141   C     0.45794   0.72028   0.31604   0.00000  Uiso   1.00
C142   C     0.48800   0.66305   0.34303   0.00000  Uiso   1.00
C143   C     0.56286   0.57363   0.38490   0.00000  Uiso   1.00
C144   C     0.27195   0.85309   0.32902   0.00000  Uiso   1.00
C145   C     0.25243   0.92727   0.35624   0.00000  Uiso   1.00
C146   C     0.18850   0.96469   0.40162   0.00000  Uiso   1.00
C147   C     0.09001   0.04984   0.47738   0.00000  Uiso   1.00
C148   C     0.30914   0.76664   0.22141   0.00000  Uiso   1.00
C149   C     0.32087   0.76815   0.15816   0.00000  Uiso   1.00
C150   C     0.28824   0.73280   0.11294   0.00000  Uiso   1.00
C151   C     0.24749   0.68373   0.02161   0.00000  Uiso   1.00
C152   C     0.26074   0.73631   0.31070   0.00000  Uiso   1.00
C153   C     0.34077   0.70512   0.32466   0.00000  Uiso   1.00
C154   C     0.37073   0.64790   0.35164   0.00000  Uiso   1.00
C155   C     0.44511   0.62745   0.36054   0.00000  Uiso   1.00
C156   C     0.22913   0.81756   0.34650   0.00000  Uiso   1.00
C157   C     0.16521   0.85488   0.39185   0.00000  Uiso   1.00
C158   C     0.14561   0.92909   0.41914   0.00000  Uiso   1.00
C159   C     0.26632   0.73110   0.23889   0.00000  Uiso   1.00
C160   C     0.23366   0.69576   0.19376   0.00000  Uiso   1.00
C161   C     0.24534   0.69720   0.13045   0.00000  Uiso   1.00
H162   H     0.37290   0.82941   0.26491   0.00000  Uiso   1.00
H163   H     0.49106   0.74780   0.30251   0.00000  Uiso   1.00
H164   H     0.28557   0.95475   0.34270   0.00000  Uiso   1.00
H165   H     0.35401   0.79565   0.14465   0.00000  Uiso   1.00
H166   H     0.60317   0.64168   0.35192   0.00000  Uiso   1.00
H167   H     0.16988   0.07804   0.43666   0.00000  Uiso   1.00
H168   H     0.31418   0.74255   0.01902   0.00000  Uiso   1.00
H169   H     0.22740   0.70865   0.32431   0.00000  Uiso   1.00
H170   H     0.33758   0.62041   0.36517   0.00000  Uiso   1.00
H171   H     0.13209   0.82736   0.40536   0.00000  Uiso   1.00
H172   H     0.20053   0.66826   0.20731   0.00000  Uiso   1.00
H173   H     0.47859   0.53828   0.40278   0.00000  Uiso   1.00
H174   H     0.04530   0.97465   0.48752   0.00000  Uiso   1.00
H175   H     0.18961   0.63916   0.06988   0.00000  Uiso   1.00
O176   O     0.61598   0.53413   0.40318   0.00000  Uiso   1.00
O177   O     0.04751   0.10663   0.51434   0.00000  Uiso   1.00
O178   O     0.23684   0.66647   0.96641   0.00000  Uiso   1.00
N179   N     0.55873   0.62944   0.35827   0.00000  Uiso   1.00
N180   N     0.15364   0.03742   0.43751   0.00000  Uiso   1.00
N181   N     0.28854   0.72378   0.04705   0.00000  Uiso   1.00
N182   N     0.49170   0.57381   0.38564   0.00000  Uiso   1.00
N183   N     0.08661   0.98178   0.46487   0.00000  Uiso   1.00
N184   N     0.22151   0.66814   0.07442   0.00000  Uiso   1.00
C185   C     0.33199   0.09110   0.18723   0.00000  Uiso   1.00
C186   C     0.25772   0.10647   0.22529   0.00000  Uiso   1.00
C187   C     0.23363   0.05420   0.23535   0.00000  Uiso   1.00
C188   C     0.16392   0.07935   0.27151   0.00000  Uiso   1.00
C189   C     0.05530   0.09183   0.32680   0.00000  Uiso   1.00
C190   C     0.37005   0.13112   0.23329   0.00000  Uiso   1.00
C191   C     0.44041   0.09958   0.25007   0.00000  Uiso   1.00
C192   C     0.46526   0.14550   0.29297   0.00000  Uiso   1.00
C193   C     0.53105   0.19627   0.36064   0.00000  Uiso   1.00
C194   C     0.31272   0.13003   0.13487   0.00000  Uiso   1.00
C195   C     0.33490   0.09758   0.06890   0.00000  Uiso   1.00
C196   C     0.31149   0.14258   0.02893   0.00000  Uiso   1.00
C197   C     0.28828   0.19166   0.94379   0.00000  Uiso   1.00
C198   C     0.25102   0.22872   0.23356   0.00000  Uiso   1.00
C199   C     0.21374   0.18121   0.25045   0.00000  Uiso   1.00
C200   C     0.14404   0.20645   0.28660   0.00000  Uiso   1.00
C201   C     0.11985   0.15423   0.29672   0.00000  Uiso   1.00
C202   C     0.32607   0.20586   0.25845   0.00000  Uiso   1.00
C203   C     0.35082   0.25183   0.30133   0.00000  Uiso   1.00
C204   C     0.42120   0.22038   0.31817   0.00000  Uiso   1.00
C205   C     0.26874   0.20478   0.16003   0.00000  Uiso   1.00
C206   C     0.24530   0.24983   0.12016   0.00000  Uiso   1.00
C207   C     0.26743   0.21746   0.05414   0.00000  Uiso   1.00
H208   H     0.36624   0.03292   0.16765   0.00000  Uiso   1.00
H209   H     0.26769   0.99636   0.21588   0.00000  Uiso   1.00
H210   H     0.47443   0.04174   0.23059   0.00000  Uiso   1.00
H211   H     0.36893   0.03974   0.04945   0.00000  Uiso   1.00
H212   H     0.13904   0.98880   0.28046   0.00000  Uiso   1.00
H213   H     0.57499   0.08449   0.31147   0.00000  Uiso   1.00
H214   H     0.35252   0.08027   0.92950   0.00000  Uiso   1.00
H215   H     0.21678   0.28691   0.25315   0.00000  Uiso   1.00
H216   H     0.11002   0.26429   0.30607   0.00000  Uiso   1.00
H217   H     0.31677   0.30967   0.32078   0.00000  Uiso   1.00
H218   H     0.21127   0.30767   0.13964   0.00000  Uiso   1.00
H219   H     0.01108   0.20626   0.35367   0.00000  Uiso   1.00
H220   H     0.44703   0.30195   0.38468   0.00000  Uiso   1.00
H221   H     0.22455   0.29773   0.00270   0.00000  Uiso   1.00
O222   O     0.00754   0.07807   0.35036   0.00000  Uiso   1.00
O223   O     0.57949   0.20362   0.39103   0.00000  Uiso   1.00
O224   O     0.28761   0.19808   0.88988   0.00000  Uiso   1.00
N225   N     0.12357   0.04308   0.29042   0.00000  Uiso   1.00
N226   N     0.53115   0.13255   0.31942   0.00000  Uiso   1.00
N227   N     0.32318   0.12860   0.96230   0.00000  Uiso   1.00
N228   N     0.05471   0.16009   0.32981   0.00000  Uiso   1.00
N229   N     0.46229   0.24956   0.35881   0.00000  Uiso   1.00
N230   N     0.25432   0.24562   0.00169   0.00000  Uiso   1.00
C231   C     0.82055   0.61258   0.26405   0.00000  Uiso   1.00
C232   C     0.79009   0.69520   0.27680   0.00000  Uiso   1.00
C233   C     0.73137   0.73642   0.25025   0.00000  Uiso   1.00
C234   C     0.71193   0.81128   0.26799   0.00000  Uiso   1.00
C235   C     0.65884   0.93464   0.28131   0.00000  Uiso   1.00
C236   C     0.81600   0.59922   0.33007   0.00000  Uiso   1.00
C237   C     0.77907   0.55972   0.34829   0.00000  Uiso   1.00
C238   C     0.78145   0.55377   0.41086   0.00000  Uiso   1.00
C239   C     0.76864   0.52807   0.50687   0.00000  Uiso   1.00
C240   C     0.90345   0.58420   0.23923   0.00000  Uiso   1.00
C241   C     0.94005   0.53206   0.18108   0.00000  Uiso   1.00
C242   C     0.01606   0.51345   0.16717   0.00000  Uiso   1.00
C243   C     0.13901   0.46444   0.12212   0.00000  Uiso   1.00
C244   C     0.89046   0.67224   0.34276   0.00000  Uiso   1.00
C245   C     0.82806   0.72760   0.31956   0.00000  Uiso   1.00
C246   C     0.80871   0.80242   0.33734   0.00000  Uiso   1.00
C247   C     0.74997   0.84374   0.31081   0.00000  Uiso   1.00
C248   C     0.85397   0.63162   0.37282   0.00000  Uiso   1.00
C249   C     0.85641   0.62572   0.43538   0.00000  Uiso   1.00
C250   C     0.81949   0.58623   0.45370   0.00000  Uiso   1.00
C251   C     0.94142   0.61660   0.28198   0.00000  Uiso   1.00
C252   C     0.01739   0.59807   0.26816   0.00000  Uiso   1.00
C253   C     0.05410   0.54591   0.21000   0.00000  Uiso   1.00
H254   H     0.79099   0.58735   0.23077   0.00000  Uiso   1.00
H255   H     0.70199   0.71132   0.21717   0.00000  Uiso   1.00
H256   H     0.74970   0.53464   0.31520   0.00000  Uiso   1.00
H257   H     0.91065   0.50700   0.14800   0.00000  Uiso   1.00
H258   H     0.62005   0.86306   0.22097   0.00000  Uiso   1.00
H259   H     0.72066   0.49050   0.42765   0.00000  Uiso   1.00
H260   H     0.06006   0.43220   0.07510   0.00000  Uiso   1.00
H261   H     0.92002   0.69746   0.37605   0.00000  Uiso   1.00
H262   H     0.83811   0.82748   0.37042   0.00000  Uiso   1.00
H263   H     0.88581   0.65080   0.46845   0.00000  Uiso   1.00
H264   H     0.04676   0.62315   0.30126   0.00000  Uiso   1.00
H265   H     0.73052   0.95734   0.34536   0.00000  Uiso   1.00
H266   H     0.83114   0.58477   0.55204   0.00000  Uiso   1.00
H267   H     0.17053   0.52648   0.19948   0.00000  Uiso   1.00
O268   O     0.61906   0.99374   0.27686   0.00000  Uiso   1.00
O269   O     0.75107   0.50495   0.54801   0.00000  Uiso   1.00
O270   O     0.19634   0.42846   0.08546   0.00000  Uiso   1.00
N271   N     0.65731   0.86740   0.25101   0.00000  Uiso   1.00
N272   N     0.75136   0.51909   0.44425   0.00000  Uiso   1.00
N273   N     0.06867   0.46457   0.11464   0.00000  Uiso   1.00
N274   N     0.71675   0.91813   0.31794   0.00000  Uiso   1.00
N275   N     0.81080   0.56982   0.51118   0.00000  Uiso   1.00
N276   N     0.12811   0.51530   0.18157   0.00000  Uiso   1.00
C277   C     0.93880   0.25477   0.19175   0.00000  Uiso   1.00
C278   C     0.00758   0.18536   0.15977   0.00000  Uiso   1.00
C279   C     0.01873   0.11566   0.16244   0.00000  Uiso   1.00
C280   C     0.08538   0.05934   0.12996   0.00000  Uiso   1.00
C281   C     0.18403   0.94958   0.08543   0.00000  Uiso   1.00
C282   C     0.90911   0.28828   0.13776   0.00000  Uiso   1.00
C283   C     0.83745   0.30512   0.12193   0.00000  Uiso   1.00
C284   C     0.82121   0.33545   0.07093   0.00000  Uiso   1.00
C285   C     0.76695   0.38552   0.99226   0.00000  Uiso   1.00
C286   C     0.96724   0.30708   0.23494   0.00000  Uiso   1.00
C287   C     0.94445   0.33975   0.30083   0.00000  Uiso   1.00
C288   C     0.97713   0.38592   0.33164   0.00000  Uiso   1.00
C289   C     0.01313   0.46518   0.40386   0.00000  Uiso   1.00
C290   C     0.03734   0.27869   0.12932   0.00000  Uiso   1.00
C291   C     0.06111   0.19835   0.12586   0.00000  Uiso   1.00
C292   C     0.12776   0.14212   0.09337   0.00000  Uiso   1.00
C293   C     0.13901   0.07236   0.09599   0.00000  Uiso   1.00
C294   C     0.96263   0.30127   0.10385   0.00000  Uiso   1.00
C295   C     0.94648   0.33159   0.05286   0.00000  Uiso   1.00
C296   C     0.87483   0.34847   0.03696   0.00000  Uiso   1.00
C297   C     0.02076   0.32007   0.20103   0.00000  Uiso   1.00
C298   C     0.05348   0.36620   0.23176   0.00000  Uiso   1.00
C299   C     0.03075   0.39894   0.29767   0.00000  Uiso   1.00
H300   H     0.89712   0.24466   0.21815   0.00000  Uiso   1.00
H301   H     0.97729   0.10563   0.18868   0.00000  Uiso   1.00
H302   H     0.79604   0.29507   0.14818   0.00000  Uiso   1.00
H303   H     0.90303   0.32968   0.32705   0.00000  Uiso   1.00
H304   H     0.08977   0.95721   0.14104   0.00000  Uiso   1.00
H305   H     0.70759   0.35668   0.05566   0.00000  Uiso   1.00
H306   H     0.93317   0.42967   0.43284   0.00000  Uiso   1.00
H307   H     0.07902   0.28881   0.10292   0.00000  Uiso   1.00
H308   H     0.16917   0.15219   0.06713   0.00000  Uiso   1.00
H309   H     0.98792   0.34163   0.02664   0.00000  Uiso   1.00
H310   H     0.09490   0.37625   0.20550   0.00000  Uiso   1.00
H311   H     0.24550   0.99500   0.04238   0.00000  Uiso   1.00
H312   H     0.86332   0.39448   0.95701   0.00000  Uiso   1.00
H313   H     0.08891   0.46746   0.33418   0.00000  Uiso   1.00
O314   O     0.22365   0.88544   0.07022   0.00000  Uiso   1.00
O315   O     0.72224   0.40954   0.95823   0.00000  Uiso   1.00
O316   O     0.01821   0.50530   0.45307   0.00000  Uiso   1.00
N317   N     0.11405   0.98486   0.12274   0.00000  Uiso   1.00
N318   N     0.75674   0.35833   0.04291   0.00000  Uiso   1.00
N319   N     0.96763   0.42658   0.39554   0.00000  Uiso   1.00
N320   N     0.19785   0.00519   0.06966   0.00000  Uiso   1.00
N321   N     0.84054   0.37866   0.98983   0.00000  Uiso   1.00
N322   N     0.05143   0.44692   0.34245   0.00000  Uiso   1.00
C323   C     0.52410   0.36328   0.14977   0.00000  Uiso   1.00
C324   C     0.50480   0.41830   0.11069   0.00000  Uiso   1.00
C325   C     0.55025   0.45127   0.09462   0.00000  Uiso   1.00
C326   C     0.52245   0.50007   0.05857   0.00000  Uiso   1.00
C327   C     0.50326   0.58316   0.00080   0.00000  Uiso   1.00
C328   C     0.51659   0.29566   0.10749   0.00000  Uiso   1.00
C329   C     0.57194   0.22550   0.08873   0.00000  Uiso   1.00
C330   C     0.55405   0.17106   0.04999   0.00000  Uiso   1.00
C331   C     0.55314   0.06372   0.98729   0.00000  Uiso   1.00
C332   C     0.46169   0.39511   0.20682   0.00000  Uiso   1.00
C333   C     0.47089   0.40855   0.27158   0.00000  Uiso   1.00
C334   C     0.40678   0.43783   0.31647   0.00000  Uiso   1.00
C335   C     0.32064   0.48490   0.40800   0.00000  Uiso   1.00
C336   C     0.39391   0.39133   0.11432   0.00000  Uiso   1.00
C337   C     0.43409   0.43353   0.09144   0.00000  Uiso   1.00
C338   C     0.40621   0.48230   0.05541   0.00000  Uiso   1.00
C339   C     0.45161   0.51534   0.03929   0.00000  Uiso   1.00
C340   C     0.44588   0.31089   0.08824   0.00000  Uiso   1.00
C341   C     0.42790   0.25653   0.04952   0.00000  Uiso   1.00
C342   C     0.48321   0.18632   0.03071   0.00000  Uiso   1.00
C343   C     0.39098   0.41034   0.18757   0.00000  Uiso   1.00
C344   C     0.32685   0.43959   0.23237   0.00000  Uiso   1.00
C345   C     0.33594   0.45308   0.29719   0.00000  Uiso   1.00
H346   H     0.57915   0.35142   0.16475   0.00000  Uiso   1.00
H347   H     0.60498   0.43946   0.10952   0.00000  Uiso   1.00
H348   H     0.62665   0.21373   0.10365   0.00000  Uiso   1.00
H349   H     0.52562   0.39676   0.28646   0.00000  Uiso   1.00
H350   H     0.60243   0.54377   0.03978   0.00000  Uiso   1.00
H351   H     0.64814   0.06780   0.02740   0.00000  Uiso   1.00
H352   H     0.43508   0.45375   0.41292   0.00000  Uiso   1.00
H353   H     0.33885   0.40319   0.09933   0.00000  Uiso   1.00
H354   H     0.35149   0.49408   0.04051   0.00000  Uiso   1.00
H355   H     0.37317   0.26834   0.03463   0.00000  Uiso   1.00
H356   H     0.27213   0.45137   0.21745   0.00000  Uiso   1.00
H357   H     0.39669   0.58810   0.98377   0.00000  Uiso   1.00
H358   H     0.44240   0.11212   0.97139   0.00000  Uiso   1.00
H359   H     0.22934   0.49807   0.35690   0.00000  Uiso   1.00
O360   O     0.51222   0.62477   0.97425   0.00000  Uiso   1.00
O361   O     0.57218   0.00031   0.95802   0.00000  Uiso   1.00
O362   O     0.29266   0.50667   0.46380   0.00000  Uiso   1.00
N363   N     0.55227   0.54174   0.03468   0.00000  Uiso   1.00
N364   N     0.59501   0.09673   0.02310   0.00000  Uiso   1.00
N365   N     0.39582   0.45755   0.38352   0.00000  Uiso   1.00
N366   N     0.44156   0.56559   0.00454   0.00000  Uiso   1.00
N367   N     0.48430   0.12059   0.99296   0.00000  Uiso   1.00
N368   N     0.28511   0.48140   0.35338   0.00000  Uiso   1.00
C369   C     0.83946   0.99554   0.16847   0.00000  Uiso   1.00
C370   C     0.78046   0.96619   0.14759   0.00000  Uiso   1.00
C371   C     0.70588   0.00812   0.14751   0.00000  Uiso   1.00
C372   C     0.66089   0.97093   0.12665   0.00000  Uiso   1.00
C373   C     0.56493   0.93697   0.09725   0.00000  Uiso   1.00
C374   C     0.90160   0.96228   0.11106   0.00000  Uiso   1.00
C375   C     0.92889   0.00093   0.08027   0.00000  Uiso   1.00
C376   C     0.98589   0.96043   0.02867   0.00000  Uiso   1.00
C377   C     0.07804   0.92040   0.94259   0.00000  Uiso   1.00
C378   C     0.87245   0.96178   0.22145   0.00000  Uiso   1.00
C379   C     0.87524   0.00001   0.28348   0.00000  Uiso   1.00
C380   C     0.90772   0.95909   0.32481   0.00000  Uiso   1.00
C381   C     0.95461   0.91829   0.41013   0.00000  Uiso   1.00
C382   C     0.89219   0.85490   0.13157   0.00000  Uiso   1.00
C383   C     0.80910   0.88980   0.12755   0.00000  Uiso   1.00
C384   C     0.76421   0.85252   0.10669   0.00000  Uiso   1.00
C385   C     0.68958   0.89440   0.10657   0.00000  Uiso   1.00
C386   C     0.93024   0.88589   0.09102   0.00000  Uiso   1.00
C387   C     0.98722   0.84533   0.03945   0.00000  Uiso   1.00
C388   C     0.01458   0.88391   0.00859   0.00000  Uiso   1.00
C389   C     0.90109   0.88539   0.20142   0.00000  Uiso   1.00
C390   C     0.93358   0.84441   0.24266   0.00000  Uiso   1.00
C391   C     0.93641   0.88257   0.30474   0.00000  Uiso   1.00
H392   H     0.81717   0.05501   0.18406   0.00000  Uiso   1.00
H393   H     0.68373   0.06724   0.16301   0.00000  Uiso   1.00
H394   H     0.90672   0.06004   0.09580   0.00000  Uiso   1.00
H395   H     0.85308   0.05912   0.29897   0.00000  Uiso   1.00
H396   H     0.54844   0.04711   0.13081   0.00000  Uiso   1.00
H397   H     0.01862   0.03193   0.98910   0.00000  Uiso   1.00
H398   H     0.90552   0.03000   0.41753   0.00000  Uiso   1.00
H399   H     0.91449   0.79543   0.11597   0.00000  Uiso   1.00
H400   H     0.78639   0.79341   0.09118   0.00000  Uiso   1.00
H401   H     0.00938   0.78621   0.02396   0.00000  Uiso   1.00
H402   H     0.95574   0.78529   0.22714   0.00000  Uiso   1.00
H403   H     0.63176   0.82486   0.07251   0.00000  Uiso   1.00
H404   H     0.10195   0.80968   0.93079   0.00000  Uiso   1.00
H405   H     0.98884   0.80774   0.35922   0.00000  Uiso   1.00
O406   O     0.50408   0.93934   0.08656   0.00000  Uiso   1.00
O407   O     0.12096   0.91943   0.90065   0.00000  Uiso   1.00
O408   O     0.97256   0.91689   0.46274   0.00000  Uiso   1.00
N409   N     0.58562   0.99508   0.12050   0.00000  Uiso   1.00
N410   N     0.02521   0.98089   0.98800   0.00000  Uiso   1.00
N411   N     0.91948   0.97908   0.38854   0.00000  Uiso   1.00
N412   N     0.63046   0.87549   0.08913   0.00000  Uiso   1.00
N413   N     0.07005   0.86130   0.95663   0.00000  Uiso   1.00
N414   N     0.96432   0.85949   0.35717   0.00000  Uiso   1.00
C415   C     0.50540   0.19617   0.72937   0.00000  Uiso   1.00
C416   C     0.44312   0.26130   0.71720   0.00000  Uiso   1.00
C417   C     0.36830   0.27272   0.72028   0.00000  Uiso   1.00
C418   C     0.32007   0.33567   0.70753   0.00000  Uiso   1.00
C419   C     0.21945   0.42922   0.69093   0.00000  Uiso   1.00
C420   C     0.56317   0.16200   0.66867   0.00000  Uiso   1.00
C421   C     0.58929   0.08994   0.63096   0.00000  Uiso   1.00
C422   C     0.64214   0.06929   0.57736   0.00000  Uiso   1.00
C423   C     0.72794   0.00866   0.48545   0.00000  Uiso   1.00
C424   C     0.54241   0.22790   0.78296   0.00000  Uiso   1.00
C425   C     0.55110   0.21123   0.84133   0.00000  Uiso   1.00
C426   C     0.58649   0.24606   0.88395   0.00000  Uiso   1.00
C427   C     0.64006   0.28775   0.96948   0.00000  Uiso   1.00
C428   C     0.55282   0.28765   0.70126   0.00000  Uiso   1.00
C429   C     0.46888   0.31098   0.70193   0.00000  Uiso   1.00
C430   C     0.42076   0.37393   0.68918   0.00000  Uiso   1.00
C431   C     0.34587   0.38545   0.69224   0.00000  Uiso   1.00
C432   C     0.58893   0.21168   0.65341   0.00000  Uiso   1.00
C433   C     0.64175   0.19114   0.59986   0.00000  Uiso   1.00
C434   C     0.66794   0.11906   0.56206   0.00000  Uiso   1.00
C435   C     0.56817   0.27759   0.76770   0.00000  Uiso   1.00
C436   C     0.60355   0.31244   0.81023   0.00000  Uiso   1.00
C437   C     0.61229   0.29583   0.86866   0.00000  Uiso   1.00
H438   H     0.48536   0.15749   0.74125   0.00000  Uiso   1.00
H439   H     0.34839   0.23426   0.73209   0.00000  Uiso   1.00
H440   H     0.56936   0.05150   0.64279   0.00000  Uiso   1.00
H441   H     0.53116   0.17278   0.85313   0.00000  Uiso   1.00
H442   H     0.20790   0.34127   0.71517   0.00000  Uiso   1.00
H443   H     0.67383   0.95590   0.52689   0.00000  Uiso   1.00
H444   H     0.59330   0.21164   0.97043   0.00000  Uiso   1.00
H445   H     0.57287   0.32633   0.68937   0.00000  Uiso   1.00
H446   H     0.44070   0.41237   0.67736   0.00000  Uiso   1.00
H447   H     0.66167   0.22961   0.58806   0.00000  Uiso   1.00
H448   H     0.62348   0.35089   0.79840   0.00000  Uiso   1.00
H449   H     0.28282   0.48583   0.67075   0.00000  Uiso   1.00
H450   H     0.74876   0.10046   0.48246   0.00000  Uiso   1.00
H451   H     0.66823   0.35620   0.92601   0.00000  Uiso   1.00
O452   O     0.15684   0.46709   0.68598   0.00000  Uiso   1.00
O453   O     0.76814   0.96150   0.43896   0.00000  Uiso   1.00
O454   O     0.66248   0.29702   0.02088   0.00000  Uiso   1.00
N455   N     0.24367   0.36349   0.70638   0.00000  Uiso   1.00
N456   N     0.67928   0.00320   0.53034   0.00000  Uiso   1.00
N457   N     0.60401   0.24228   0.94501   0.00000  Uiso   1.00
N458   N     0.28398   0.44128   0.68248   0.00000  Uiso   1.00
N459   N     0.71960   0.08098   0.50643   0.00000  Uiso   1.00
N460   N     0.64433   0.32006   0.92111   0.00000  Uiso   1.00
C461   C     0.55153   0.83954   0.74546   0.00000  Uiso   1.00
C462   C     0.62153   0.84305   0.71584   0.00000  Uiso   1.00
C463   C     0.62847   0.90572   0.70969   0.00000  Uiso   1.00
C464   C     0.69712   0.89748   0.68123   0.00000  Uiso   1.00
C465   C     0.79674   0.91335   0.63849   0.00000  Uiso   1.00
C466   C     0.53355   0.78508   0.69378   0.00000  Uiso   1.00
C467   C     0.46652   0.79901   0.66910   0.00000  Uiso   1.00
C468   C     0.46111   0.74197   0.62207   0.00000  Uiso   1.00
C469   C     0.42413   0.66783   0.54512   0.00000  Uiso   1.00
C470   C     0.57461   0.80408   0.79960   0.00000  Uiso   1.00
C471   C     0.54209   0.83397   0.86388   0.00000  Uiso   1.00
C472   C     0.57125   0.79292   0.90595   0.00000  Uiso   1.00
C473   C     0.59802   0.74827   0.99329   0.00000  Uiso   1.00
C474   C     0.66112   0.71346   0.70586   0.00000  Uiso   1.00
C475   C     0.68105   0.77457   0.69433   0.00000  Uiso   1.00
C476   C     0.74971   0.76623   0.66588   0.00000  Uiso   1.00
C477   C     0.75675   0.82888   0.65969   0.00000  Uiso   1.00
C478   C     0.59307   0.71661   0.67227   0.00000  Uiso   1.00
C479   C     0.58776   0.65953   0.62528   0.00000  Uiso   1.00
C480   C     0.52074   0.67337   0.60053   0.00000  Uiso   1.00
C481   C     0.63414   0.73560   0.77809   0.00000  Uiso   1.00
C482   C     0.66335   0.69449   0.82007   0.00000  Uiso   1.00
C483   C     0.63088   0.72431   0.88440   0.00000  Uiso   1.00
H484   H     0.50519   0.89285   0.76220   0.00000  Uiso   1.00
H485   H     0.58238   0.95870   0.72634   0.00000  Uiso   1.00
H486   H     0.42046   0.85201   0.68575   0.00000  Uiso   1.00
H487   H     0.49603   0.88696   0.88051   0.00000  Uiso   1.00
H488   H     0.69422   0.00151   0.67707   0.00000  Uiso   1.00
H489   H     0.35278   0.77654   0.59151   0.00000  Uiso   1.00
H490   H     0.51214   0.85025   0.00219   0.00000  Uiso   1.00
H491   H     0.70746   0.66015   0.68911   0.00000  Uiso   1.00
H492   H     0.79577   0.71324   0.64924   0.00000  Uiso   1.00
H493   H     0.63384   0.60655   0.60865   0.00000  Uiso   1.00
H494   H     0.70941   0.64150   0.80341   0.00000  Uiso   1.00
H495   H     0.86740   0.80228   0.61449   0.00000  Uiso   1.00
H496   H     0.52596   0.57731   0.52893   0.00000  Uiso   1.00
H497   H     0.68532   0.65102   0.93961   0.00000  Uiso   1.00
O498   O     0.83524   0.94101   0.62085   0.00000  Uiso   1.00
O499   O     0.38728   0.64586   0.50861   0.00000  Uiso   1.00
O500   O     0.59636   0.74256   0.04741   0.00000  Uiso   1.00
N501   N     0.72286   0.94734   0.66783   0.00000  Uiso   1.00
N502   N     0.40364   0.73701   0.58783   0.00000  Uiso   1.00
N503   N     0.55261   0.80591   0.97178   0.00000  Uiso   1.00
N504   N     0.81605   0.84014   0.63415   0.00000  Uiso   1.00
N505   N     0.49683   0.62980   0.55415   0.00000  Uiso   1.00
N506   N     0.64580   0.69871   0.93810   0.00000  Uiso   1.00
C507   C     0.22674   0.19339   0.67140   0.00000  Uiso   1.00
C508   C     0.21570   0.12199   0.65399   0.00000  Uiso   1.00
C509   C     0.27070   0.05308   0.64654   0.00000  Uiso   1.00
C510   C     0.24936   0.99463   0.63052   0.00000  Uiso   1.00
C511   C     0.24343   0.88220   0.60472   0.00000  Uiso   1.00
C512   C     0.20024   0.22867   0.61771   0.00000  Uiso   1.00
C513   C     0.24223   0.24946   0.57977   0.00000  Uiso   1.00
C514   C     0.20787   0.28083   0.53322   0.00000  Uiso   1.00
C515   C     0.17792   0.33408   0.45113   0.00000  Uiso   1.00
C516   C     0.17129   0.24236   0.73207   0.00000  Uiso   1.00
C517   C     0.18894   0.27468   0.79028   0.00000  Uiso   1.00
C518   C     0.13020   0.31758   0.84000   0.00000  Uiso   1.00
C519   C     0.05532   0.39209   0.93546   0.00000  Uiso   1.00
C520   C     0.09104   0.21213   0.65620   0.00000  Uiso   1.00
C521   C     0.14199   0.13217   0.64573   0.00000  Uiso   1.00
C522   C     0.12056   0.07381   0.62973   0.00000  Uiso   1.00
C523   C     0.17551   0.00482   0.62226   0.00000  Uiso   1.00
C524   C     0.12653   0.23885   0.60945   0.00000  Uiso   1.00
C525   C     0.09209   0.27019   0.56295   0.00000  Uiso   1.00
C526   C     0.13403   0.29102   0.52495   0.00000  Uiso   1.00
C527   C     0.09758   0.25254   0.72381   0.00000  Uiso   1.00
C528   C     0.03881   0.29541   0.77346   0.00000  Uiso   1.00
C529   C     0.05636   0.32778   0.83173   0.00000  Uiso   1.00
H530   H     0.28412   0.18547   0.67782   0.00000  Uiso   1.00
H531   H     0.32773   0.04522   0.65293   0.00000  Uiso   1.00
H532   H     0.29927   0.24158   0.58617   0.00000  Uiso   1.00
H533   H     0.24599   0.26679   0.79664   0.00000  Uiso   1.00
H534   H     0.34358   0.89422   0.62167   0.00000  Uiso   1.00
H535   H     0.28355   0.30828   0.48093   0.00000  Uiso   1.00
H536   H     0.17120   0.36144   0.92475   0.00000  Uiso   1.00
H537   H     0.03365   0.22006   0.64977   0.00000  Uiso   1.00
H538   H     0.06352   0.08170   0.62334   0.00000  Uiso   1.00
H539   H     0.03505   0.27807   0.55658   0.00000  Uiso   1.00
H540   H     0.98177   0.30327   0.76705   0.00000  Uiso   1.00
H541   H     0.12914   0.92382   0.59765   0.00000  Uiso   1.00
H542   H     0.06911   0.33789   0.45691   0.00000  Uiso   1.00
H543   H     0.95676   0.39104   0.90073   0.00000  Uiso   1.00
O544   O     0.26053   0.81738   0.59275   0.00000  Uiso   1.00
O545   O     0.18177   0.36063   0.40812   0.00000  Uiso   1.00
O546   O     0.03437   0.43036   0.99040   0.00000  Uiso   1.00
N547   N     0.28901   0.92017   0.61965   0.00000  Uiso   1.00
N548   N     0.23289   0.30729   0.48806   0.00000  Uiso   1.00
N549   N     0.12785   0.35700   0.90299   0.00000  Uiso   1.00
N550   N     0.17362   0.93610   0.60673   0.00000  Uiso   1.00
N551   N     0.11750   0.32322   0.47514   0.00000  Uiso   1.00
N552   N     0.01246   0.37293   0.89007   0.00000  Uiso   1.00
