data_job_03746
_audit_creation_date              2018-12-19
_audit_creation_method            'Materials Studio'
_symmetry_space_group_name_H-M    'P1'
_symmetry_Int_Tables_number       1
_symmetry_cell_setting            triclinic
loop_
_symmetry_equiv_pos_as_xyz
  x,y,z
_cell_length_a                    9.6177
_cell_length_b                    11.9562
_cell_length_c                    16.1822
_cell_angle_alpha                 96.3082
_cell_angle_beta                  105.9284
_cell_angle_gamma                 66.2867
loop_
_atom_site_label
_atom_site_type_symbol
_atom_site_fract_x
_atom_site_fract_y
_atom_site_fract_z
_atom_site_U_iso_or_equiv
_atom_site_adp_type
_atom_site_occupancy
C1     C     0.08930   0.06796   0.80727   0.00000  Uiso   1.00
C2     C     0.93941   0.13222   0.83766   0.00000  Uiso   1.00
C3     C     0.93022   0.18618   0.91748   0.00000  Uiso   1.00
C4     C     0.78214   0.24028   0.93290   0.00000  Uiso   1.00
C5     C     0.56980   0.34000   0.98956   0.00000  Uiso   1.00
C6     C     0.09715   0.93949   0.78112   0.00000  Uiso   1.00
C7     C     0.22060   0.83141   0.81339   0.00000  Uiso   1.00
C8     C     0.20531   0.72326   0.78120   0.00000  Uiso   1.00
C9     C     0.23791   0.52377   0.75004   0.00000  Uiso   1.00
C10    C     0.06231   0.13223   0.72454   0.00000  Uiso   1.00
C11    C     0.15648   0.18618   0.70922   0.00000  Uiso   1.00
C12    C     0.11187   0.24028   0.62938   0.00000  Uiso   1.00
C13    C     0.09037   0.34004   0.51037   0.00000  Uiso   1.00
C14    C     0.84266   0.06807   0.69272   0.00000  Uiso   1.00
C15    C     0.80545   0.13228   0.77544   0.00000  Uiso   1.00
C16    C     0.65734   0.18631   0.79074   0.00000  Uiso   1.00
C17    C     0.64793   0.24035   0.87056   0.00000  Uiso   1.00
C18    C     0.96319   0.93955   0.71890   0.00000  Uiso   1.00
C19    C     0.94772   0.83154   0.68665   0.00000  Uiso   1.00
C20    C     0.07110   0.72332   0.71887   0.00000  Uiso   1.00
C21    C     0.92834   0.13230   0.66232   0.00000  Uiso   1.00
C22    C     0.88359   0.18631   0.58248   0.00000  Uiso   1.00
C23    C     0.97766   0.24034   0.56705   0.00000  Uiso   1.00
H24    H     0.19360   0.06790   0.85571   0.00000  Uiso   1.00
H25    H     0.03393   0.18610   0.96561   0.00000  Uiso   1.00
H26    H     0.32426   0.83139   0.86153   0.00000  Uiso   1.00
H27    H     0.26014   0.18611   0.75738   0.00000  Uiso   1.00
H28    H     0.79783   0.31714   0.06003   0.00000  Uiso   1.00
H29    H     0.41004   0.56921   0.84055   0.00000  Uiso   1.00
H30    H     0.27483   0.31720   0.62093   0.00000  Uiso   1.00
H31    H     0.73836   0.06812   0.64428   0.00000  Uiso   1.00
H32    H     0.55369   0.18635   0.74258   0.00000  Uiso   1.00
H33    H     0.84403   0.83163   0.63850   0.00000  Uiso   1.00
H34    H     0.77991   0.18635   0.53435   0.00000  Uiso   1.00
H35    H     0.40805   0.31734   0.87901   0.00000  Uiso   1.00
H36    H     0.02027   0.56939   0.65953   0.00000  Uiso   1.00
H37    H     0.88505   0.31739   0.43991   0.00000  Uiso   1.00
O38    O     0.48968   0.39497   0.03801   0.00000  Uiso   1.00
O39    O     0.29290   0.41371   0.75005   0.00000  Uiso   1.00
O40    O     0.11550   0.39506   0.46191   0.00000  Uiso   1.00
N41    N     0.73143   0.30099   0.00393   0.00000  Uiso   1.00
N42    N     0.30381   0.60171   0.79874   0.00000  Uiso   1.00
N43    N     0.17742   0.30099   0.59340   0.00000  Uiso   1.00
N44    N     0.52170   0.30109   0.90652   0.00000  Uiso   1.00
N45    N     0.09407   0.60181   0.70134   0.00000  Uiso   1.00
N46    N     0.96768   0.30110   0.49600   0.00000  Uiso   1.00
C47    C     0.91070   0.93204   0.19273   0.00000  Uiso   1.00
C48    C     0.06059   0.86778   0.16234   0.00000  Uiso   1.00
C49    C     0.06978   0.81382   0.08252   0.00000  Uiso   1.00
C50    C     0.21786   0.75972   0.06710   0.00000  Uiso   1.00
C51    C     0.43020   0.66000   0.01044   0.00000  Uiso   1.00
C52    C     0.90285   0.06051   0.21888   0.00000  Uiso   1.00
C53    C     0.77940   0.16859   0.18661   0.00000  Uiso   1.00
C54    C     0.79469   0.27674   0.21880   0.00000  Uiso   1.00
C55    C     0.76209   0.47623   0.24996   0.00000  Uiso   1.00
C56    C     0.93769   0.86777   0.27546   0.00000  Uiso   1.00
C57    C     0.84352   0.81382   0.29078   0.00000  Uiso   1.00
C58    C     0.88813   0.75972   0.37062   0.00000  Uiso   1.00
C59    C     0.90963   0.65996   0.48963   0.00000  Uiso   1.00
C60    C     0.15734   0.93193   0.30728   0.00000  Uiso   1.00
C61    C     0.19455   0.86772   0.22456   0.00000  Uiso   1.00
C62    C     0.34266   0.81369   0.20926   0.00000  Uiso   1.00
C63    C     0.35207   0.75965   0.12944   0.00000  Uiso   1.00
C64    C     0.03681   0.06045   0.28110   0.00000  Uiso   1.00
C65    C     0.05228   0.16846   0.31335   0.00000  Uiso   1.00
C66    C     0.92890   0.27668   0.28113   0.00000  Uiso   1.00
C67    C     0.07166   0.86770   0.33768   0.00000  Uiso   1.00
C68    C     0.11641   0.81369   0.41752   0.00000  Uiso   1.00
C69    C     0.02234   0.75966   0.43295   0.00000  Uiso   1.00
H70    H     0.80640   0.93210   0.14429   0.00000  Uiso   1.00
H71    H     0.96607   0.81390   0.03439   0.00000  Uiso   1.00
H72    H     0.67574   0.16861   0.13847   0.00000  Uiso   1.00
H73    H     0.73986   0.81389   0.24262   0.00000  Uiso   1.00
H74    H     0.20217   0.68286   0.93997   0.00000  Uiso   1.00
H75    H     0.58996   0.43079   0.15945   0.00000  Uiso   1.00
H76    H     0.72517   0.68280   0.37907   0.00000  Uiso   1.00
H77    H     0.26164   0.93188   0.35572   0.00000  Uiso   1.00
H78    H     0.44631   0.81365   0.25742   0.00000  Uiso   1.00
H79    H     0.15597   0.16837   0.36150   0.00000  Uiso   1.00
H80    H     0.22009   0.81365   0.46565   0.00000  Uiso   1.00
H81    H     0.59195   0.68266   0.12099   0.00000  Uiso   1.00
H82    H     0.97973   0.43061   0.34047   0.00000  Uiso   1.00
H83    H     0.11495   0.68261   0.56009   0.00000  Uiso   1.00
O84    O     0.51032   0.60503   0.96199   0.00000  Uiso   1.00
O85    O     0.70710   0.58629   0.24995   0.00000  Uiso   1.00
O86    O     0.88450   0.60494   0.53809   0.00000  Uiso   1.00
N87    N     0.26857   0.69901   0.99607   0.00000  Uiso   1.00
N88    N     0.69619   0.39829   0.20126   0.00000  Uiso   1.00
N89    N     0.82258   0.69901   0.40660   0.00000  Uiso   1.00
N90    N     0.47830   0.69891   0.09348   0.00000  Uiso   1.00
N91    N     0.90593   0.39819   0.29866   0.00000  Uiso   1.00
N92    N     0.03232   0.69890   0.50400   0.00000  Uiso   1.00
