data_job_04092
_audit_creation_date              2018-12-19
_audit_creation_method            'Materials Studio'
_symmetry_space_group_name_H-M    'P1'
_symmetry_Int_Tables_number       1
_symmetry_cell_setting            triclinic
loop_
_symmetry_equiv_pos_as_xyz
  x,y,z
_cell_length_a                    15.3531
_cell_length_b                    23.7824
_cell_length_c                    7.2409
_cell_angle_alpha                 90.0000
_cell_angle_beta                  90.0000
_cell_angle_gamma                 90.0000
loop_
_atom_site_label
_atom_site_type_symbol
_atom_site_fract_x
_atom_site_fract_y
_atom_site_fract_z
_atom_site_U_iso_or_equiv
_atom_site_adp_type
_atom_site_occupancy
C1     C     0.15351   0.61758   0.50564   0.00000  Uiso   1.00
C2     C     0.08422   0.60253   0.36308   0.00000  Uiso   1.00
C3     C     0.99680   0.59278   0.39985   0.00000  Uiso   1.00
C4     C     0.94393   0.57956   0.25047   0.00000  Uiso   1.00
C5     C     0.83126   0.55667   0.05644   0.00000  Uiso   1.00
C6     C     0.22469   0.57324   0.48650   0.00000  Uiso   1.00
C7     C     0.25540   0.53887   0.62705   0.00000  Uiso   1.00
C8     C     0.32080   0.50100   0.58156   0.00000  Uiso   1.00
C9     C     0.42626   0.43268   0.57917   0.00000  Uiso   1.00
C10    C     0.19380   0.67275   0.44074   0.00000  Uiso   1.00
C11    C     0.19855   0.72204   0.54283   0.00000  Uiso   1.00
C12    C     0.23796   0.76795   0.45884   0.00000  Uiso   1.00
C13    C     0.29546   0.85412   0.38541   0.00000  Uiso   1.00
C14    C     0.21507   0.61145   0.17496   0.00000  Uiso   1.00
C15    C     0.11766   0.59920   0.18347   0.00000  Uiso   1.00
C16    C     0.06491   0.58599   0.03399   0.00000  Uiso   1.00
C17    C     0.97743   0.57622   0.07053   0.00000  Uiso   1.00
C18    C     0.25813   0.56991   0.30689   0.00000  Uiso   1.00
C19    C     0.32350   0.53209   0.26119   0.00000  Uiso   1.00
C20    C     0.35429   0.49766   0.40162   0.00000  Uiso   1.00
C21    C     0.22724   0.66942   0.26113   0.00000  Uiso   1.00
C22    C     0.26665   0.71526   0.17697   0.00000  Uiso   1.00
C23    C     0.27146   0.76461   0.27890   0.00000  Uiso   1.00
H24    H     0.12748   0.62017   0.64548   0.00000  Uiso   1.00
H25    H     0.97095   0.59535   0.53887   0.00000  Uiso   1.00
H26    H     0.22952   0.54146   0.76603   0.00000  Uiso   1.00
H27    H     0.17267   0.72461   0.68182   0.00000  Uiso   1.00
H28    H     0.81216   0.56635   0.34147   0.00000  Uiso   1.00
H29    H     0.35738   0.45273   0.82047   0.00000  Uiso   1.00
H30    H     0.23752   0.83893   0.64291   0.00000  Uiso   1.00
H31    H     0.24110   0.60885   0.03512   0.00000  Uiso   1.00
H32    H     0.09080   0.58342   0.89501   0.00000  Uiso   1.00
H33    H     0.34936   0.52952   0.12218   0.00000  Uiso   1.00
H34    H     0.29252   0.71267   0.03797   0.00000  Uiso   1.00
H35    H     0.90944   0.55666   0.81890   0.00000  Uiso   1.00
H36    H     0.45465   0.44304   0.29790   0.00000  Uiso   1.00
H37    H     0.33479   0.82923   0.12033   0.00000  Uiso   1.00
O38    O     0.75988   0.54496   0.99904   0.00000  Uiso   1.00
O39    O     0.47519   0.39590   0.62748   0.00000  Uiso   1.00
O40    O     0.31793   0.90258   0.39451   0.00000  Uiso   1.00
N41    N     0.85568   0.56757   0.23771   0.00000  Uiso   1.00
N42    N     0.36541   0.46134   0.68554   0.00000  Uiso   1.00
N43    N     0.25337   0.82239   0.51955   0.00000  Uiso   1.00
N44    N     0.90802   0.56236   0.95651   0.00000  Uiso   1.00
N45    N     0.41775   0.45613   0.40434   0.00000  Uiso   1.00
N46    N     0.30571   0.81718   0.23835   0.00000  Uiso   1.00
C47    C     0.84649   0.38242   0.50564   0.00000  Uiso   1.00
C48    C     0.91578   0.39747   0.36308   0.00000  Uiso   1.00
C49    C     0.00320   0.40722   0.39985   0.00000  Uiso   1.00
C50    C     0.05607   0.42044   0.25047   0.00000  Uiso   1.00
C51    C     0.16874   0.44333   0.05644   0.00000  Uiso   1.00
C52    C     0.77531   0.42676   0.48650   0.00000  Uiso   1.00
C53    C     0.74460   0.46113   0.62705   0.00000  Uiso   1.00
C54    C     0.67920   0.49900   0.58156   0.00000  Uiso   1.00
C55    C     0.57374   0.56732   0.57917   0.00000  Uiso   1.00
C56    C     0.80620   0.32725   0.44074   0.00000  Uiso   1.00
C57    C     0.80145   0.27796   0.54283   0.00000  Uiso   1.00
C58    C     0.76204   0.23205   0.45884   0.00000  Uiso   1.00
C59    C     0.70454   0.14588   0.38541   0.00000  Uiso   1.00
C60    C     0.78493   0.38855   0.17496   0.00000  Uiso   1.00
C61    C     0.88234   0.40080   0.18347   0.00000  Uiso   1.00
C62    C     0.93509   0.41401   0.03399   0.00000  Uiso   1.00
C63    C     0.02257   0.42378   0.07053   0.00000  Uiso   1.00
C64    C     0.74187   0.43009   0.30689   0.00000  Uiso   1.00
C65    C     0.67650   0.46791   0.26119   0.00000  Uiso   1.00
C66    C     0.64571   0.50234   0.40162   0.00000  Uiso   1.00
C67    C     0.77276   0.33058   0.26113   0.00000  Uiso   1.00
C68    C     0.73335   0.28474   0.17697   0.00000  Uiso   1.00
C69    C     0.72854   0.23539   0.27890   0.00000  Uiso   1.00
H70    H     0.87252   0.37983   0.64548   0.00000  Uiso   1.00
H71    H     0.02905   0.40465   0.53887   0.00000  Uiso   1.00
H72    H     0.77048   0.45854   0.76603   0.00000  Uiso   1.00
H73    H     0.82733   0.27539   0.68182   0.00000  Uiso   1.00
H74    H     0.18784   0.43365   0.34147   0.00000  Uiso   1.00
H75    H     0.64262   0.54727   0.82047   0.00000  Uiso   1.00
H76    H     0.76248   0.16107   0.64291   0.00000  Uiso   1.00
H77    H     0.75890   0.39115   0.03512   0.00000  Uiso   1.00
H78    H     0.90920   0.41658   0.89501   0.00000  Uiso   1.00
H79    H     0.65064   0.47048   0.12218   0.00000  Uiso   1.00
H80    H     0.70748   0.28733   0.03797   0.00000  Uiso   1.00
H81    H     0.09056   0.44334   0.81890   0.00000  Uiso   1.00
H82    H     0.54535   0.55696   0.29790   0.00000  Uiso   1.00
H83    H     0.66521   0.17077   0.12033   0.00000  Uiso   1.00
O84    O     0.24012   0.45504   0.99904   0.00000  Uiso   1.00
O85    O     0.52481   0.60410   0.62748   0.00000  Uiso   1.00
O86    O     0.68207   0.09742   0.39451   0.00000  Uiso   1.00
N87    N     0.14432   0.43243   0.23771   0.00000  Uiso   1.00
N88    N     0.63459   0.53866   0.68554   0.00000  Uiso   1.00
N89    N     0.74663   0.17761   0.51955   0.00000  Uiso   1.00
N90    N     0.09198   0.43764   0.95651   0.00000  Uiso   1.00
N91    N     0.58225   0.54387   0.40434   0.00000  Uiso   1.00
N92    N     0.69429   0.18282   0.23835   0.00000  Uiso   1.00
C93    C     0.34649   0.11758   0.49436   0.00000  Uiso   1.00
C94    C     0.41578   0.10253   0.63692   0.00000  Uiso   1.00
C95    C     0.50320   0.09278   0.60015   0.00000  Uiso   1.00
C96    C     0.55607   0.07956   0.74953   0.00000  Uiso   1.00
C97    C     0.66874   0.05667   0.94356   0.00000  Uiso   1.00
C98    C     0.27531   0.07324   0.51350   0.00000  Uiso   1.00
C99    C     0.24460   0.03887   0.37295   0.00000  Uiso   1.00
C100   C     0.17920   0.00100   0.41844   0.00000  Uiso   1.00
C101   C     0.07374   0.93268   0.42083   0.00000  Uiso   1.00
C102   C     0.30620   0.17275   0.55926   0.00000  Uiso   1.00
C103   C     0.30145   0.22204   0.45717   0.00000  Uiso   1.00
C104   C     0.26204   0.26795   0.54116   0.00000  Uiso   1.00
C105   C     0.20454   0.35412   0.61459   0.00000  Uiso   1.00
C106   C     0.28493   0.11145   0.82504   0.00000  Uiso   1.00
C107   C     0.38234   0.09920   0.81653   0.00000  Uiso   1.00
C108   C     0.43509   0.08599   0.96601   0.00000  Uiso   1.00
C109   C     0.52257   0.07622   0.92947   0.00000  Uiso   1.00
C110   C     0.24187   0.06991   0.69311   0.00000  Uiso   1.00
C111   C     0.17650   0.03209   0.73881   0.00000  Uiso   1.00
C112   C     0.14571   0.99766   0.59838   0.00000  Uiso   1.00
C113   C     0.27276   0.16942   0.73887   0.00000  Uiso   1.00
C114   C     0.23335   0.21526   0.82303   0.00000  Uiso   1.00
C115   C     0.22854   0.26461   0.72110   0.00000  Uiso   1.00
H116   H     0.37252   0.12017   0.35452   0.00000  Uiso   1.00
H117   H     0.52905   0.09535   0.46113   0.00000  Uiso   1.00
H118   H     0.27048   0.04146   0.23397   0.00000  Uiso   1.00
H119   H     0.32733   0.22461   0.31818   0.00000  Uiso   1.00
H120   H     0.68784   0.06635   0.65853   0.00000  Uiso   1.00
H121   H     0.14262   0.95273   0.17953   0.00000  Uiso   1.00
H122   H     0.26248   0.33893   0.35709   0.00000  Uiso   1.00
H123   H     0.25890   0.10885   0.96488   0.00000  Uiso   1.00
H124   H     0.40920   0.08342   0.10499   0.00000  Uiso   1.00
H125   H     0.15064   0.02952   0.87782   0.00000  Uiso   1.00
H126   H     0.20748   0.21267   0.96203   0.00000  Uiso   1.00
H127   H     0.59056   0.05666   0.18110   0.00000  Uiso   1.00
H128   H     0.04535   0.94304   0.70210   0.00000  Uiso   1.00
H129   H     0.16521   0.32923   0.87967   0.00000  Uiso   1.00
O130   O     0.74012   0.04496   0.00096   0.00000  Uiso   1.00
O131   O     0.02481   0.89590   0.37252   0.00000  Uiso   1.00
O132   O     0.18207   0.40258   0.60549   0.00000  Uiso   1.00
N133   N     0.64432   0.06757   0.76229   0.00000  Uiso   1.00
N134   N     0.13459   0.96134   0.31446   0.00000  Uiso   1.00
N135   N     0.24663   0.32239   0.48045   0.00000  Uiso   1.00
N136   N     0.59198   0.06236   0.04349   0.00000  Uiso   1.00
N137   N     0.08225   0.95613   0.59566   0.00000  Uiso   1.00
N138   N     0.19429   0.31718   0.76165   0.00000  Uiso   1.00
C139   C     0.65351   0.88242   0.49436   0.00000  Uiso   1.00
C140   C     0.58422   0.89747   0.63692   0.00000  Uiso   1.00
C141   C     0.49680   0.90722   0.60015   0.00000  Uiso   1.00
C142   C     0.44393   0.92044   0.74953   0.00000  Uiso   1.00
C143   C     0.33126   0.94333   0.94356   0.00000  Uiso   1.00
C144   C     0.72469   0.92676   0.51350   0.00000  Uiso   1.00
C145   C     0.75540   0.96113   0.37295   0.00000  Uiso   1.00
C146   C     0.82080   0.99900   0.41844   0.00000  Uiso   1.00
C147   C     0.92626   0.06732   0.42083   0.00000  Uiso   1.00
C148   C     0.69380   0.82725   0.55926   0.00000  Uiso   1.00
C149   C     0.69855   0.77796   0.45717   0.00000  Uiso   1.00
C150   C     0.73796   0.73205   0.54116   0.00000  Uiso   1.00
C151   C     0.79546   0.64588   0.61459   0.00000  Uiso   1.00
C152   C     0.71507   0.88855   0.82504   0.00000  Uiso   1.00
C153   C     0.61766   0.90080   0.81653   0.00000  Uiso   1.00
C154   C     0.56491   0.91401   0.96601   0.00000  Uiso   1.00
C155   C     0.47743   0.92378   0.92947   0.00000  Uiso   1.00
C156   C     0.75813   0.93009   0.69311   0.00000  Uiso   1.00
C157   C     0.82350   0.96791   0.73881   0.00000  Uiso   1.00
C158   C     0.85429   0.00234   0.59838   0.00000  Uiso   1.00
C159   C     0.72724   0.83058   0.73887   0.00000  Uiso   1.00
C160   C     0.76665   0.78474   0.82303   0.00000  Uiso   1.00
C161   C     0.77146   0.73539   0.72110   0.00000  Uiso   1.00
H162   H     0.62748   0.87983   0.35452   0.00000  Uiso   1.00
H163   H     0.47095   0.90465   0.46113   0.00000  Uiso   1.00
H164   H     0.72952   0.95854   0.23397   0.00000  Uiso   1.00
H165   H     0.67267   0.77539   0.31818   0.00000  Uiso   1.00
H166   H     0.31216   0.93365   0.65853   0.00000  Uiso   1.00
H167   H     0.85738   0.04727   0.17953   0.00000  Uiso   1.00
H168   H     0.73752   0.66107   0.35709   0.00000  Uiso   1.00
H169   H     0.74110   0.89115   0.96488   0.00000  Uiso   1.00
H170   H     0.59080   0.91658   0.10499   0.00000  Uiso   1.00
H171   H     0.84936   0.97048   0.87782   0.00000  Uiso   1.00
H172   H     0.79252   0.78733   0.96203   0.00000  Uiso   1.00
H173   H     0.40944   0.94334   0.18110   0.00000  Uiso   1.00
H174   H     0.95465   0.05696   0.70210   0.00000  Uiso   1.00
H175   H     0.83479   0.67077   0.87967   0.00000  Uiso   1.00
O176   O     0.25988   0.95504   0.00096   0.00000  Uiso   1.00
O177   O     0.97519   0.10410   0.37252   0.00000  Uiso   1.00
O178   O     0.81793   0.59742   0.60549   0.00000  Uiso   1.00
N179   N     0.35568   0.93243   0.76229   0.00000  Uiso   1.00
N180   N     0.86541   0.03866   0.31446   0.00000  Uiso   1.00
N181   N     0.75337   0.67761   0.48045   0.00000  Uiso   1.00
N182   N     0.40802   0.93764   0.04349   0.00000  Uiso   1.00
N183   N     0.91775   0.04387   0.59566   0.00000  Uiso   1.00
N184   N     0.80571   0.68282   0.76165   0.00000  Uiso   1.00
