data_job_00186
_audit_creation_date              2018-12-19
_audit_creation_method            'Materials Studio'
_symmetry_space_group_name_H-M    'P1'
_symmetry_Int_Tables_number       1
_symmetry_cell_setting            triclinic
loop_
_symmetry_equiv_pos_as_xyz
  x,y,z
_cell_length_a                    22.5585
_cell_length_b                    22.5585
_cell_length_c                    7.2740
_cell_angle_alpha                 90.0000
_cell_angle_beta                  90.0000
_cell_angle_gamma                 90.0000
loop_
_atom_site_label
_atom_site_type_symbol
_atom_site_fract_x
_atom_site_fract_y
_atom_site_fract_z
_atom_site_U_iso_or_equiv
_atom_site_adp_type
_atom_site_occupancy
C1     C     0.68537   0.73955   0.24479   0.00000  Uiso   1.00
C2     C     0.63738   0.69975   0.16379   0.00000  Uiso   1.00
C3     C     0.59703   0.66627   0.26357   0.00000  Uiso   1.00
C4     C     0.55664   0.63275   0.16390   0.00000  Uiso   1.00
C5     C     0.48214   0.57092   0.06740   0.00000  Uiso   1.00
C6     C     0.74385   0.71789   0.16385   0.00000  Uiso   1.00
C7     C     0.79301   0.69968   0.26369   0.00000  Uiso   1.00
C8     C     0.84224   0.68144   0.16405   0.00000  Uiso   1.00
C9     C     0.93304   0.64782   0.06765   0.00000  Uiso   1.00
C10    C     0.67491   0.80102   0.16385   0.00000  Uiso   1.00
C11    C     0.66612   0.85271   0.26368   0.00000  Uiso   1.00
C12    C     0.65732   0.90446   0.16405   0.00000  Uiso   1.00
C13    C     0.64108   0.99992   0.06765   0.00000  Uiso   1.00
C14    C     0.68539   0.73957   0.89034   0.00000  Uiso   1.00
C15    C     0.63740   0.69975   0.97126   0.00000  Uiso   1.00
C16    C     0.59705   0.66628   0.87141   0.00000  Uiso   1.00
C17    C     0.55664   0.63276   0.97103   0.00000  Uiso   1.00
C18    C     0.74386   0.71790   0.97133   0.00000  Uiso   1.00
C19    C     0.79303   0.69969   0.87153   0.00000  Uiso   1.00
C20    C     0.84225   0.68145   0.97118   0.00000  Uiso   1.00
C21    C     0.67492   0.80103   0.97132   0.00000  Uiso   1.00
C22    C     0.66614   0.85272   0.87152   0.00000  Uiso   1.00
C23    C     0.65733   0.90447   0.97118   0.00000  Uiso   1.00
H24    H     0.68537   0.73954   0.39468   0.00000  Uiso   1.00
H25    H     0.59704   0.66627   0.41256   0.00000  Uiso   1.00
H26    H     0.79299   0.69968   0.41267   0.00000  Uiso   1.00
H27    H     0.66611   0.85268   0.41266   0.00000  Uiso   1.00
H28    H     0.49913   0.58501   0.34748   0.00000  Uiso   1.00
H29    H     0.91230   0.65548   0.34771   0.00000  Uiso   1.00
H30    H     0.64477   0.97812   0.34770   0.00000  Uiso   1.00
H31    H     0.68540   0.73957   0.74045   0.00000  Uiso   1.00
H32    H     0.59707   0.66630   0.72243   0.00000  Uiso   1.00
H33    H     0.79302   0.69971   0.72254   0.00000  Uiso   1.00
H34    H     0.66615   0.85271   0.72254   0.00000  Uiso   1.00
H35    H     0.49916   0.58503   0.78734   0.00000  Uiso   1.00
H36    H     0.91234   0.65551   0.78758   0.00000  Uiso   1.00
H37    H     0.64480   0.97814   0.78757   0.00000  Uiso   1.00
O38    O     0.44105   0.53680   0.06736   0.00000  Uiso   1.00
O39    O     0.98312   0.62927   0.06767   0.00000  Uiso   1.00
O40    O     0.63212   0.05256   0.06766   0.00000  Uiso   1.00
N41    N     0.51125   0.59508   0.21812   0.00000  Uiso   1.00
N42    N     0.89754   0.66096   0.21834   0.00000  Uiso   1.00
N43    N     0.64743   0.96260   0.21834   0.00000  Uiso   1.00
N44    N     0.51126   0.59510   0.91672   0.00000  Uiso   1.00
N45    N     0.89756   0.66097   0.91694   0.00000  Uiso   1.00
N46    N     0.64745   0.96261   0.91693   0.00000  Uiso   1.00
C47    C     0.31463   0.26045   0.24479   0.00000  Uiso   1.00
C48    C     0.36262   0.30025   0.16379   0.00000  Uiso   1.00
C49    C     0.40297   0.33373   0.26357   0.00000  Uiso   1.00
C50    C     0.44336   0.36725   0.16390   0.00000  Uiso   1.00
C51    C     0.51786   0.42908   0.06740   0.00000  Uiso   1.00
C52    C     0.25615   0.28211   0.16385   0.00000  Uiso   1.00
C53    C     0.20699   0.30032   0.26369   0.00000  Uiso   1.00
C54    C     0.15776   0.31856   0.16405   0.00000  Uiso   1.00
C55    C     0.06696   0.35218   0.06765   0.00000  Uiso   1.00
C56    C     0.32509   0.19898   0.16385   0.00000  Uiso   1.00
C57    C     0.33388   0.14729   0.26368   0.00000  Uiso   1.00
C58    C     0.34268   0.09554   0.16405   0.00000  Uiso   1.00
C59    C     0.35892   0.00008   0.06765   0.00000  Uiso   1.00
C60    C     0.31461   0.26043   0.89034   0.00000  Uiso   1.00
C61    C     0.36260   0.30025   0.97126   0.00000  Uiso   1.00
C62    C     0.40295   0.33372   0.87141   0.00000  Uiso   1.00
C63    C     0.44336   0.36724   0.97103   0.00000  Uiso   1.00
C64    C     0.25614   0.28210   0.97133   0.00000  Uiso   1.00
C65    C     0.20697   0.30031   0.87153   0.00000  Uiso   1.00
C66    C     0.15775   0.31855   0.97118   0.00000  Uiso   1.00
C67    C     0.32508   0.19897   0.97132   0.00000  Uiso   1.00
C68    C     0.33386   0.14728   0.87152   0.00000  Uiso   1.00
C69    C     0.34267   0.09553   0.97118   0.00000  Uiso   1.00
H70    H     0.31463   0.26046   0.39468   0.00000  Uiso   1.00
H71    H     0.40296   0.33373   0.41256   0.00000  Uiso   1.00
H72    H     0.20701   0.30032   0.41267   0.00000  Uiso   1.00
H73    H     0.33389   0.14732   0.41266   0.00000  Uiso   1.00
H74    H     0.50087   0.41499   0.34748   0.00000  Uiso   1.00
H75    H     0.08770   0.34452   0.34771   0.00000  Uiso   1.00
H76    H     0.35523   0.02188   0.34770   0.00000  Uiso   1.00
H77    H     0.31460   0.26043   0.74045   0.00000  Uiso   1.00
H78    H     0.40293   0.33370   0.72243   0.00000  Uiso   1.00
H79    H     0.20698   0.30029   0.72254   0.00000  Uiso   1.00
H80    H     0.33385   0.14729   0.72254   0.00000  Uiso   1.00
H81    H     0.50084   0.41497   0.78734   0.00000  Uiso   1.00
H82    H     0.08766   0.34449   0.78758   0.00000  Uiso   1.00
H83    H     0.35520   0.02186   0.78757   0.00000  Uiso   1.00
O84    O     0.55895   0.46320   0.06736   0.00000  Uiso   1.00
O85    O     0.01688   0.37073   0.06767   0.00000  Uiso   1.00
O86    O     0.36788   0.94744   0.06766   0.00000  Uiso   1.00
N87    N     0.48875   0.40492   0.21812   0.00000  Uiso   1.00
N88    N     0.10246   0.33904   0.21834   0.00000  Uiso   1.00
N89    N     0.35257   0.03740   0.21834   0.00000  Uiso   1.00
N90    N     0.48874   0.40490   0.91672   0.00000  Uiso   1.00
N91    N     0.10244   0.33903   0.91694   0.00000  Uiso   1.00
N92    N     0.35255   0.03739   0.91693   0.00000  Uiso   1.00
C93    C     0.26045   0.68537   0.74479   0.00000  Uiso   1.00
C94    C     0.30025   0.63738   0.66379   0.00000  Uiso   1.00
C95    C     0.33373   0.59703   0.76357   0.00000  Uiso   1.00
C96    C     0.36725   0.55664   0.66390   0.00000  Uiso   1.00
C97    C     0.42908   0.48214   0.56740   0.00000  Uiso   1.00
C98    C     0.28211   0.74385   0.66385   0.00000  Uiso   1.00
C99    C     0.30032   0.79301   0.76369   0.00000  Uiso   1.00
C100   C     0.31856   0.84224   0.66405   0.00000  Uiso   1.00
C101   C     0.35218   0.93304   0.56765   0.00000  Uiso   1.00
C102   C     0.19898   0.67491   0.66385   0.00000  Uiso   1.00
C103   C     0.14729   0.66612   0.76368   0.00000  Uiso   1.00
C104   C     0.09554   0.65732   0.66405   0.00000  Uiso   1.00
C105   C     0.00008   0.64108   0.56765   0.00000  Uiso   1.00
C106   C     0.26043   0.68539   0.39034   0.00000  Uiso   1.00
C107   C     0.30025   0.63740   0.47126   0.00000  Uiso   1.00
C108   C     0.33372   0.59705   0.37141   0.00000  Uiso   1.00
C109   C     0.36724   0.55664   0.47103   0.00000  Uiso   1.00
C110   C     0.28210   0.74386   0.47133   0.00000  Uiso   1.00
C111   C     0.30031   0.79303   0.37153   0.00000  Uiso   1.00
C112   C     0.31855   0.84225   0.47118   0.00000  Uiso   1.00
C113   C     0.19897   0.67492   0.47132   0.00000  Uiso   1.00
C114   C     0.14728   0.66614   0.37152   0.00000  Uiso   1.00
C115   C     0.09553   0.65733   0.47118   0.00000  Uiso   1.00
H116   H     0.26046   0.68537   0.89468   0.00000  Uiso   1.00
H117   H     0.33373   0.59704   0.91256   0.00000  Uiso   1.00
H118   H     0.30032   0.79299   0.91267   0.00000  Uiso   1.00
H119   H     0.14732   0.66611   0.91266   0.00000  Uiso   1.00
H120   H     0.41499   0.49913   0.84748   0.00000  Uiso   1.00
H121   H     0.34452   0.91230   0.84771   0.00000  Uiso   1.00
H122   H     0.02188   0.64477   0.84770   0.00000  Uiso   1.00
H123   H     0.26043   0.68540   0.24045   0.00000  Uiso   1.00
H124   H     0.33370   0.59707   0.22243   0.00000  Uiso   1.00
H125   H     0.30029   0.79302   0.22254   0.00000  Uiso   1.00
H126   H     0.14729   0.66615   0.22254   0.00000  Uiso   1.00
H127   H     0.41497   0.49916   0.28734   0.00000  Uiso   1.00
H128   H     0.34449   0.91234   0.28758   0.00000  Uiso   1.00
H129   H     0.02186   0.64480   0.28757   0.00000  Uiso   1.00
O130   O     0.46320   0.44105   0.56736   0.00000  Uiso   1.00
O131   O     0.37073   0.98312   0.56767   0.00000  Uiso   1.00
O132   O     0.94744   0.63212   0.56766   0.00000  Uiso   1.00
N133   N     0.40492   0.51125   0.71812   0.00000  Uiso   1.00
N134   N     0.33904   0.89754   0.71834   0.00000  Uiso   1.00
N135   N     0.03740   0.64743   0.71834   0.00000  Uiso   1.00
N136   N     0.40490   0.51126   0.41672   0.00000  Uiso   1.00
N137   N     0.33903   0.89756   0.41694   0.00000  Uiso   1.00
N138   N     0.03739   0.64745   0.41693   0.00000  Uiso   1.00
C139   C     0.73955   0.31463   0.74479   0.00000  Uiso   1.00
C140   C     0.69975   0.36262   0.66379   0.00000  Uiso   1.00
C141   C     0.66627   0.40297   0.76357   0.00000  Uiso   1.00
C142   C     0.63275   0.44336   0.66390   0.00000  Uiso   1.00
C143   C     0.57092   0.51786   0.56740   0.00000  Uiso   1.00
C144   C     0.71789   0.25615   0.66385   0.00000  Uiso   1.00
C145   C     0.69968   0.20699   0.76369   0.00000  Uiso   1.00
C146   C     0.68144   0.15776   0.66405   0.00000  Uiso   1.00
C147   C     0.64782   0.06696   0.56765   0.00000  Uiso   1.00
C148   C     0.80102   0.32509   0.66385   0.00000  Uiso   1.00
C149   C     0.85271   0.33388   0.76368   0.00000  Uiso   1.00
C150   C     0.90446   0.34268   0.66405   0.00000  Uiso   1.00
C151   C     0.99992   0.35892   0.56765   0.00000  Uiso   1.00
C152   C     0.73957   0.31461   0.39034   0.00000  Uiso   1.00
C153   C     0.69975   0.36260   0.47126   0.00000  Uiso   1.00
C154   C     0.66628   0.40295   0.37141   0.00000  Uiso   1.00
C155   C     0.63276   0.44336   0.47103   0.00000  Uiso   1.00
C156   C     0.71790   0.25614   0.47133   0.00000  Uiso   1.00
C157   C     0.69969   0.20697   0.37153   0.00000  Uiso   1.00
C158   C     0.68145   0.15775   0.47118   0.00000  Uiso   1.00
C159   C     0.80103   0.32508   0.47132   0.00000  Uiso   1.00
C160   C     0.85272   0.33386   0.37152   0.00000  Uiso   1.00
C161   C     0.90447   0.34267   0.47118   0.00000  Uiso   1.00
H162   H     0.73954   0.31463   0.89468   0.00000  Uiso   1.00
H163   H     0.66627   0.40296   0.91256   0.00000  Uiso   1.00
H164   H     0.69968   0.20701   0.91267   0.00000  Uiso   1.00
H165   H     0.85268   0.33389   0.91266   0.00000  Uiso   1.00
H166   H     0.58501   0.50087   0.84748   0.00000  Uiso   1.00
H167   H     0.65548   0.08770   0.84771   0.00000  Uiso   1.00
H168   H     0.97812   0.35523   0.84770   0.00000  Uiso   1.00
H169   H     0.73957   0.31460   0.24045   0.00000  Uiso   1.00
H170   H     0.66630   0.40293   0.22243   0.00000  Uiso   1.00
H171   H     0.69971   0.20698   0.22254   0.00000  Uiso   1.00
H172   H     0.85271   0.33385   0.22254   0.00000  Uiso   1.00
H173   H     0.58503   0.50084   0.28734   0.00000  Uiso   1.00
H174   H     0.65551   0.08766   0.28758   0.00000  Uiso   1.00
H175   H     0.97814   0.35520   0.28757   0.00000  Uiso   1.00
O176   O     0.53680   0.55895   0.56736   0.00000  Uiso   1.00
O177   O     0.62927   0.01688   0.56767   0.00000  Uiso   1.00
O178   O     0.05256   0.36788   0.56766   0.00000  Uiso   1.00
N179   N     0.59508   0.48875   0.71812   0.00000  Uiso   1.00
N180   N     0.66096   0.10246   0.71834   0.00000  Uiso   1.00
N181   N     0.96260   0.35257   0.71834   0.00000  Uiso   1.00
N182   N     0.59510   0.48874   0.41672   0.00000  Uiso   1.00
N183   N     0.66097   0.10244   0.41694   0.00000  Uiso   1.00
N184   N     0.96261   0.35255   0.41693   0.00000  Uiso   1.00
