data_job_02147
_audit_creation_date              2018-12-19
_audit_creation_method            'Materials Studio'
_symmetry_space_group_name_H-M    'P1'
_symmetry_Int_Tables_number       1
_symmetry_cell_setting            triclinic
loop_
_symmetry_equiv_pos_as_xyz
  x,y,z
_cell_length_a                    19.9405
_cell_length_b                    13.0520
_cell_length_c                    21.7054
_cell_angle_alpha                 90.0000
_cell_angle_beta                  90.0001
_cell_angle_gamma                 90.0000
loop_
_atom_site_label
_atom_site_type_symbol
_atom_site_fract_x
_atom_site_fract_y
_atom_site_fract_z
_atom_site_U_iso_or_equiv
_atom_site_adp_type
_atom_site_occupancy
C1     C     0.64491   0.16499   0.15649   0.00000  Uiso   1.00
C2     C     0.71315   0.20937   0.17361   0.00000  Uiso   1.00
C3     C     0.77387   0.18402   0.14634   0.00000  Uiso   1.00
C4     C     0.83069   0.23312   0.16857   0.00000  Uiso   1.00
C5     C     0.93724   0.29107   0.18791   0.00000  Uiso   1.00
C6     C     0.61620   0.11990   0.21569   0.00000  Uiso   1.00
C7     C     0.59540   0.01932   0.22380   0.00000  Uiso   1.00
C8     C     0.57061   0.99311   0.28146   0.00000  Uiso   1.00
C9     C     0.52660   0.91217   0.36611   0.00000  Uiso   1.00
C10    C     0.60054   0.25633   0.14046   0.00000  Uiso   1.00
C11    C     0.56655   0.27046   0.08532   0.00000  Uiso   1.00
C12    C     0.52856   0.35911   0.07964   0.00000  Uiso   1.00
C13    C     0.46023   0.49000   0.04749   0.00000  Uiso   1.00
C14    C     0.63785   0.29726   0.24447   0.00000  Uiso   1.00
C15    C     0.70931   0.28122   0.22140   0.00000  Uiso   1.00
C16    C     0.76606   0.33037   0.24368   0.00000  Uiso   1.00
C17    C     0.82686   0.30510   0.21645   0.00000  Uiso   1.00
C18    C     0.61237   0.19174   0.26348   0.00000  Uiso   1.00
C19    C     0.58759   0.16567   0.32114   0.00000  Uiso   1.00
C20    C     0.56677   0.06508   0.32933   0.00000  Uiso   1.00
C21    C     0.59671   0.32818   0.18825   0.00000  Uiso   1.00
C22    C     0.55875   0.41682   0.18266   0.00000  Uiso   1.00
C23    C     0.52471   0.43108   0.12752   0.00000  Uiso   1.00
H24    H     0.64789   0.10905   0.11929   0.00000  Uiso   1.00
H25    H     0.77681   0.12841   0.10936   0.00000  Uiso   1.00
H26    H     0.59837   0.96374   0.18681   0.00000  Uiso   1.00
H27    H     0.56953   0.21485   0.04835   0.00000  Uiso   1.00
H28    H     0.91807   0.18154   0.11945   0.00000  Uiso   1.00
H29    H     0.54178   0.83433   0.28274   0.00000  Uiso   1.00
H30    H     0.48096   0.36383   0.99077   0.00000  Uiso   1.00
H31    H     0.63487   0.35320   0.28168   0.00000  Uiso   1.00
H32    H     0.76308   0.38597   0.28067   0.00000  Uiso   1.00
H33    H     0.58463   0.22129   0.35811   0.00000  Uiso   1.00
H34    H     0.55579   0.47240   0.21965   0.00000  Uiso   1.00
H35    H     0.90692   0.39058   0.25849   0.00000  Uiso   1.00
H36    H     0.53063   0.04337   0.42178   0.00000  Uiso   1.00
H37    H     0.46982   0.57287   0.12981   0.00000  Uiso   1.00
O38    O     0.99707   0.30318   0.18538   0.00000  Uiso   1.00
O39    O     0.50339   0.84767   0.39961   0.00000  Uiso   1.00
O40    O     0.42360   0.54236   0.01655   0.00000  Uiso   1.00
N41    N     0.89785   0.22625   0.15230   0.00000  Uiso   1.00
N42    N     0.54605   0.90163   0.30497   0.00000  Uiso   1.00
N43    N     0.48918   0.39666   0.03201   0.00000  Uiso   1.00
N44    N     0.89185   0.33874   0.22712   0.00000  Uiso   1.00
N45    N     0.54005   0.01411   0.37979   0.00000  Uiso   1.00
N46    N     0.48318   0.50914   0.10682   0.00000  Uiso   1.00
C47    C     0.64855   0.66197   0.65863   0.00000  Uiso   1.00
C48    C     0.71459   0.71398   0.67528   0.00000  Uiso   1.00
C49    C     0.77682   0.69134   0.65009   0.00000  Uiso   1.00
C50    C     0.83116   0.74755   0.67145   0.00000  Uiso   1.00
C51    C     0.93488   0.81669   0.69048   0.00000  Uiso   1.00
C52    C     0.62010   0.62049   0.71888   0.00000  Uiso   1.00
C53    C     0.60286   0.51925   0.73035   0.00000  Uiso   1.00
C54    C     0.57765   0.49676   0.78843   0.00000  Uiso   1.00
C55    C     0.53462   0.42077   0.87514   0.00000  Uiso   1.00
C56    C     0.60128   0.74744   0.63844   0.00000  Uiso   1.00
C57    C     0.56820   0.75293   0.58228   0.00000  Uiso   1.00
C58    C     0.52713   0.83733   0.57263   0.00000  Uiso   1.00
C59    C     0.45487   0.95845   0.53445   0.00000  Uiso   1.00
C60    C     0.63441   0.80206   0.74137   0.00000  Uiso   1.00
C61    C     0.70691   0.79007   0.72022   0.00000  Uiso   1.00
C62    C     0.76117   0.84633   0.74163   0.00000  Uiso   1.00
C63    C     0.82347   0.82378   0.71647   0.00000  Uiso   1.00
C64    C     0.61241   0.69657   0.76382   0.00000  Uiso   1.00
C65    C     0.58722   0.67424   0.82189   0.00000  Uiso   1.00
C66    C     0.56996   0.57299   0.83345   0.00000  Uiso   1.00
C67    C     0.59359   0.82353   0.68338   0.00000  Uiso   1.00
C68    C     0.55256   0.90793   0.67382   0.00000  Uiso   1.00
C69    C     0.51943   0.91355   0.61765   0.00000  Uiso   1.00
H70    H     0.65453   0.60273   0.62365   0.00000  Uiso   1.00
H71    H     0.78274   0.63244   0.61531   0.00000  Uiso   1.00
H72    H     0.60881   0.46038   0.69557   0.00000  Uiso   1.00
H73    H     0.57416   0.69404   0.54752   0.00000  Uiso   1.00
H74    H     0.92151   0.69892   0.62591   0.00000  Uiso   1.00
H75    H     0.55474   0.33612   0.79512   0.00000  Uiso   1.00
H76    H     0.48166   0.82883   0.48292   0.00000  Uiso   1.00
H77    H     0.62843   0.86130   0.77636   0.00000  Uiso   1.00
H78    H     0.75521   0.90521   0.77640   0.00000  Uiso   1.00
H79    H     0.58128   0.73314   0.85666   0.00000  Uiso   1.00
H80    H     0.54662   0.96679   0.70861   0.00000  Uiso   1.00
H81    H     0.89916   0.92030   0.75666   0.00000  Uiso   1.00
H82    H     0.53239   0.55750   0.92586   0.00000  Uiso   1.00
H83    H     0.45932   0.05021   0.61367   0.00000  Uiso   1.00
O84    O     0.99421   0.83380   0.68857   0.00000  Uiso   1.00
O85    O     0.51301   0.35783   0.91056   0.00000  Uiso   1.00
O86    O     0.41715   0.00425   0.50097   0.00000  Uiso   1.00
N87    N     0.89885   0.74501   0.65667   0.00000  Uiso   1.00
N88    N     0.55595   0.40581   0.81487   0.00000  Uiso   1.00
N89    N     0.48762   0.86644   0.52300   0.00000  Uiso   1.00
N90    N     0.88682   0.86413   0.72702   0.00000  Uiso   1.00
N91    N     0.54393   0.52494   0.88522   0.00000  Uiso   1.00
N92    N     0.47559   0.98556   0.59335   0.00000  Uiso   1.00
C93    C     0.85500   0.82932   0.15596   0.00000  Uiso   1.00
C94    C     0.78670   0.78493   0.17289   0.00000  Uiso   1.00
C95    C     0.72603   0.81068   0.14567   0.00000  Uiso   1.00
C96    C     0.66914   0.76150   0.16770   0.00000  Uiso   1.00
C97    C     0.56252   0.70360   0.18677   0.00000  Uiso   1.00
C98    C     0.88371   0.87377   0.21534   0.00000  Uiso   1.00
C99    C     0.90460   0.97422   0.22381   0.00000  Uiso   1.00
C100   C     0.92938   0.99982   0.28157   0.00000  Uiso   1.00
C101   C     0.97341   0.07984   0.36654   0.00000  Uiso   1.00
C102   C     0.89929   0.73803   0.13964   0.00000  Uiso   1.00
C103   C     0.93331   0.72436   0.08447   0.00000  Uiso   1.00
C104   C     0.97122   0.63568   0.07850   0.00000  Uiso   1.00
C105   C     0.03944   0.50494   0.04593   0.00000  Uiso   1.00
C106   C     0.86187   0.69618   0.24348   0.00000  Uiso   1.00
C107   C     0.79044   0.71261   0.22043   0.00000  Uiso   1.00
C108   C     0.73362   0.66337   0.24250   0.00000  Uiso   1.00
C109   C     0.67287   0.68904   0.21532   0.00000  Uiso   1.00
C110   C     0.88744   0.80146   0.26288   0.00000  Uiso   1.00
C111   C     0.91220   0.82692   0.32064   0.00000  Uiso   1.00
C112   C     0.93312   0.92737   0.32920   0.00000  Uiso   1.00
C113   C     0.90302   0.66571   0.18718   0.00000  Uiso   1.00
C114   C     0.94090   0.57705   0.18130   0.00000  Uiso   1.00
C115   C     0.97495   0.56323   0.12613   0.00000  Uiso   1.00
H116   H     0.85210   0.88563   0.11895   0.00000  Uiso   1.00
H117   H     0.72316   0.86666   0.10888   0.00000  Uiso   1.00
H118   H     0.90172   0.03016   0.18701   0.00000  Uiso   1.00
H119   H     0.93041   0.78034   0.04769   0.00000  Uiso   1.00
H120   H     0.58185   0.81376   0.11870   0.00000  Uiso   1.00
H121   H     0.95836   0.15852   0.28342   0.00000  Uiso   1.00
H122   H     0.01887   0.63171   0.98964   0.00000  Uiso   1.00
H123   H     0.86477   0.63988   0.28050   0.00000  Uiso   1.00
H124   H     0.73652   0.60741   0.27929   0.00000  Uiso   1.00
H125   H     0.91508   0.77093   0.35742   0.00000  Uiso   1.00
H126   H     0.94377   0.52110   0.21810   0.00000  Uiso   1.00
H127   H     0.59270   0.60335   0.25701   0.00000  Uiso   1.00
H128   H     0.96921   0.94811   0.42174   0.00000  Uiso   1.00
H129   H     0.02971   0.42130   0.12795   0.00000  Uiso   1.00
O130   O     0.50268   0.69166   0.18416   0.00000  Uiso   1.00
O131   O     0.99666   0.14396   0.40027   0.00000  Uiso   1.00
O132   O     0.07604   0.45280   0.01483   0.00000  Uiso   1.00
N133   N     0.60201   0.76868   0.15141   0.00000  Uiso   1.00
N134   N     0.95401   0.09101   0.30542   0.00000  Uiso   1.00
N135   N     0.01059   0.59850   0.03076   0.00000  Uiso   1.00
N136   N     0.60784   0.65546   0.22583   0.00000  Uiso   1.00
N137   N     0.95985   0.97779   0.37984   0.00000  Uiso   1.00
N138   N     0.01643   0.48528   0.10519   0.00000  Uiso   1.00
C139   C     0.85154   0.33289   0.65915   0.00000  Uiso   1.00
C140   C     0.78556   0.28089   0.67600   0.00000  Uiso   1.00
C141   C     0.72330   0.30314   0.65076   0.00000  Uiso   1.00
C142   C     0.66903   0.24700   0.67234   0.00000  Uiso   1.00
C143   C     0.56539   0.17780   0.69165   0.00000  Uiso   1.00
C144   C     0.87998   0.37503   0.71924   0.00000  Uiso   1.00
C145   C     0.89712   0.47642   0.73035   0.00000  Uiso   1.00
C146   C     0.92233   0.49953   0.78834   0.00000  Uiso   1.00
C147   C     0.96533   0.57646   0.87477   0.00000  Uiso   1.00
C148   C     0.89890   0.24735   0.63924   0.00000  Uiso   1.00
C149   C     0.93195   0.24139   0.58309   0.00000  Uiso   1.00
C150   C     0.97311   0.15700   0.57372   0.00000  Uiso   1.00
C151   C     0.04547   0.03569   0.53593   0.00000  Uiso   1.00
C152   C     0.86587   0.19365   0.74237   0.00000  Uiso   1.00
C153   C     0.79335   0.20526   0.72120   0.00000  Uiso   1.00
C154   C     0.73915   0.14907   0.74283   0.00000  Uiso   1.00
C155   C     0.67682   0.17123   0.71762   0.00000  Uiso   1.00
C156   C     0.88776   0.29940   0.76445   0.00000  Uiso   1.00
C157   C     0.91296   0.32236   0.82243   0.00000  Uiso   1.00
C158   C     0.93013   0.42376   0.83362   0.00000  Uiso   1.00
C159   C     0.90668   0.17171   0.68444   0.00000  Uiso   1.00
C160   C     0.94780   0.08732   0.67516   0.00000  Uiso   1.00
C161   C     0.98090   0.08123   0.61900   0.00000  Uiso   1.00
H162   H     0.84549   0.39178   0.62396   0.00000  Uiso   1.00
H163   H     0.71730   0.36168   0.61578   0.00000  Uiso   1.00
H164   H     0.89109   0.53493   0.69536   0.00000  Uiso   1.00
H165   H     0.92592   0.29993   0.54812   0.00000  Uiso   1.00
H166   H     0.57861   0.29498   0.62666   0.00000  Uiso   1.00
H167   H     0.94508   0.66028   0.79445   0.00000  Uiso   1.00
H168   H     0.01852   0.16474   0.48396   0.00000  Uiso   1.00
H169   H     0.87193   0.13476   0.77756   0.00000  Uiso   1.00
H170   H     0.74519   0.09055   0.77781   0.00000  Uiso   1.00
H171   H     0.91898   0.26381   0.85739   0.00000  Uiso   1.00
H172   H     0.95381   0.02881   0.71015   0.00000  Uiso   1.00
H173   H     0.60124   0.07492   0.75817   0.00000  Uiso   1.00
H174   H     0.96772   0.44023   0.92597   0.00000  Uiso   1.00
H175   H     0.04116   0.94469   0.61547   0.00000  Uiso   1.00
O176   O     0.50607   0.16053   0.68982   0.00000  Uiso   1.00
O177   O     0.98688   0.63979   0.90996   0.00000  Uiso   1.00
O178   O     0.08323   0.98966   0.50260   0.00000  Uiso   1.00
N179   N     0.60133   0.24924   0.65757   0.00000  Uiso   1.00
N180   N     0.94395   0.59078   0.81445   0.00000  Uiso   1.00
N181   N     0.01263   0.12751   0.52417   0.00000  Uiso   1.00
N182   N     0.61351   0.13083   0.72834   0.00000  Uiso   1.00
N183   N     0.95613   0.47237   0.88521   0.00000  Uiso   1.00
N184   N     0.02481   0.00910   0.59494   0.00000  Uiso   1.00
C185   C     0.35509   0.66499   0.84351   0.00000  Uiso   1.00
C186   C     0.28685   0.70937   0.82639   0.00000  Uiso   1.00
C187   C     0.22613   0.68402   0.85366   0.00000  Uiso   1.00
C188   C     0.16931   0.73312   0.83143   0.00000  Uiso   1.00
C189   C     0.06276   0.79107   0.81209   0.00000  Uiso   1.00
C190   C     0.38380   0.61990   0.78431   0.00000  Uiso   1.00
C191   C     0.40460   0.51932   0.77620   0.00000  Uiso   1.00
C192   C     0.42939   0.49311   0.71854   0.00000  Uiso   1.00
C193   C     0.47340   0.41217   0.63389   0.00000  Uiso   1.00
C194   C     0.39946   0.75633   0.85954   0.00000  Uiso   1.00
C195   C     0.43345   0.77046   0.91468   0.00000  Uiso   1.00
C196   C     0.47144   0.85911   0.92036   0.00000  Uiso   1.00
C197   C     0.53977   0.99000   0.95251   0.00000  Uiso   1.00
C198   C     0.36215   0.79726   0.75553   0.00000  Uiso   1.00
C199   C     0.29069   0.78122   0.77860   0.00000  Uiso   1.00
C200   C     0.23394   0.83037   0.75632   0.00000  Uiso   1.00
C201   C     0.17314   0.80510   0.78355   0.00000  Uiso   1.00
C202   C     0.38763   0.69174   0.73652   0.00000  Uiso   1.00
C203   C     0.41241   0.66567   0.67886   0.00000  Uiso   1.00
C204   C     0.43323   0.56508   0.67067   0.00000  Uiso   1.00
C205   C     0.40329   0.82818   0.81175   0.00000  Uiso   1.00
C206   C     0.44125   0.91682   0.81734   0.00000  Uiso   1.00
C207   C     0.47529   0.93108   0.87248   0.00000  Uiso   1.00
H208   H     0.35211   0.60905   0.88071   0.00000  Uiso   1.00
H209   H     0.22319   0.62841   0.89064   0.00000  Uiso   1.00
H210   H     0.40163   0.46374   0.81319   0.00000  Uiso   1.00
H211   H     0.43047   0.71485   0.95165   0.00000  Uiso   1.00
H212   H     0.08193   0.68154   0.88055   0.00000  Uiso   1.00
H213   H     0.45822   0.33433   0.71726   0.00000  Uiso   1.00
H214   H     0.51904   0.86383   0.00923   0.00000  Uiso   1.00
H215   H     0.36513   0.85320   0.71832   0.00000  Uiso   1.00
H216   H     0.23692   0.88597   0.71933   0.00000  Uiso   1.00
H217   H     0.41537   0.72129   0.64189   0.00000  Uiso   1.00
H218   H     0.44421   0.97240   0.78035   0.00000  Uiso   1.00
H219   H     0.09308   0.89058   0.74151   0.00000  Uiso   1.00
H220   H     0.46937   0.54337   0.57822   0.00000  Uiso   1.00
H221   H     0.53018   0.07287   0.87019   0.00000  Uiso   1.00
O222   O     0.00293   0.80318   0.81462   0.00000  Uiso   1.00
O223   O     0.49661   0.34767   0.60039   0.00000  Uiso   1.00
O224   O     0.57640   0.04236   0.98345   0.00000  Uiso   1.00
N225   N     0.10215   0.72625   0.84770   0.00000  Uiso   1.00
N226   N     0.45395   0.40163   0.69503   0.00000  Uiso   1.00
N227   N     0.51082   0.89666   0.96799   0.00000  Uiso   1.00
N228   N     0.10815   0.83874   0.77288   0.00000  Uiso   1.00
N229   N     0.45995   0.51411   0.62021   0.00000  Uiso   1.00
N230   N     0.51682   0.00914   0.89318   0.00000  Uiso   1.00
C231   C     0.35145   0.16197   0.34137   0.00000  Uiso   1.00
C232   C     0.28541   0.21398   0.32472   0.00000  Uiso   1.00
C233   C     0.22318   0.19134   0.34991   0.00000  Uiso   1.00
C234   C     0.16884   0.24755   0.32855   0.00000  Uiso   1.00
C235   C     0.06512   0.31669   0.30952   0.00000  Uiso   1.00
C236   C     0.37990   0.12049   0.28112   0.00000  Uiso   1.00
C237   C     0.39714   0.01925   0.26965   0.00000  Uiso   1.00
C238   C     0.42235   0.99676   0.21157   0.00000  Uiso   1.00
C239   C     0.46538   0.92077   0.12486   0.00000  Uiso   1.00
C240   C     0.39872   0.24744   0.36156   0.00000  Uiso   1.00
C241   C     0.43180   0.25293   0.41772   0.00000  Uiso   1.00
C242   C     0.47287   0.33733   0.42737   0.00000  Uiso   1.00
C243   C     0.54513   0.45845   0.46555   0.00000  Uiso   1.00
C244   C     0.36559   0.30206   0.25863   0.00000  Uiso   1.00
C245   C     0.29309   0.29007   0.27978   0.00000  Uiso   1.00
C246   C     0.23883   0.34633   0.25837   0.00000  Uiso   1.00
C247   C     0.17653   0.32378   0.28353   0.00000  Uiso   1.00
C248   C     0.38759   0.19657   0.23618   0.00000  Uiso   1.00
C249   C     0.41278   0.17424   0.17811   0.00000  Uiso   1.00
C250   C     0.43004   0.07299   0.16655   0.00000  Uiso   1.00
C251   C     0.40641   0.32353   0.31662   0.00000  Uiso   1.00
C252   C     0.44744   0.40793   0.32618   0.00000  Uiso   1.00
C253   C     0.48057   0.41355   0.38235   0.00000  Uiso   1.00
H254   H     0.34547   0.10273   0.37635   0.00000  Uiso   1.00
H255   H     0.21726   0.13244   0.38469   0.00000  Uiso   1.00
H256   H     0.39119   0.96038   0.30443   0.00000  Uiso   1.00
H257   H     0.42584   0.19404   0.45248   0.00000  Uiso   1.00
H258   H     0.07849   0.19892   0.37409   0.00000  Uiso   1.00
H259   H     0.44526   0.83612   0.20488   0.00000  Uiso   1.00
H260   H     0.51834   0.32883   0.51708   0.00000  Uiso   1.00
H261   H     0.37157   0.36130   0.22364   0.00000  Uiso   1.00
H262   H     0.24479   0.40521   0.22360   0.00000  Uiso   1.00
H263   H     0.41872   0.23314   0.14334   0.00000  Uiso   1.00
H264   H     0.45338   0.46679   0.29139   0.00000  Uiso   1.00
H265   H     0.10084   0.42030   0.24334   0.00000  Uiso   1.00
H266   H     0.46761   0.05750   0.07414   0.00000  Uiso   1.00
H267   H     0.54068   0.55021   0.38633   0.00000  Uiso   1.00
O268   O     0.00579   0.33380   0.31143   0.00000  Uiso   1.00
O269   O     0.48699   0.85783   0.08944   0.00000  Uiso   1.00
O270   O     0.58285   0.50425   0.49903   0.00000  Uiso   1.00
N271   N     0.10115   0.24501   0.34333   0.00000  Uiso   1.00
N272   N     0.44405   0.90581   0.18513   0.00000  Uiso   1.00
N273   N     0.51238   0.36644   0.47700   0.00000  Uiso   1.00
N274   N     0.11318   0.36413   0.27298   0.00000  Uiso   1.00
N275   N     0.45607   0.02494   0.11478   0.00000  Uiso   1.00
N276   N     0.52441   0.48556   0.40665   0.00000  Uiso   1.00
C277   C     0.14500   0.32932   0.84404   0.00000  Uiso   1.00
C278   C     0.21330   0.28493   0.82711   0.00000  Uiso   1.00
C279   C     0.27397   0.31068   0.85433   0.00000  Uiso   1.00
C280   C     0.33086   0.26150   0.83230   0.00000  Uiso   1.00
C281   C     0.43748   0.20360   0.81323   0.00000  Uiso   1.00
C282   C     0.11629   0.37377   0.78466   0.00000  Uiso   1.00
C283   C     0.09540   0.47422   0.77619   0.00000  Uiso   1.00
C284   C     0.07062   0.49982   0.71843   0.00000  Uiso   1.00
C285   C     0.02659   0.57984   0.63346   0.00000  Uiso   1.00
C286   C     0.10071   0.23803   0.86036   0.00000  Uiso   1.00
C287   C     0.06669   0.22436   0.91553   0.00000  Uiso   1.00
C288   C     0.02878   0.13568   0.92150   0.00000  Uiso   1.00
C289   C     0.96056   0.00494   0.95407   0.00000  Uiso   1.00
C290   C     0.13813   0.19618   0.75652   0.00000  Uiso   1.00
C291   C     0.20956   0.21261   0.77957   0.00000  Uiso   1.00
C292   C     0.26638   0.16337   0.75750   0.00000  Uiso   1.00
C293   C     0.32713   0.18904   0.78468   0.00000  Uiso   1.00
C294   C     0.11256   0.30146   0.73712   0.00000  Uiso   1.00
C295   C     0.08780   0.32692   0.67936   0.00000  Uiso   1.00
C296   C     0.06688   0.42737   0.67080   0.00000  Uiso   1.00
C297   C     0.09698   0.16571   0.81282   0.00000  Uiso   1.00
C298   C     0.05910   0.07705   0.81870   0.00000  Uiso   1.00
C299   C     0.02505   0.06323   0.87387   0.00000  Uiso   1.00
H300   H     0.14790   0.38563   0.88105   0.00000  Uiso   1.00
H301   H     0.27684   0.36666   0.89112   0.00000  Uiso   1.00
H302   H     0.09828   0.53016   0.81299   0.00000  Uiso   1.00
H303   H     0.06959   0.28034   0.95231   0.00000  Uiso   1.00
H304   H     0.41815   0.31376   0.88130   0.00000  Uiso   1.00
H305   H     0.04164   0.65852   0.71658   0.00000  Uiso   1.00
H306   H     0.98113   0.13171   0.01036   0.00000  Uiso   1.00
H307   H     0.13523   0.13988   0.71950   0.00000  Uiso   1.00
H308   H     0.26348   0.10741   0.72071   0.00000  Uiso   1.00
H309   H     0.08492   0.27093   0.64258   0.00000  Uiso   1.00
H310   H     0.05623   0.02110   0.78190   0.00000  Uiso   1.00
H311   H     0.40730   0.10335   0.74299   0.00000  Uiso   1.00
H312   H     0.03079   0.44811   0.57826   0.00000  Uiso   1.00
H313   H     0.97029   0.92130   0.87205   0.00000  Uiso   1.00
O314   O     0.49732   0.19166   0.81584   0.00000  Uiso   1.00
O315   O     0.00334   0.64396   0.59973   0.00000  Uiso   1.00
O316   O     0.92396   0.95280   0.98517   0.00000  Uiso   1.00
N317   N     0.39799   0.26868   0.84859   0.00000  Uiso   1.00
N318   N     0.04599   0.59101   0.69458   0.00000  Uiso   1.00
N319   N     0.98941   0.09850   0.96924   0.00000  Uiso   1.00
N320   N     0.39216   0.15546   0.77417   0.00000  Uiso   1.00
N321   N     0.04015   0.47779   0.62016   0.00000  Uiso   1.00
N322   N     0.98357   0.98528   0.89481   0.00000  Uiso   1.00
C323   C     0.14846   0.83289   0.34085   0.00000  Uiso   1.00
C324   C     0.21444   0.78089   0.32400   0.00000  Uiso   1.00
C325   C     0.27670   0.80314   0.34924   0.00000  Uiso   1.00
C326   C     0.33097   0.74700   0.32766   0.00000  Uiso   1.00
C327   C     0.43461   0.67780   0.30835   0.00000  Uiso   1.00
C328   C     0.12002   0.87503   0.28076   0.00000  Uiso   1.00
C329   C     0.10288   0.97642   0.26965   0.00000  Uiso   1.00
C330   C     0.07767   0.99953   0.21166   0.00000  Uiso   1.00
C331   C     0.03467   0.07646   0.12523   0.00000  Uiso   1.00
C332   C     0.10110   0.74735   0.36076   0.00000  Uiso   1.00
C333   C     0.06805   0.74139   0.41691   0.00000  Uiso   1.00
C334   C     0.02689   0.65700   0.42628   0.00000  Uiso   1.00
C335   C     0.95453   0.53569   0.46407   0.00000  Uiso   1.00
C336   C     0.13413   0.69365   0.25763   0.00000  Uiso   1.00
C337   C     0.20665   0.70526   0.27880   0.00000  Uiso   1.00
C338   C     0.26085   0.64907   0.25717   0.00000  Uiso   1.00
C339   C     0.32318   0.67123   0.28238   0.00000  Uiso   1.00
C340   C     0.11224   0.79940   0.23555   0.00000  Uiso   1.00
C341   C     0.08704   0.82236   0.17757   0.00000  Uiso   1.00
C342   C     0.06987   0.92376   0.16638   0.00000  Uiso   1.00
C343   C     0.09332   0.67171   0.31556   0.00000  Uiso   1.00
C344   C     0.05220   0.58732   0.32484   0.00000  Uiso   1.00
C345   C     0.01910   0.58123   0.38100   0.00000  Uiso   1.00
H346   H     0.15451   0.89178   0.37604   0.00000  Uiso   1.00
H347   H     0.28270   0.86168   0.38422   0.00000  Uiso   1.00
H348   H     0.10891   0.03493   0.30464   0.00000  Uiso   1.00
H349   H     0.07408   0.79993   0.45188   0.00000  Uiso   1.00
H350   H     0.42139   0.79498   0.37334   0.00000  Uiso   1.00
H351   H     0.05492   0.16028   0.20555   0.00000  Uiso   1.00
H352   H     0.98148   0.66474   0.51604   0.00000  Uiso   1.00
H353   H     0.12807   0.63476   0.22244   0.00000  Uiso   1.00
H354   H     0.25481   0.59055   0.22219   0.00000  Uiso   1.00
H355   H     0.08102   0.76381   0.14261   0.00000  Uiso   1.00
H356   H     0.04619   0.52881   0.28985   0.00000  Uiso   1.00
H357   H     0.39876   0.57492   0.24183   0.00000  Uiso   1.00
H358   H     0.03228   0.94023   0.07403   0.00000  Uiso   1.00
H359   H     0.95884   0.44469   0.38453   0.00000  Uiso   1.00
O360   O     0.49393   0.66053   0.31018   0.00000  Uiso   1.00
O361   O     0.01312   0.13979   0.09004   0.00000  Uiso   1.00
O362   O     0.91677   0.48966   0.49740   0.00000  Uiso   1.00
N363   N     0.39867   0.74924   0.34243   0.00000  Uiso   1.00
N364   N     0.05605   0.09078   0.18555   0.00000  Uiso   1.00
N365   N     0.98737   0.62751   0.47583   0.00000  Uiso   1.00
N366   N     0.38649   0.63083   0.27166   0.00000  Uiso   1.00
N367   N     0.04387   0.97237   0.11479   0.00000  Uiso   1.00
N368   N     0.97519   0.50910   0.40506   0.00000  Uiso   1.00
