data_job_00212
_audit_creation_date              2018-12-19
_audit_creation_method            'Materials Studio'
_symmetry_space_group_name_H-M    'P1'
_symmetry_Int_Tables_number       1
_symmetry_cell_setting            triclinic
loop_
_symmetry_equiv_pos_as_xyz
  x,y,z
_cell_length_a                    12.4042
_cell_length_b                    9.7955
_cell_length_c                    23.3959
_cell_angle_alpha                 90.0000
_cell_angle_beta                  127.6515
_cell_angle_gamma                 90.0000
loop_
_atom_site_label
_atom_site_type_symbol
_atom_site_fract_x
_atom_site_fract_y
_atom_site_fract_z
_atom_site_U_iso_or_equiv
_atom_site_adp_type
_atom_site_occupancy
C1     C     0.96345   0.23809   0.69145   0.00000  Uiso   1.00
C2     C     0.07691   0.31883   0.69925   0.00000  Uiso   1.00
C3     C     0.20994   0.33019   0.76177   0.00000  Uiso   1.00
C4     C     0.29839   0.40878   0.75785   0.00000  Uiso   1.00
C5     C     0.48111   0.52434   0.77974   0.00000  Uiso   1.00
C6     C     0.84811   0.33932   0.66448   0.00000  Uiso   1.00
C7     C     0.78877   0.36789   0.69775   0.00000  Uiso   1.00
C8     C     0.68461   0.46372   0.66456   0.00000  Uiso   1.00
C9     C     0.51206   0.61103   0.63243   0.00000  Uiso   1.00
C10    C     0.91086   0.13793   0.62967   0.00000  Uiso   1.00
C11    C     0.90424   0.99717   0.63367   0.00000  Uiso   1.00
C12    C     0.85288   0.92345   0.57116   0.00000  Uiso   1.00
C13    C     0.77776   0.75807   0.48498   0.00000  Uiso   1.00
C14    C     0.88397   0.35747   0.57333   0.00000  Uiso   1.00
C15    C     0.03373   0.38367   0.63510   0.00000  Uiso   1.00
C16    C     0.12201   0.46226   0.63109   0.00000  Uiso   1.00
C17    C     0.25515   0.47373   0.69358   0.00000  Uiso   1.00
C18    C     0.80494   0.40416   0.60033   0.00000  Uiso   1.00
C19    C     0.70084   0.49997   0.56707   0.00000  Uiso   1.00
C20    C     0.64136   0.52868   0.60029   0.00000  Uiso   1.00
C21    C     0.86770   0.20277   0.56551   0.00000  Uiso   1.00
C22    C     0.81632   0.12925   0.50299   0.00000  Uiso   1.00
C23    C     0.80963   0.98841   0.50689   0.00000  Uiso   1.00
H24    H     0.99705   0.18761   0.74140   0.00000  Uiso   1.00
H25    H     0.24330   0.28000   0.81141   0.00000  Uiso   1.00
H26    H     0.82219   0.31769   0.74740   0.00000  Uiso   1.00
H27    H     0.93766   0.94703   0.68332   0.00000  Uiso   1.00
H28    H     0.49727   0.41107   0.86074   0.00000  Uiso   1.00
H29    H     0.60930   0.49050   0.72576   0.00000  Uiso   1.00
H30    H     0.85278   0.70889   0.59064   0.00000  Uiso   1.00
H31    H     0.85036   0.40795   0.52338   0.00000  Uiso   1.00
H32    H     0.08857   0.51243   0.58143   0.00000  Uiso   1.00
H33    H     0.66746   0.55012   0.51742   0.00000  Uiso   1.00
H34    H     0.78292   0.17946   0.45335   0.00000  Uiso   1.00
H35    H     0.37168   0.59972   0.67409   0.00000  Uiso   1.00
H36    H     0.48371   0.67915   0.53910   0.00000  Uiso   1.00
H37    H     0.72719   0.89755   0.40399   0.00000  Uiso   1.00
O38    O     0.59381   0.57019   0.80954   0.00000  Uiso   1.00
O39    O     0.42882   0.67438   0.63244   0.00000  Uiso   1.00
O40    O     0.74826   0.64893   0.45518   0.00000  Uiso   1.00
N41    N     0.43503   0.44111   0.80884   0.00000  Uiso   1.00
N42    N     0.60485   0.51539   0.68265   0.00000  Uiso   1.00
N43    N     0.83244   0.78465   0.55632   0.00000  Uiso   1.00
N44    N     0.36745   0.54262   0.70840   0.00000  Uiso   1.00
N45    N     0.53727   0.61690   0.58221   0.00000  Uiso   1.00
N46    N     0.76486   0.88617   0.45588   0.00000  Uiso   1.00
C47    C     0.03655   0.73809   0.80855   0.00000  Uiso   1.00
C48    C     0.92309   0.81883   0.80075   0.00000  Uiso   1.00
C49    C     0.79006   0.83019   0.73823   0.00000  Uiso   1.00
C50    C     0.70161   0.90878   0.74215   0.00000  Uiso   1.00
C51    C     0.51889   0.02434   0.72026   0.00000  Uiso   1.00
C52    C     0.15189   0.83932   0.83552   0.00000  Uiso   1.00
C53    C     0.21123   0.86789   0.80225   0.00000  Uiso   1.00
C54    C     0.31539   0.96372   0.83544   0.00000  Uiso   1.00
C55    C     0.48794   0.11103   0.86757   0.00000  Uiso   1.00
C56    C     0.08914   0.63793   0.87033   0.00000  Uiso   1.00
C57    C     0.09576   0.49717   0.86633   0.00000  Uiso   1.00
C58    C     0.14712   0.42345   0.92884   0.00000  Uiso   1.00
C59    C     0.22224   0.25807   0.01502   0.00000  Uiso   1.00
C60    C     0.11603   0.85747   0.92667   0.00000  Uiso   1.00
C61    C     0.96627   0.88367   0.86490   0.00000  Uiso   1.00
C62    C     0.87799   0.96226   0.86891   0.00000  Uiso   1.00
C63    C     0.74485   0.97373   0.80642   0.00000  Uiso   1.00
C64    C     0.19506   0.90416   0.89967   0.00000  Uiso   1.00
C65    C     0.29916   0.99997   0.93293   0.00000  Uiso   1.00
C66    C     0.35864   0.02868   0.89971   0.00000  Uiso   1.00
C67    C     0.13230   0.70277   0.93449   0.00000  Uiso   1.00
C68    C     0.18368   0.62925   0.99701   0.00000  Uiso   1.00
C69    C     0.19037   0.48841   0.99311   0.00000  Uiso   1.00
H70    H     0.00295   0.68761   0.75860   0.00000  Uiso   1.00
H71    H     0.75670   0.78000   0.68859   0.00000  Uiso   1.00
H72    H     0.17781   0.81769   0.75260   0.00000  Uiso   1.00
H73    H     0.06234   0.44703   0.81668   0.00000  Uiso   1.00
H74    H     0.50273   0.91107   0.63926   0.00000  Uiso   1.00
H75    H     0.39070   0.99050   0.77424   0.00000  Uiso   1.00
H76    H     0.14722   0.20889   0.90936   0.00000  Uiso   1.00
H77    H     0.14964   0.90795   0.97662   0.00000  Uiso   1.00
H78    H     0.91143   0.01243   0.91857   0.00000  Uiso   1.00
H79    H     0.33254   0.05012   0.98258   0.00000  Uiso   1.00
H80    H     0.21708   0.67946   0.04665   0.00000  Uiso   1.00
H81    H     0.62832   0.09972   0.82591   0.00000  Uiso   1.00
H82    H     0.51629   0.17915   0.96090   0.00000  Uiso   1.00
H83    H     0.27281   0.39755   0.09601   0.00000  Uiso   1.00
O84    O     0.40619   0.07019   0.69046   0.00000  Uiso   1.00
O85    O     0.57118   0.17438   0.86756   0.00000  Uiso   1.00
O86    O     0.25174   0.14893   0.04482   0.00000  Uiso   1.00
N87    N     0.56497   0.94111   0.69116   0.00000  Uiso   1.00
N88    N     0.39515   0.01539   0.81735   0.00000  Uiso   1.00
N89    N     0.16756   0.28465   0.94368   0.00000  Uiso   1.00
N90    N     0.63255   0.04262   0.79160   0.00000  Uiso   1.00
N91    N     0.46273   0.11690   0.91779   0.00000  Uiso   1.00
N92    N     0.23514   0.38617   0.04412   0.00000  Uiso   1.00
C93    C     0.03655   0.76191   0.30855   0.00000  Uiso   1.00
C94    C     0.92309   0.68117   0.30075   0.00000  Uiso   1.00
C95    C     0.79006   0.66981   0.23823   0.00000  Uiso   1.00
C96    C     0.70161   0.59122   0.24215   0.00000  Uiso   1.00
C97    C     0.51889   0.47566   0.22026   0.00000  Uiso   1.00
C98    C     0.15189   0.66068   0.33552   0.00000  Uiso   1.00
C99    C     0.21123   0.63211   0.30225   0.00000  Uiso   1.00
C100   C     0.31539   0.53628   0.33544   0.00000  Uiso   1.00
C101   C     0.48794   0.38897   0.36757   0.00000  Uiso   1.00
C102   C     0.08914   0.86207   0.37033   0.00000  Uiso   1.00
C103   C     0.09576   0.00283   0.36633   0.00000  Uiso   1.00
C104   C     0.14712   0.07655   0.42884   0.00000  Uiso   1.00
C105   C     0.22224   0.24193   0.51502   0.00000  Uiso   1.00
C106   C     0.11603   0.64253   0.42667   0.00000  Uiso   1.00
C107   C     0.96627   0.61633   0.36490   0.00000  Uiso   1.00
C108   C     0.87799   0.53774   0.36891   0.00000  Uiso   1.00
C109   C     0.74485   0.52627   0.30642   0.00000  Uiso   1.00
C110   C     0.19506   0.59584   0.39967   0.00000  Uiso   1.00
C111   C     0.29916   0.50003   0.43293   0.00000  Uiso   1.00
C112   C     0.35864   0.47132   0.39971   0.00000  Uiso   1.00
C113   C     0.13230   0.79723   0.43449   0.00000  Uiso   1.00
C114   C     0.18368   0.87075   0.49701   0.00000  Uiso   1.00
C115   C     0.19037   0.01159   0.49311   0.00000  Uiso   1.00
H116   H     0.00295   0.81239   0.25860   0.00000  Uiso   1.00
H117   H     0.75670   0.72000   0.18859   0.00000  Uiso   1.00
H118   H     0.17781   0.68231   0.25260   0.00000  Uiso   1.00
H119   H     0.06234   0.05297   0.31668   0.00000  Uiso   1.00
H120   H     0.50273   0.58893   0.13926   0.00000  Uiso   1.00
H121   H     0.39070   0.50950   0.27424   0.00000  Uiso   1.00
H122   H     0.14722   0.29111   0.40936   0.00000  Uiso   1.00
H123   H     0.14964   0.59205   0.47662   0.00000  Uiso   1.00
H124   H     0.91143   0.48757   0.41857   0.00000  Uiso   1.00
H125   H     0.33254   0.44988   0.48258   0.00000  Uiso   1.00
H126   H     0.21708   0.82054   0.54665   0.00000  Uiso   1.00
H127   H     0.62832   0.40028   0.32591   0.00000  Uiso   1.00
H128   H     0.51629   0.32085   0.46090   0.00000  Uiso   1.00
H129   H     0.27281   0.10245   0.59601   0.00000  Uiso   1.00
O130   O     0.40619   0.42981   0.19046   0.00000  Uiso   1.00
O131   O     0.57118   0.32562   0.36756   0.00000  Uiso   1.00
O132   O     0.25174   0.35107   0.54482   0.00000  Uiso   1.00
N133   N     0.56497   0.55889   0.19116   0.00000  Uiso   1.00
N134   N     0.39515   0.48461   0.31735   0.00000  Uiso   1.00
N135   N     0.16756   0.21535   0.44368   0.00000  Uiso   1.00
N136   N     0.63255   0.45738   0.29160   0.00000  Uiso   1.00
N137   N     0.46273   0.38310   0.41779   0.00000  Uiso   1.00
N138   N     0.23514   0.11383   0.54412   0.00000  Uiso   1.00
C139   C     0.96345   0.26191   0.19145   0.00000  Uiso   1.00
C140   C     0.07691   0.18117   0.19925   0.00000  Uiso   1.00
C141   C     0.20994   0.16981   0.26177   0.00000  Uiso   1.00
C142   C     0.29839   0.09122   0.25785   0.00000  Uiso   1.00
C143   C     0.48111   0.97566   0.27974   0.00000  Uiso   1.00
C144   C     0.84811   0.16068   0.16448   0.00000  Uiso   1.00
C145   C     0.78877   0.13211   0.19775   0.00000  Uiso   1.00
C146   C     0.68461   0.03628   0.16456   0.00000  Uiso   1.00
C147   C     0.51206   0.88897   0.13243   0.00000  Uiso   1.00
C148   C     0.91086   0.36207   0.12967   0.00000  Uiso   1.00
C149   C     0.90424   0.50283   0.13367   0.00000  Uiso   1.00
C150   C     0.85288   0.57655   0.07116   0.00000  Uiso   1.00
C151   C     0.77776   0.74193   0.98498   0.00000  Uiso   1.00
C152   C     0.88397   0.14253   0.07333   0.00000  Uiso   1.00
C153   C     0.03373   0.11633   0.13510   0.00000  Uiso   1.00
C154   C     0.12201   0.03774   0.13109   0.00000  Uiso   1.00
C155   C     0.25515   0.02627   0.19358   0.00000  Uiso   1.00
C156   C     0.80494   0.09584   0.10033   0.00000  Uiso   1.00
C157   C     0.70084   0.00003   0.06707   0.00000  Uiso   1.00
C158   C     0.64136   0.97132   0.10029   0.00000  Uiso   1.00
C159   C     0.86770   0.29723   0.06551   0.00000  Uiso   1.00
C160   C     0.81632   0.37075   0.00299   0.00000  Uiso   1.00
C161   C     0.80963   0.51159   0.00689   0.00000  Uiso   1.00
H162   H     0.99705   0.31239   0.24140   0.00000  Uiso   1.00
H163   H     0.24330   0.22000   0.31141   0.00000  Uiso   1.00
H164   H     0.82219   0.18231   0.24740   0.00000  Uiso   1.00
H165   H     0.93766   0.55297   0.18332   0.00000  Uiso   1.00
H166   H     0.49727   0.08893   0.36074   0.00000  Uiso   1.00
H167   H     0.60930   0.00950   0.22576   0.00000  Uiso   1.00
H168   H     0.85278   0.79111   0.09064   0.00000  Uiso   1.00
H169   H     0.85036   0.09205   0.02338   0.00000  Uiso   1.00
H170   H     0.08857   0.98757   0.08143   0.00000  Uiso   1.00
H171   H     0.66746   0.94988   0.01742   0.00000  Uiso   1.00
H172   H     0.78292   0.32054   0.95335   0.00000  Uiso   1.00
H173   H     0.37168   0.90028   0.17409   0.00000  Uiso   1.00
H174   H     0.48371   0.82085   0.03910   0.00000  Uiso   1.00
H175   H     0.72719   0.60245   0.90399   0.00000  Uiso   1.00
O176   O     0.59381   0.92981   0.30954   0.00000  Uiso   1.00
O177   O     0.42882   0.82562   0.13244   0.00000  Uiso   1.00
O178   O     0.74826   0.85107   0.95518   0.00000  Uiso   1.00
N179   N     0.43503   0.05889   0.30884   0.00000  Uiso   1.00
N180   N     0.60485   0.98461   0.18265   0.00000  Uiso   1.00
N181   N     0.83244   0.71535   0.05632   0.00000  Uiso   1.00
N182   N     0.36745   0.95738   0.20840   0.00000  Uiso   1.00
N183   N     0.53727   0.88310   0.08221   0.00000  Uiso   1.00
N184   N     0.76486   0.61383   0.95588   0.00000  Uiso   1.00
