data_job_06807
_audit_creation_date              2018-12-19
_audit_creation_method            'Materials Studio'
_symmetry_space_group_name_H-M    'P1'
_symmetry_Int_Tables_number       1
_symmetry_cell_setting            triclinic
loop_
_symmetry_equiv_pos_as_xyz
  x,y,z
_cell_length_a                    23.3689
_cell_length_b                    20.9464
_cell_length_c                    22.5417
_cell_angle_alpha                 112.1690
_cell_angle_beta                  103.1350
_cell_angle_gamma                 110.0570
loop_
_atom_site_label
_atom_site_type_symbol
_atom_site_fract_x
_atom_site_fract_y
_atom_site_fract_z
_atom_site_U_iso_or_equiv
_atom_site_adp_type
_atom_site_occupancy
C1     C     0.59622   0.04052   0.00617   0.00000  Uiso   1.00
C2     C     0.66806   0.08183   0.06002   0.00000  Uiso   1.00
C3     C     0.69096   0.13074   0.13165   0.00000  Uiso   1.00
C4     C     0.75847   0.16287   0.17204   0.00000  Uiso   1.00
C5     C     0.86349   0.22951   0.26024   0.00000  Uiso   1.00
C6     C     0.59905   0.06581   0.95126   0.00000  Uiso   1.00
C7     C     0.56391   0.10124   0.93143   0.00000  Uiso   1.00
C8     C     0.57332   0.11988   0.88026   0.00000  Uiso   1.00
C9     C     0.57116   0.16160   0.79957   0.00000  Uiso   1.00
C10    C     0.57581   0.95344   0.96911   0.00000  Uiso   1.00
C11    C     0.52113   0.89437   0.96428   0.00000  Uiso   1.00
C12    C     0.51098   0.81839   0.92812   0.00000  Uiso   1.00
C13    C     0.47274   0.68562   0.87514   0.00000  Uiso   1.00
C14    C     0.67540   0.01061   0.95053   0.00000  Uiso   1.00
C15    C     0.71107   0.06558   0.02979   0.00000  Uiso   1.00
C16    C     0.77857   0.09764   0.07009   0.00000  Uiso   1.00
C17    C     0.80156   0.14659   0.14176   0.00000  Uiso   1.00
C18    C     0.64206   0.04957   0.92103   0.00000  Uiso   1.00
C19    C     0.65152   0.06815   0.86987   0.00000  Uiso   1.00
C20    C     0.61641   0.10360   0.84998   0.00000  Uiso   1.00
C21    C     0.61883   0.93719   0.93889   0.00000  Uiso   1.00
C22    C     0.60875   0.86128   0.90272   0.00000  Uiso   1.00
C23    C     0.55407   0.80211   0.89784   0.00000  Uiso   1.00
H24    H     0.56273   0.05318   0.02970   0.00000  Uiso   1.00
H25    H     0.65765   0.14331   0.15502   0.00000  Uiso   1.00
H26    H     0.53062   0.11380   0.95483   0.00000  Uiso   1.00
H27    H     0.48786   0.90697   0.98767   0.00000  Uiso   1.00
H28    H     0.78187   0.23609   0.28062   0.00000  Uiso   1.00
H29    H     0.51400   0.17386   0.85849   0.00000  Uiso   1.00
H30    H     0.42382   0.73770   0.92775   0.00000  Uiso   1.00
H31    H     0.70889   0.99796   0.92700   0.00000  Uiso   1.00
H32    H     0.81184   0.08506   0.04668   0.00000  Uiso   1.00
H33    H     0.68481   0.05556   0.84649   0.00000  Uiso   1.00
H34    H     0.64204   0.84872   0.87934   0.00000  Uiso   1.00
H35    H     0.90702   0.18882   0.19270   0.00000  Uiso   1.00
H36    H     0.63914   0.12658   0.77056   0.00000  Uiso   1.00
H37    H     0.54896   0.69043   0.83982   0.00000  Uiso   1.00
O38    O     0.90953   0.27077   0.31724   0.00000  Uiso   1.00
O39    O     0.55809   0.18911   0.76341   0.00000  Uiso   1.00
O40    O     0.43977   0.61688   0.85428   0.00000  Uiso   1.00
N41    N     0.79719   0.21300   0.24351   0.00000  Uiso   1.00
N42    N     0.54676   0.15483   0.84885   0.00000  Uiso   1.00
N43    N     0.46243   0.74705   0.91358   0.00000  Uiso   1.00
N44    N     0.86453   0.18756   0.19619   0.00000  Uiso   1.00
N45    N     0.61410   0.12939   0.80153   0.00000  Uiso   1.00
N46    N     0.52977   0.72162   0.86627   0.00000  Uiso   1.00
C47    C     0.17825   0.60977   0.20337   0.00000  Uiso   1.00
C48    C     0.19041   0.68003   0.26928   0.00000  Uiso   1.00
C49    C     0.25145   0.73418   0.32613   0.00000  Uiso   1.00
C50    C     0.25215   0.79424   0.38136   0.00000  Uiso   1.00
C51    C     0.27988   0.90245   0.48397   0.00000  Uiso   1.00
C52    C     0.12431   0.53802   0.19704   0.00000  Uiso   1.00
C53    C     0.12978   0.47277   0.19314   0.00000  Uiso   1.00
C54    C     0.07483   0.41328   0.18755   0.00000  Uiso   1.00
C55    C     0.99992   0.30100   0.17795   0.00000  Uiso   1.00
C56    C     0.14651   0.61837   0.14173   0.00000  Uiso   1.00
C57    C     0.17063   0.62066   0.09130   0.00000  Uiso   1.00
C58    C     0.13437   0.62880   0.03913   0.00000  Uiso   1.00
C59    C     0.09394   0.64127   0.94366   0.00000  Uiso   1.00
C60    C     0.07095   0.62014   0.20037   0.00000  Uiso   1.00
C61    C     0.13212   0.68566   0.26766   0.00000  Uiso   1.00
C62    C     0.13273   0.74565   0.32282   0.00000  Uiso   1.00
C63    C     0.19376   0.79989   0.37973   0.00000  Uiso   1.00
C64    C     0.06602   0.54365   0.19542   0.00000  Uiso   1.00
C65    C     0.01105   0.48424   0.18983   0.00000  Uiso   1.00
C66    C     0.01644   0.41892   0.18592   0.00000  Uiso   1.00
C67    C     0.08823   0.62400   0.14010   0.00000  Uiso   1.00
C68    C     0.05191   0.63213   0.08800   0.00000  Uiso   1.00
C69    C     0.07598   0.63444   0.03750   0.00000  Uiso   1.00
H70    H     0.22363   0.60538   0.20463   0.00000  Uiso   1.00
H71    H     0.29654   0.72980   0.32737   0.00000  Uiso   1.00
H72    H     0.17488   0.46843   0.19439   0.00000  Uiso   1.00
H73    H     0.21574   0.61630   0.09258   0.00000  Uiso   1.00
H74    H     0.35168   0.87020   0.46274   0.00000  Uiso   1.00
H75    H     0.09514   0.31907   0.18232   0.00000  Uiso   1.00
H76    H     0.18129   0.63088   0.96763   0.00000  Uiso   1.00
H77    H     0.02557   0.62452   0.19911   0.00000  Uiso   1.00
H78    H     0.08762   0.75000   0.32154   0.00000  Uiso   1.00
H79    H     0.96596   0.48862   0.18856   0.00000  Uiso   1.00
H80    H     0.00681   0.63649   0.08675   0.00000  Uiso   1.00
H81    H     0.18210   0.88660   0.45801   0.00000  Uiso   1.00
H82    H     0.92557   0.33546   0.17759   0.00000  Uiso   1.00
H83    H     0.01172   0.64727   0.96290   0.00000  Uiso   1.00
O84    O     0.31128   0.96058   0.54103   0.00000  Uiso   1.00
O85    O     0.97471   0.23751   0.17312   0.00000  Uiso   1.00
O86    O     0.08774   0.64660   0.89145   0.00000  Uiso   1.00
N87    N     0.30325   0.85685   0.44482   0.00000  Uiso   1.00
N88    N     0.06341   0.34158   0.18266   0.00000  Uiso   1.00
N89    N     0.14395   0.63308   0.98192   0.00000  Uiso   1.00
N90    N     0.21201   0.86567   0.44227   0.00000  Uiso   1.00
N91    N     0.97217   0.35040   0.18011   0.00000  Uiso   1.00
N92    N     0.05270   0.64190   0.97938   0.00000  Uiso   1.00
C93    C     0.14095   0.77548   0.54649   0.00000  Uiso   1.00
C94    C     0.19805   0.83727   0.61821   0.00000  Uiso   1.00
C95    C     0.23901   0.91441   0.63806   0.00000  Uiso   1.00
C96    C     0.28841   0.96171   0.70602   0.00000  Uiso   1.00
C97    C     0.37586   0.06204   0.81033   0.00000  Uiso   1.00
C98    C     0.15611   0.70729   0.51940   0.00000  Uiso   1.00
C99    C     0.16180   0.67513   0.45616   0.00000  Uiso   1.00
C100   C     0.17588   0.61301   0.44095   0.00000  Uiso   1.00
C101   C     0.19817   0.51151   0.39182   0.00000  Uiso   1.00
C102   C     0.07891   0.74543   0.56037   0.00000  Uiso   1.00
C103   C     0.01968   0.74532   0.53157   0.00000  Uiso   1.00
C104   C     0.96876   0.71529   0.55084   0.00000  Uiso   1.00
C105   C     0.87118   0.67301   0.56533   0.00000  Uiso   1.00
C106   C     0.15586   0.72231   0.63190   0.00000  Uiso   1.00
C107   C     0.20615   0.80839   0.66460   0.00000  Uiso   1.00
C108   C     0.25550   0.85559   0.73256   0.00000  Uiso   1.00
C109   C     0.29652   0.93278   0.75250   0.00000  Uiso   1.00
C110   C     0.16421   0.67841   0.56579   0.00000  Uiso   1.00
C111   C     0.17828   0.61631   0.55066   0.00000  Uiso   1.00
C112   C     0.18399   0.58408   0.48742   0.00000  Uiso   1.00
C113   C     0.08701   0.71655   0.60677   0.00000  Uiso   1.00
C114   C     0.03617   0.68651   0.62608   0.00000  Uiso   1.00
C115   C     0.97687   0.68636   0.59731   0.00000  Uiso   1.00
H116   H     0.13465   0.79795   0.51036   0.00000  Uiso   1.00
H117   H     0.23273   0.93673   0.60214   0.00000  Uiso   1.00
H118   H     0.15552   0.69749   0.42027   0.00000  Uiso   1.00
H119   H     0.01343   0.76767   0.49567   0.00000  Uiso   1.00
H120   H     0.34506   0.07785   0.72434   0.00000  Uiso   1.00
H121   H     0.18224   0.57338   0.34085   0.00000  Uiso   1.00
H122   H     0.88260   0.72137   0.49984   0.00000  Uiso   1.00
H123   H     0.16216   0.69983   0.66802   0.00000  Uiso   1.00
H124   H     0.26175   0.83323   0.76845   0.00000  Uiso   1.00
H125   H     0.18454   0.59398   0.58658   0.00000  Uiso   1.00
H126   H     0.04245   0.66417   0.66198   0.00000  Uiso   1.00
H127   H     0.36861   0.99384   0.85932   0.00000  Uiso   1.00
H128   H     0.20579   0.48936   0.47582   0.00000  Uiso   1.00
H129   H     0.90615   0.63736   0.63483   0.00000  Uiso   1.00
O130   O     0.42187   0.12536   0.85504   0.00000  Uiso   1.00
O131   O     0.20824   0.46350   0.35191   0.00000  Uiso   1.00
O132   O     0.81513   0.65767   0.56051   0.00000  Uiso   1.00
N133   N     0.33693   0.03977   0.74233   0.00000  Uiso   1.00
N134   N     0.18471   0.56813   0.38379   0.00000  Uiso   1.00
N135   N     0.90457   0.70647   0.53243   0.00000  Uiso   1.00
N136   N     0.34960   0.99457   0.81496   0.00000  Uiso   1.00
N137   N     0.19738   0.52293   0.45642   0.00000  Uiso   1.00
N138   N     0.91724   0.66127   0.60506   0.00000  Uiso   1.00
C139   C     0.03952   0.34338   0.61106   0.00000  Uiso   1.00
C140   C     0.10834   0.41155   0.66468   0.00000  Uiso   1.00
C141   C     0.12394   0.48983   0.69952   0.00000  Uiso   1.00
C142   C     0.18980   0.54330   0.74659   0.00000  Uiso   1.00
C143   C     0.28929   0.65281   0.82809   0.00000  Uiso   1.00
C144   C     0.02284   0.28624   0.63870   0.00000  Uiso   1.00
C145   C     0.96655   0.25915   0.65168   0.00000  Uiso   1.00
C146   C     0.96044   0.20712   0.67687   0.00000  Uiso   1.00
C147   C     0.92716   0.12204   0.71798   0.00000  Uiso   1.00
C148   C     0.04851   0.30202   0.54464   0.00000  Uiso   1.00
C149   C     0.01379   0.28817   0.47853   0.00000  Uiso   1.00
C150   C     0.02928   0.24940   0.42453   0.00000  Uiso   1.00
C151   C     0.03586   0.18881   0.31960   0.00000  Uiso   1.00
C152   C     0.12874   0.29914   0.63271   0.00000  Uiso   1.00
C153   C     0.15680   0.38752   0.67644   0.00000  Uiso   1.00
C154   C     0.22266   0.44089   0.72348   0.00000  Uiso   1.00
C155   C     0.23835   0.51923   0.75837   0.00000  Uiso   1.00
C156   C     0.07130   0.26222   0.65046   0.00000  Uiso   1.00
C157   C     0.06526   0.21021   0.67564   0.00000  Uiso   1.00
C158   C     0.00898   0.18305   0.68866   0.00000  Uiso   1.00
C159   C     0.09697   0.27799   0.55640   0.00000  Uiso   1.00
C160   C     0.11251   0.23923   0.50249   0.00000  Uiso   1.00
C161   C     0.07783   0.22533   0.43631   0.00000  Uiso   1.00
H162   H     0.00179   0.36208   0.60190   0.00000  Uiso   1.00
H163   H     0.08642   0.50840   0.69040   0.00000  Uiso   1.00
H164   H     0.92906   0.27775   0.64256   0.00000  Uiso   1.00
H165   H     0.97630   0.30677   0.46945   0.00000  Uiso   1.00
H166   H     0.20163   0.66002   0.79373   0.00000  Uiso   1.00
H167   H     0.86980   0.17367   0.69284   0.00000  Uiso   1.00
H168   H     0.96940   0.23485   0.32778   0.00000  Uiso   1.00
H169   H     0.16647   0.28043   0.64187   0.00000  Uiso   1.00
H170   H     0.26015   0.42228   0.73257   0.00000  Uiso   1.00
H171   H     0.10277   0.19163   0.68473   0.00000  Uiso   1.00
H172   H     0.15001   0.22065   0.51161   0.00000  Uiso   1.00
H173   H     0.34262   0.59012   0.82796   0.00000  Uiso   1.00
H174   H     0.01079   0.10376   0.72706   0.00000  Uiso   1.00
H175   H     0.11040   0.16495   0.36201   0.00000  Uiso   1.00
O176   O     0.33077   0.71985   0.86980   0.00000  Uiso   1.00
O177   O     0.89542   0.08176   0.73742   0.00000  Uiso   1.00
O178   O     0.02610   0.16204   0.25848   0.00000  Uiso   1.00
N179   N     0.22196   0.62411   0.78933   0.00000  Uiso   1.00
N180   N     0.91172   0.16940   0.69501   0.00000  Uiso   1.00
N181   N     0.00483   0.22659   0.35371   0.00000  Uiso   1.00
N182   N     0.29783   0.58650   0.80774   0.00000  Uiso   1.00
N183   N     0.98759   0.13179   0.71342   0.00000  Uiso   1.00
N184   N     0.08070   0.18898   0.37212   0.00000  Uiso   1.00
C185   C     0.55056   0.47037   0.07921   0.00000  Uiso   1.00
C186   C     0.60260   0.52055   0.15498   0.00000  Uiso   1.00
C187   C     0.67120   0.55094   0.17612   0.00000  Uiso   1.00
C188   C     0.71036   0.59541   0.24789   0.00000  Uiso   1.00
C189   C     0.79551   0.67130   0.35812   0.00000  Uiso   1.00
C190   C     0.51032   0.51276   0.07093   0.00000  Uiso   1.00
C191   C     0.50132   0.53658   0.02138   0.00000  Uiso   1.00
C192   C     0.46279   0.57448   0.02239   0.00000  Uiso   1.00
C193   C     0.40462   0.63822   0.00209   0.00000  Uiso   1.00
C194   C     0.50282   0.39491   0.07332   0.00000  Uiso   1.00
C195   C     0.48750   0.31963   0.02577   0.00000  Uiso   1.00
C196   C     0.44264   0.25831   0.02878   0.00000  Uiso   1.00
C197   C     0.37283   0.13907   0.01218   0.00000  Uiso   1.00
C198   C     0.49813   0.49532   0.16909   0.00000  Uiso   1.00
C199   C     0.57412   0.53411   0.20380   0.00000  Uiso   1.00
C200   C     0.61319   0.57854   0.27556   0.00000  Uiso   1.00
C201   C     0.68183   0.60898   0.29680   0.00000  Uiso   1.00
C202   C     0.48184   0.52631   0.11974   0.00000  Uiso   1.00
C203   C     0.44331   0.56418   0.12082   0.00000  Uiso   1.00
C204   C     0.43425   0.58806   0.07130   0.00000  Uiso   1.00
C205   C     0.47434   0.40846   0.12213   0.00000  Uiso   1.00
C206   C     0.42949   0.34724   0.12521   0.00000  Uiso   1.00
C207   C     0.41411   0.27189   0.07768   0.00000  Uiso   1.00
H208   H     0.57273   0.45982   0.04120   0.00000  Uiso   1.00
H209   H     0.69322   0.54044   0.13832   0.00000  Uiso   1.00
H210   H     0.52336   0.52607   0.98361   0.00000  Uiso   1.00
H211   H     0.50955   0.30917   0.98800   0.00000  Uiso   1.00
H212   H     0.81425   0.63582   0.26753   0.00000  Uiso   1.00
H213   H     0.45607   0.60551   0.94128   0.00000  Uiso   1.00
H214   H     0.42694   0.14812   0.95054   0.00000  Uiso   1.00
H215   H     0.47595   0.50588   0.20709   0.00000  Uiso   1.00
H216   H     0.59113   0.58902   0.31332   0.00000  Uiso   1.00
H217   H     0.42127   0.57466   0.15860   0.00000  Uiso   1.00
H218   H     0.40746   0.35775   0.16299   0.00000  Uiso   1.00
H219   H     0.73139   0.67525   0.40956   0.00000  Uiso   1.00
H220   H     0.37321   0.64494   0.08332   0.00000  Uiso   1.00
H221   H     0.34408   0.18755   0.09257   0.00000  Uiso   1.00
O222   O     0.85034   0.70942   0.40543   0.00000  Uiso   1.00
O223   O     0.38041   0.66964   0.97740   0.00000  Uiso   1.00
O224   O     0.34220   0.06956   0.98955   0.00000  Uiso   1.00
N225   N     0.77894   0.63368   0.28638   0.00000  Uiso   1.00
N226   N     0.44407   0.60535   0.98137   0.00000  Uiso   1.00
N227   N     0.41683   0.17772   0.99001   0.00000  Uiso   1.00
N228   N     0.73436   0.65489   0.36280   0.00000  Uiso   1.00
N229   N     0.39949   0.62657   0.05779   0.00000  Uiso   1.00
N230   N     0.37224   0.19894   0.06643   0.00000  Uiso   1.00
C231   C     0.63921   0.05351   0.61565   0.00000  Uiso   1.00
C232   C     0.69955   0.13112   0.64054   0.00000  Uiso   1.00
C233   C     0.73874   0.19035   0.70984   0.00000  Uiso   1.00
C234   C     0.79171   0.25680   0.72173   0.00000  Uiso   1.00
C235   C     0.88341   0.37624   0.76883   0.00000  Uiso   1.00
C236   C     0.65371   0.98951   0.57293   0.00000  Uiso   1.00
C237   C     0.65436   0.92967   0.58537   0.00000  Uiso   1.00
C238   C     0.66874   0.87692   0.54034   0.00000  Uiso   1.00
C239   C     0.68923   0.77647   0.48242   0.00000  Uiso   1.00
C240   C     0.58107   0.04860   0.56350   0.00000  Uiso   1.00
C241   C     0.52063   0.03843   0.56801   0.00000  Uiso   1.00
C242   C     0.47384   0.03541   0.51503   0.00000  Uiso   1.00
C243   C     0.38154   0.02672   0.44248   0.00000  Uiso   1.00
C244   C     0.66359   0.06621   0.51354   0.00000  Uiso   1.00
C245   C     0.71279   0.13801   0.58508   0.00000  Uiso   1.00
C246   C     0.76572   0.20440   0.59687   0.00000  Uiso   1.00
C247   C     0.80498   0.26372   0.66617   0.00000  Uiso   1.00
C248   C     0.66696   0.99640   0.51747   0.00000  Uiso   1.00
C249   C     0.68134   0.94372   0.47240   0.00000  Uiso   1.00
C250   C     0.68201   0.88383   0.48477   0.00000  Uiso   1.00
C251   C     0.59432   0.05550   0.50804   0.00000  Uiso   1.00
C252   C     0.54761   0.05249   0.45504   0.00000  Uiso   1.00
C253   C     0.48711   0.04232   0.45946   0.00000  Uiso   1.00
H254   H     0.62889   0.04813   0.65883   0.00000  Uiso   1.00
H255   H     0.72848   0.18498   0.75275   0.00000  Uiso   1.00
H256   H     0.64410   0.92434   0.62829   0.00000  Uiso   1.00
H257   H     0.51039   0.03310   0.61093   0.00000  Uiso   1.00
H258   H     0.84473   0.33973   0.83242   0.00000  Uiso   1.00
H259   H     0.66681   0.79015   0.56998   0.00000  Uiso   1.00
H260   H     0.38486   0.01947   0.53338   0.00000  Uiso   1.00
H261   H     0.67390   0.07158   0.47036   0.00000  Uiso   1.00
H262   H     0.77596   0.20972   0.55394   0.00000  Uiso   1.00
H263   H     0.69158   0.94908   0.42948   0.00000  Uiso   1.00
H264   H     0.55788   0.05783   0.41213   0.00000  Uiso   1.00
H265   H     0.88327   0.35981   0.67106   0.00000  Uiso   1.00
H266   H     0.70534   0.81022   0.40862   0.00000  Uiso   1.00
H267   H     0.42339   0.03955   0.37202   0.00000  Uiso   1.00
O268   O     0.93034   0.44021   0.81012   0.00000  Uiso   1.00
O269   O     0.69689   0.71917   0.46581   0.00000  Uiso   1.00
O270   O     0.32698   0.02004   0.41779   0.00000  Uiso   1.00
N271   N     0.83979   0.32551   0.78297   0.00000  Uiso   1.00
N272   N     0.67345   0.81169   0.53762   0.00000  Uiso   1.00
N273   N     0.40984   0.02606   0.50339   0.00000  Uiso   1.00
N274   N     0.86053   0.33631   0.69615   0.00000  Uiso   1.00
N275   N     0.69419   0.82249   0.45079   0.00000  Uiso   1.00
N276   N     0.43058   0.03686   0.41656   0.00000  Uiso   1.00
C277   C     0.40816   0.99989   0.19058   0.00000  Uiso   1.00
C278   C     0.35310   0.94263   0.11676   0.00000  Uiso   1.00
C279   C     0.36001   0.93180   0.05465   0.00000  Uiso   1.00
C280   C     0.30368   0.87659   0.99251   0.00000  Uiso   1.00
C281   C     0.22748   0.79415   0.87787   0.00000  Uiso   1.00
C282   C     0.41259   0.95099   0.22554   0.00000  Uiso   1.00
C283   C     0.46953   0.94722   0.25490   0.00000  Uiso   1.00
C284   C     0.46328   0.89905   0.28433   0.00000  Uiso   1.00
C285   C     0.47945   0.82965   0.33863   0.00000  Uiso   1.00
C286   C     0.38182   0.05204   0.22950   0.00000  Uiso   1.00
C287   C     0.41289   0.13322   0.26221   0.00000  Uiso   1.00
C288   C     0.38074   0.17013   0.29500   0.00000  Uiso   1.00
C289   C     0.34913   0.25762   0.35545   0.00000  Uiso   1.00
C290   C     0.29583   0.92108   0.19066   0.00000  Uiso   1.00
C291   C     0.29209   0.89982   0.11680   0.00000  Uiso   1.00
C292   C     0.23573   0.84461   0.05474   0.00000  Uiso   1.00
C293   C     0.24256   0.83370   0.99255   0.00000  Uiso   1.00
C294   C     0.35158   0.90819   0.22558   0.00000  Uiso   1.00
C295   C     0.34525   0.86002   0.25499   0.00000  Uiso   1.00
C296   C     0.40216   0.85616   0.28438   0.00000  Uiso   1.00
C297   C     0.32081   0.00923   0.22954   0.00000  Uiso   1.00
C298   C     0.28861   0.04602   0.26230   0.00000  Uiso   1.00
C299   C     0.31962   0.12724   0.29505   0.00000  Uiso   1.00
H300   H     0.45566   0.03322   0.19055   0.00000  Uiso   1.00
H301   H     0.40724   0.96494   0.05464   0.00000  Uiso   1.00
H302   H     0.51673   0.98036   0.25486   0.00000  Uiso   1.00
H303   H     0.46010   0.16633   0.26217   0.00000  Uiso   1.00
H304   H     0.32665   0.87034   0.90397   0.00000  Uiso   1.00
H305   H     0.55754   0.90287   0.32618   0.00000  Uiso   1.00
H306   H     0.43812   0.29503   0.34159   0.00000  Uiso   1.00
H307   H     0.24833   0.88775   0.19070   0.00000  Uiso   1.00
H308   H     0.18853   0.81149   0.05479   0.00000  Uiso   1.00
H309   H     0.29803   0.82690   0.25501   0.00000  Uiso   1.00
H310   H     0.24140   0.01288   0.26232   0.00000  Uiso   1.00
H311   H     0.14914   0.74579   0.90409   0.00000  Uiso   1.00
H312   H     0.38003   0.77832   0.32630   0.00000  Uiso   1.00
H313   H     0.26061   0.17048   0.34171   0.00000  Uiso   1.00
O314   O     0.20230   0.76050   0.81463   0.00000  Uiso   1.00
O315   O     0.50522   0.80319   0.36855   0.00000  Uiso   1.00
O316   O     0.34854   0.31770   0.38877   0.00000  Uiso   1.00
N317   N     0.29307   0.85150   0.92265   0.00000  Uiso   1.00
N318   N     0.50894   0.88191   0.31738   0.00000  Uiso   1.00
N319   N     0.39730   0.24855   0.33181   0.00000  Uiso   1.00
N320   N     0.19756   0.78448   0.92272   0.00000  Uiso   1.00
N321   N     0.41342   0.81489   0.31745   0.00000  Uiso   1.00
N322   N     0.30179   0.18153   0.33187   0.00000  Uiso   1.00
C323   C     0.16774   0.30176   0.06153   0.00000  Uiso   1.00
C324   C     0.09682   0.27543   0.01370   0.00000  Uiso   1.00
C325   C     0.06914   0.32417   0.01258   0.00000  Uiso   1.00
C326   C     0.00345   0.28871   0.96498   0.00000  Uiso   1.00
C327   C     0.89891   0.26019   0.89751   0.00000  Uiso   1.00
C328   C     0.19943   0.27077   0.01308   0.00000  Uiso   1.00
C329   C     0.25805   0.31559   0.01143   0.00000  Uiso   1.00
C330   C     0.27874   0.27620   0.96331   0.00000  Uiso   1.00
C331   C     0.33354   0.24043   0.89491   0.00000  Uiso   1.00
C332   C     0.16074   0.25655   0.10124   0.00000  Uiso   1.00
C333   C     0.18683   0.28941   0.17373   0.00000  Uiso   1.00
C334   C     0.17495   0.23805   0.19984   0.00000  Uiso   1.00
C335   C     0.16967   0.18021   0.26833   0.00000  Uiso   1.00
C336   C     0.10027   0.15213   0.97900   0.00000  Uiso   1.00
C337   C     0.06017   0.19415   0.96888   0.00000  Uiso   1.00
C338   C     0.99450   0.15861   0.92127   0.00000  Uiso   1.00
C339   C     0.96674   0.20729   0.92007   0.00000  Uiso   1.00
C340   C     0.16279   0.18949   0.96825   0.00000  Uiso   1.00
C341   C     0.18340   0.15003   0.92012   0.00000  Uiso   1.00
C342   C     0.24203   0.19478   0.91840   0.00000  Uiso   1.00
C343   C     0.12409   0.17527   0.05642   0.00000  Uiso   1.00
C344   C     0.11218   0.12385   0.08242   0.00000  Uiso   1.00
C345   C     0.13824   0.15663   0.15493   0.00000  Uiso   1.00
H346   H     0.19627   0.36504   0.09643   0.00000  Uiso   1.00
H347   H     0.09752   0.38706   0.04727   0.00000  Uiso   1.00
H348   H     0.28640   0.37848   0.04613   0.00000  Uiso   1.00
H349   H     0.21518   0.35231   0.20840   0.00000  Uiso   1.00
H350   H     0.97189   0.37564   0.97299   0.00000  Uiso   1.00
H351   H     0.37015   0.35754   0.97060   0.00000  Uiso   1.00
H352   H     0.21999   0.30236   0.31278   0.00000  Uiso   1.00
H353   H     0.07174   0.08885   0.94410   0.00000  Uiso   1.00
H354   H     0.96616   0.09571   0.88658   0.00000  Uiso   1.00
H355   H     0.15504   0.08713   0.88544   0.00000  Uiso   1.00
H356   H     0.08382   0.06096   0.04771   0.00000  Uiso   1.00
H357   H     0.86527   0.13917   0.84257   0.00000  Uiso   1.00
H358   H     0.26354   0.12107   0.84018   0.00000  Uiso   1.00
H359   H     0.11337   0.06588   0.18236   0.00000  Uiso   1.00
O360   O     0.85137   0.26691   0.87268   0.00000  Uiso   1.00
O361   O     0.37389   0.24316   0.86956   0.00000  Uiso   1.00
O362   O     0.17687   0.17076   0.31849   0.00000  Uiso   1.00
N363   N     0.96128   0.31904   0.95020   0.00000  Uiso   1.00
N364   N     0.33363   0.30212   0.94796   0.00000  Uiso   1.00
N365   N     0.19325   0.25053   0.26787   0.00000  Uiso   1.00
N366   N     0.90391   0.19180   0.88002   0.00000  Uiso   1.00
N367   N     0.27626   0.17488   0.87778   0.00000  Uiso   1.00
N368   N     0.13588   0.12329   0.19769   0.00000  Uiso   1.00
C369   C     0.04473   0.94617   0.45047   0.00000  Uiso   1.00
C370   C     0.01407   0.87487   0.37752   0.00000  Uiso   1.00
C371   C     0.99218   0.79779   0.36255   0.00000  Uiso   1.00
C372   C     0.96563   0.74097   0.29243   0.00000  Uiso   1.00
C373   C     0.91867   0.62726   0.18724   0.00000  Uiso   1.00
C374   C     0.00187   0.98674   0.44755   0.00000  Uiso   1.00
C375   C     0.96973   0.00373   0.49147   0.00000  Uiso   1.00
C376   C     0.93292   0.04109   0.48032   0.00000  Uiso   1.00
C377   C     0.86706   0.10111   0.48388   0.00000  Uiso   1.00
C378   C     0.11260   0.00169   0.45926   0.00000  Uiso   1.00
C379   C     0.17357   0.03127   0.51304   0.00000  Uiso   1.00
C380   C     0.22998   0.08123   0.51176   0.00000  Uiso   1.00
C381   C     0.33605   0.16446   0.53351   0.00000  Uiso   1.00
C382   C     0.03650   0.98232   0.35258   0.00000  Uiso   1.00
C383   C     0.00960   0.89450   0.32435   0.00000  Uiso   1.00
C384   C     0.98307   0.83778   0.25424   0.00000  Uiso   1.00
C385   C     0.96115   0.76064   0.23916   0.00000  Uiso   1.00
C386   C     0.99740   0.00637   0.39438   0.00000  Uiso   1.00
C387   C     0.96062   0.04372   0.38316   0.00000  Uiso   1.00
C388   C     0.92844   0.06076   0.42705   0.00000  Uiso   1.00
C389   C     0.10813   0.02132   0.40609   0.00000  Uiso   1.00
C390   C     0.16446   0.07125   0.40473   0.00000  Uiso   1.00
C391   C     0.22550   0.10090   0.45849   0.00000  Uiso   1.00
H392   H     0.04821   0.93089   0.49187   0.00000  Uiso   1.00
H393   H     0.99565   0.78262   0.40371   0.00000  Uiso   1.00
H394   H     0.97321   0.98854   0.53262   0.00000  Uiso   1.00
H395   H     0.17701   0.01606   0.55418   0.00000  Uiso   1.00
H396   H     0.93537   0.62689   0.28252   0.00000  Uiso   1.00
H397   H     0.88808   0.06109   0.55434   0.00000  Uiso   1.00
H398   H     0.31784   0.11914   0.59981   0.00000  Uiso   1.00
H399   H     0.03301   0.99761   0.31118   0.00000  Uiso   1.00
H400   H     0.97962   0.85299   0.21310   0.00000  Uiso   1.00
H401   H     0.95718   0.05891   0.34201   0.00000  Uiso   1.00
H402   H     0.16098   0.08643   0.36357   0.00000  Uiso   1.00
H403   H     0.92236   0.68401   0.12781   0.00000  Uiso   1.00
H404   H     0.87507   0.11821   0.39964   0.00000  Uiso   1.00
H405   H     0.30483   0.17626   0.44511   0.00000  Uiso   1.00
O406   O     0.89399   0.55911   0.14390   0.00000  Uiso   1.00
O407   O     0.83196   0.12878   0.50054   0.00000  Uiso   1.00
O408   O     0.39580   0.20494   0.56019   0.00000  Uiso   1.00
N409   N     0.93965   0.66018   0.25957   0.00000  Uiso   1.00
N410   N     0.89543   0.06612   0.51370   0.00000  Uiso   1.00
N411   N     0.29722   0.12041   0.55622   0.00000  Uiso   1.00
N412   N     0.93265   0.69092   0.17632   0.00000  Uiso   1.00
N413   N     0.88843   0.09686   0.43045   0.00000  Uiso   1.00
N414   N     0.29022   0.15114   0.47298   0.00000  Uiso   1.00
C415   C     0.89808   0.41123   0.53256   0.00000  Uiso   1.00
C416   C     0.83170   0.33572   0.48848   0.00000  Uiso   1.00
C417   C     0.82358   0.26041   0.46549   0.00000  Uiso   1.00
C418   C     0.75876   0.19906   0.42573   0.00000  Uiso   1.00
C419   C     0.66402   0.07976   0.35972   0.00000  Uiso   1.00
C420   C     0.90211   0.45440   0.49099   0.00000  Uiso   1.00
C421   C     0.95319   0.47887   0.47013   0.00000  Uiso   1.00
C422   C     0.94765   0.51743   0.43249   0.00000  Uiso   1.00
C423   C     0.96224   0.58242   0.37042   0.00000  Uiso   1.00
C424   C     0.89144   0.46068   0.59782   0.00000  Uiso   1.00
C425   C     0.93356   0.49046   0.66679   0.00000  Uiso   1.00
C426   C     0.91904   0.53432   0.71910   0.00000  Uiso   1.00
C427   C     0.91706   0.60906   0.82290   0.00000  Uiso   1.00
C428   C     0.79742   0.43620   0.50283   0.00000  Uiso   1.00
C429   C     0.77703   0.34929   0.47233   0.00000  Uiso   1.00
C430   C     0.71221   0.28804   0.43260   0.00000  Uiso   1.00
C431   C     0.70399   0.21265   0.40956   0.00000  Uiso   1.00
C432   C     0.84744   0.46796   0.47484   0.00000  Uiso   1.00
C433   C     0.84182   0.50649   0.43723   0.00000  Uiso   1.00
C434   C     0.89287   0.53102   0.41631   0.00000  Uiso   1.00
C435   C     0.83677   0.47424   0.58168   0.00000  Uiso   1.00
C436   C     0.82218   0.51807   0.63389   0.00000  Uiso   1.00
C437   C     0.86426   0.54791   0.70292   0.00000  Uiso   1.00
H438   H     0.94065   0.40067   0.54513   0.00000  Uiso   1.00
H439   H     0.86590   0.24994   0.47799   0.00000  Uiso   1.00
H440   H     0.99550   0.46837   0.48263   0.00000  Uiso   1.00
H441   H     0.97586   0.47995   0.67926   0.00000  Uiso   1.00
H442   H     0.75892   0.08881   0.39642   0.00000  Uiso   1.00
H443   H     0.03219   0.54940   0.40623   0.00000  Uiso   1.00
H444   H     0.99079   0.57382   0.82085   0.00000  Uiso   1.00
H445   H     0.75486   0.44676   0.49026   0.00000  Uiso   1.00
H446   H     0.66991   0.29855   0.42011   0.00000  Uiso   1.00
H447   H     0.79951   0.51698   0.42475   0.00000  Uiso   1.00
H448   H     0.77987   0.52856   0.62138   0.00000  Uiso   1.00
H449   H     0.59985   0.12826   0.34944   0.00000  Uiso   1.00
H450   H     0.87312   0.58886   0.35925   0.00000  Uiso   1.00
H451   H     0.83172   0.61327   0.77387   0.00000  Uiso   1.00
O452   O     0.62686   0.01021   0.32776   0.00000  Uiso   1.00
O453   O     0.98539   0.61450   0.34063   0.00000  Uiso   1.00
O454   O     0.93107   0.64653   0.88461   0.00000  Uiso   1.00
N455   N     0.73314   0.11843   0.39500   0.00000  Uiso   1.00
N456   N     0.98863   0.54905   0.40416   0.00000  Uiso   1.00
N457   N     0.94993   0.57190   0.79180   0.00000  Uiso   1.00
N458   N     0.64754   0.13966   0.36972   0.00000  Uiso   1.00
N459   N     0.90303   0.57028   0.37888   0.00000  Uiso   1.00
N460   N     0.86433   0.59312   0.76652   0.00000  Uiso   1.00
C461   C     0.67036   0.48980   0.96117   0.00000  Uiso   1.00
C462   C     0.61091   0.42374   0.89259   0.00000  Uiso   1.00
C463   C     0.55526   0.36450   0.88624   0.00000  Uiso   1.00
C464   C     0.50628   0.30957   0.81889   0.00000  Uiso   1.00
C465   C     0.41299   0.20634   0.72135   0.00000  Uiso   1.00
C466   C     0.73193   0.48512   0.95261   0.00000  Uiso   1.00
C467   C     0.77803   0.47750   0.99673   0.00000  Uiso   1.00
C468   C     0.83092   0.47426   0.97990   0.00000  Uiso   1.00
C469   C     0.92555   0.46637   0.97557   0.00000  Uiso   1.00
C470   C     0.67644   0.56587   0.96408   0.00000  Uiso   1.00
C471   C     0.67592   0.62616   0.01785   0.00000  Uiso   1.00
C472   C     0.68212   0.69091   0.01068   0.00000  Uiso   1.00
C473   C     0.69060   0.80840   0.02416   0.00000  Uiso   1.00
C474   C     0.68232   0.49760   0.85285   0.00000  Uiso   1.00
C475   C     0.61741   0.42798   0.83376   0.00000  Uiso   1.00
C476   C     0.56850   0.37314   0.76639   0.00000  Uiso   1.00
C477   C     0.51279   0.31382   0.75994   0.00000  Uiso   1.00
C478   C     0.73843   0.48936   0.89378   0.00000  Uiso   1.00
C479   C     0.79127   0.48614   0.87688   0.00000  Uiso   1.00
C480   C     0.83744   0.47850   0.92095   0.00000  Uiso   1.00
C481   C     0.68294   0.57011   0.90524   0.00000  Uiso   1.00
C482   C     0.68915   0.63479   0.89800   0.00000  Uiso   1.00
C483   C     0.68863   0.69516   0.95174   0.00000  Uiso   1.00
H484   H     0.66530   0.48649   0.00698   0.00000  Uiso   1.00
H485   H     0.55025   0.36123   0.93179   0.00000  Uiso   1.00
H486   H     0.77299   0.47423   0.04226   0.00000  Uiso   1.00
H487   H     0.67089   0.62285   0.06337   0.00000  Uiso   1.00
H488   H     0.42557   0.22421   0.82247   0.00000  Uiso   1.00
H489   H     0.89524   0.46249   0.05542   0.00000  Uiso   1.00
H490   H     0.67995   0.77590   0.09995   0.00000  Uiso   1.00
H491   H     0.68739   0.50091   0.80704   0.00000  Uiso   1.00
H492   H     0.57354   0.37643   0.72087   0.00000  Uiso   1.00
H493   H     0.79628   0.48942   0.83135   0.00000  Uiso   1.00
H494   H     0.69418   0.63805   0.85246   0.00000  Uiso   1.00
H495   H     0.44448   0.23654   0.65129   0.00000  Uiso   1.00
H496   H     0.91415   0.47482   0.88424   0.00000  Uiso   1.00
H497   H     0.69885   0.78823   0.92876   0.00000  Uiso   1.00
O498   O     0.35975   0.14822   0.68380   0.00000  Uiso   1.00
O499   O     0.97594   0.46085   0.98943   0.00000  Uiso   1.00
O500   O     0.69348   0.87203   0.04784   0.00000  Uiso   1.00
N501   N     0.44564   0.24420   0.79401   0.00000  Uiso   1.00
N502   N     0.88475   0.46697   0.01180   0.00000  Uiso   1.00
N503   N     0.68348   0.75999   0.05343   0.00000  Uiso   1.00
N504   N     0.45581   0.25084   0.70190   0.00000  Uiso   1.00
N505   N     0.89492   0.47360   0.91968   0.00000  Uiso   1.00
N506   N     0.69366   0.76663   0.96132   0.00000  Uiso   1.00
C507   C     0.53942   0.77517   0.64608   0.00000  Uiso   1.00
C508   C     0.48909   0.72353   0.56957   0.00000  Uiso   1.00
C509   C     0.48952   0.74212   0.51669   0.00000  Uiso   1.00
C510   C     0.43912   0.68703   0.45013   0.00000  Uiso   1.00
C511   C     0.36841   0.61768   0.33334   0.00000  Uiso   1.00
C512   C     0.49872   0.78639   0.68959   0.00000  Uiso   1.00
C513   C     0.50725   0.85784   0.73762   0.00000  Uiso   1.00
C514   C     0.46496   0.85566   0.77210   0.00000  Uiso   1.00
C515   C     0.40923   0.88391   0.84167   0.00000  Uiso   1.00
C516   C     0.56860   0.72588   0.66253   0.00000  Uiso   1.00
C517   C     0.63590   0.74645   0.68783   0.00000  Uiso   1.00
C518   C     0.65245   0.69334   0.69955   0.00000  Uiso   1.00
C519   C     0.70523   0.62763   0.72710   0.00000  Uiso   1.00
C520   C     0.44916   0.64426   0.62192   0.00000  Uiso   1.00
C521   C     0.44007   0.65243   0.55645   0.00000  Uiso   1.00
C522   C     0.38966   0.59729   0.48996   0.00000  Uiso   1.00
C523   C     0.39001   0.61580   0.43698   0.00000  Uiso   1.00
C524   C     0.44969   0.71529   0.67647   0.00000  Uiso   1.00
C525   C     0.40739   0.71301   0.71089   0.00000  Uiso   1.00
C526   C     0.41585   0.78443   0.75896   0.00000  Uiso   1.00
C527   C     0.51958   0.65478   0.64941   0.00000  Uiso   1.00
C528   C     0.53604   0.60162   0.66109   0.00000  Uiso   1.00
C529   C     0.60334   0.62211   0.68640   0.00000  Uiso   1.00
H530   H     0.57759   0.83052   0.65630   0.00000  Uiso   1.00
H531   H     0.52746   0.79715   0.52686   0.00000  Uiso   1.00
H532   H     0.54520   0.91285   0.74777   0.00000  Uiso   1.00
H533   H     0.67382   0.80148   0.69798   0.00000  Uiso   1.00
H534   H     0.45025   0.72881   0.37758   0.00000  Uiso   1.00
H535   H     0.48766   0.97277   0.84339   0.00000  Uiso   1.00
H536   H     0.75890   0.73792   0.73840   0.00000  Uiso   1.00
H537   H     0.41099   0.58891   0.61171   0.00000  Uiso   1.00
H538   H     0.35173   0.54228   0.47982   0.00000  Uiso   1.00
H539   H     0.36946   0.65798   0.70073   0.00000  Uiso   1.00
H540   H     0.49808   0.54661   0.65093   0.00000  Uiso   1.00
H541   H     0.30762   0.52195   0.33940   0.00000  Uiso   1.00
H542   H     0.34502   0.76591   0.80521   0.00000  Uiso   1.00
H543   H     0.61626   0.53106   0.70021   0.00000  Uiso   1.00
O544   O     0.34294   0.59908   0.27254   0.00000  Uiso   1.00
O545   O     0.39202   0.91914   0.88367   0.00000  Uiso   1.00
O546   O     0.74788   0.61102   0.74592   0.00000  Uiso   1.00
N547   N     0.42483   0.68652   0.38669   0.00000  Uiso   1.00
N548   N     0.45979   0.91460   0.82218   0.00000  Uiso   1.00
N549   N     0.71338   0.69505   0.72404   0.00000  Uiso   1.00
N550   N     0.34807   0.57521   0.36614   0.00000  Uiso   1.00
N551   N     0.38304   0.80329   0.80164   0.00000  Uiso   1.00
N552   N     0.63662   0.58374   0.70350   0.00000  Uiso   1.00
