data_job_01005
_audit_creation_date              2018-12-19
_audit_creation_method            'Materials Studio'
_symmetry_space_group_name_H-M    'P1'
_symmetry_Int_Tables_number       1
_symmetry_cell_setting            triclinic
loop_
_symmetry_equiv_pos_as_xyz
  x,y,z
_cell_length_a                    16.2136
_cell_length_b                    12.4868
_cell_length_c                    15.7026
_cell_angle_alpha                 90.0000
_cell_angle_beta                  69.9007
_cell_angle_gamma                 90.0000
loop_
_atom_site_label
_atom_site_type_symbol
_atom_site_fract_x
_atom_site_fract_y
_atom_site_fract_z
_atom_site_U_iso_or_equiv
_atom_site_adp_type
_atom_site_occupancy
C1     C     0.75434   0.26385   0.38279   0.00000  Uiso   1.00
C2     C     0.73464   0.38272   0.37831   0.00000  Uiso   1.00
C3     C     0.77851   0.46629   0.40255   0.00000  Uiso   1.00
C4     C     0.75059   0.56943   0.39354   0.00000  Uiso   1.00
C5     C     0.73052   0.75114   0.39151   0.00000  Uiso   1.00
C6     C     0.66851   0.21245   0.44214   0.00000  Uiso   1.00
C7     C     0.65680   0.15286   0.52004   0.00000  Uiso   1.00
C8     C     0.57321   0.11266   0.56476   0.00000  Uiso   1.00
C9     C     0.45049   0.02998   0.66178   0.00000  Uiso   1.00
C10    C     0.77240   0.22006   0.28744   0.00000  Uiso   1.00
C11    C     0.84803   0.16683   0.23526   0.00000  Uiso   1.00
C12    C     0.85189   0.13301   0.14974   0.00000  Uiso   1.00
C13    C     0.89048   0.06213   0.00657   0.00000  Uiso   1.00
C14    C     0.62672   0.29841   0.32371   0.00000  Uiso   1.00
C15    C     0.66532   0.40148   0.34622   0.00000  Uiso   1.00
C16    C     0.63732   0.50452   0.33717   0.00000  Uiso   1.00
C17    C     0.68115   0.58823   0.36139   0.00000  Uiso   1.00
C18    C     0.59920   0.23122   0.41005   0.00000  Uiso   1.00
C19    C     0.51561   0.19110   0.45466   0.00000  Uiso   1.00
C20    C     0.50376   0.13147   0.53261   0.00000  Uiso   1.00
C21    C     0.70309   0.23883   0.25535   0.00000  Uiso   1.00
C22    C     0.70683   0.20507   0.16989   0.00000  Uiso   1.00
C23    C     0.78245   0.15181   0.11759   0.00000  Uiso   1.00
H24    H     0.80830   0.24923   0.40778   0.00000  Uiso   1.00
H25    H     0.83215   0.45173   0.42739   0.00000  Uiso   1.00
H26    H     0.71045   0.13834   0.54485   0.00000  Uiso   1.00
H27    H     0.90165   0.15232   0.26012   0.00000  Uiso   1.00
H28    H     0.82800   0.68451   0.43500   0.00000  Uiso   1.00
H29    H     0.57140   0.02369   0.68266   0.00000  Uiso   1.00
H30    H     0.97459   0.05315   0.08226   0.00000  Uiso   1.00
H31    H     0.57275   0.31302   0.29872   0.00000  Uiso   1.00
H32    H     0.58368   0.51902   0.31234   0.00000  Uiso   1.00
H33    H     0.46198   0.20564   0.42980   0.00000  Uiso   1.00
H34    H     0.65318   0.21961   0.14508   0.00000  Uiso   1.00
H35    H     0.62633   0.73913   0.34163   0.00000  Uiso   1.00
H36    H     0.36974   0.07830   0.58929   0.00000  Uiso   1.00
H37    H     0.77292   0.10777   0.98888   0.00000  Uiso   1.00
O38    O     0.73859   0.84618   0.39927   0.00000  Uiso   1.00
O39    O     0.40195   0.97919   0.72418   0.00000  Uiso   1.00
O40    O     0.93092   0.01786   0.93646   0.00000  Uiso   1.00
N41    N     0.77905   0.66909   0.41114   0.00000  Uiso   1.00
N42    N     0.53914   0.05128   0.64270   0.00000  Uiso   1.00
N43    N     0.91608   0.07880   0.08138   0.00000  Uiso   1.00
N44    N     0.67054   0.69848   0.36090   0.00000  Uiso   1.00
N45    N     0.43063   0.08067   0.59245   0.00000  Uiso   1.00
N46    N     0.80756   0.10819   0.03113   0.00000  Uiso   1.00
C47    C     0.24566   0.26385   0.11721   0.00000  Uiso   1.00
C48    C     0.26536   0.38272   0.12169   0.00000  Uiso   1.00
C49    C     0.22149   0.46629   0.09745   0.00000  Uiso   1.00
C50    C     0.24941   0.56943   0.10646   0.00000  Uiso   1.00
C51    C     0.26948   0.75114   0.10849   0.00000  Uiso   1.00
C52    C     0.33149   0.21245   0.05786   0.00000  Uiso   1.00
C53    C     0.34320   0.15286   0.97996   0.00000  Uiso   1.00
C54    C     0.42679   0.11266   0.93524   0.00000  Uiso   1.00
C55    C     0.54951   0.02998   0.83822   0.00000  Uiso   1.00
C56    C     0.22760   0.22006   0.21256   0.00000  Uiso   1.00
C57    C     0.15197   0.16683   0.26474   0.00000  Uiso   1.00
C58    C     0.14811   0.13301   0.35026   0.00000  Uiso   1.00
C59    C     0.10952   0.06213   0.49343   0.00000  Uiso   1.00
C60    C     0.37328   0.29841   0.17629   0.00000  Uiso   1.00
C61    C     0.33468   0.40148   0.15378   0.00000  Uiso   1.00
C62    C     0.36268   0.50452   0.16283   0.00000  Uiso   1.00
C63    C     0.31885   0.58823   0.13861   0.00000  Uiso   1.00
C64    C     0.40080   0.23122   0.08995   0.00000  Uiso   1.00
C65    C     0.48439   0.19110   0.04534   0.00000  Uiso   1.00
C66    C     0.49624   0.13147   0.96739   0.00000  Uiso   1.00
C67    C     0.29691   0.23883   0.24465   0.00000  Uiso   1.00
C68    C     0.29317   0.20507   0.33011   0.00000  Uiso   1.00
C69    C     0.21755   0.15181   0.38241   0.00000  Uiso   1.00
H70    H     0.19170   0.24923   0.09222   0.00000  Uiso   1.00
H71    H     0.16785   0.45173   0.07261   0.00000  Uiso   1.00
H72    H     0.28955   0.13834   0.95515   0.00000  Uiso   1.00
H73    H     0.09835   0.15232   0.23988   0.00000  Uiso   1.00
H74    H     0.17200   0.68451   0.06500   0.00000  Uiso   1.00
H75    H     0.42860   0.02369   0.81734   0.00000  Uiso   1.00
H76    H     0.02541   0.05315   0.41774   0.00000  Uiso   1.00
H77    H     0.42725   0.31302   0.20128   0.00000  Uiso   1.00
H78    H     0.41632   0.51902   0.18766   0.00000  Uiso   1.00
H79    H     0.53802   0.20564   0.07020   0.00000  Uiso   1.00
H80    H     0.34682   0.21961   0.35492   0.00000  Uiso   1.00
H81    H     0.37367   0.73913   0.15837   0.00000  Uiso   1.00
H82    H     0.63026   0.07830   0.91071   0.00000  Uiso   1.00
H83    H     0.22708   0.10777   0.51112   0.00000  Uiso   1.00
O84    O     0.26141   0.84618   0.10073   0.00000  Uiso   1.00
O85    O     0.59805   0.97919   0.77582   0.00000  Uiso   1.00
O86    O     0.06908   0.01786   0.56354   0.00000  Uiso   1.00
N87    N     0.22095   0.66909   0.08886   0.00000  Uiso   1.00
N88    N     0.46086   0.05128   0.85730   0.00000  Uiso   1.00
N89    N     0.08392   0.07880   0.41862   0.00000  Uiso   1.00
N90    N     0.32946   0.69848   0.13910   0.00000  Uiso   1.00
N91    N     0.56937   0.08067   0.90755   0.00000  Uiso   1.00
N92    N     0.19244   0.10819   0.46887   0.00000  Uiso   1.00
C93    C     0.24566   0.73615   0.61721   0.00000  Uiso   1.00
C94    C     0.26536   0.61728   0.62169   0.00000  Uiso   1.00
C95    C     0.22149   0.53371   0.59745   0.00000  Uiso   1.00
C96    C     0.24941   0.43057   0.60646   0.00000  Uiso   1.00
C97    C     0.26948   0.24886   0.60849   0.00000  Uiso   1.00
C98    C     0.33149   0.78755   0.55786   0.00000  Uiso   1.00
C99    C     0.34320   0.84714   0.47996   0.00000  Uiso   1.00
C100   C     0.42679   0.88734   0.43524   0.00000  Uiso   1.00
C101   C     0.54951   0.97002   0.33822   0.00000  Uiso   1.00
C102   C     0.22760   0.77994   0.71256   0.00000  Uiso   1.00
C103   C     0.15197   0.83317   0.76474   0.00000  Uiso   1.00
C104   C     0.14811   0.86699   0.85026   0.00000  Uiso   1.00
C105   C     0.10952   0.93787   0.99343   0.00000  Uiso   1.00
C106   C     0.37328   0.70159   0.67629   0.00000  Uiso   1.00
C107   C     0.33468   0.59852   0.65378   0.00000  Uiso   1.00
C108   C     0.36268   0.49548   0.66283   0.00000  Uiso   1.00
C109   C     0.31885   0.41177   0.63861   0.00000  Uiso   1.00
C110   C     0.40080   0.76878   0.58995   0.00000  Uiso   1.00
C111   C     0.48439   0.80890   0.54534   0.00000  Uiso   1.00
C112   C     0.49624   0.86853   0.46739   0.00000  Uiso   1.00
C113   C     0.29691   0.76117   0.74465   0.00000  Uiso   1.00
C114   C     0.29317   0.79493   0.83011   0.00000  Uiso   1.00
C115   C     0.21755   0.84819   0.88241   0.00000  Uiso   1.00
H116   H     0.19170   0.75077   0.59222   0.00000  Uiso   1.00
H117   H     0.16785   0.54827   0.57261   0.00000  Uiso   1.00
H118   H     0.28955   0.86166   0.45515   0.00000  Uiso   1.00
H119   H     0.09835   0.84768   0.73988   0.00000  Uiso   1.00
H120   H     0.17200   0.31549   0.56500   0.00000  Uiso   1.00
H121   H     0.42860   0.97631   0.31734   0.00000  Uiso   1.00
H122   H     0.02541   0.94685   0.91774   0.00000  Uiso   1.00
H123   H     0.42725   0.68698   0.70128   0.00000  Uiso   1.00
H124   H     0.41632   0.48098   0.68766   0.00000  Uiso   1.00
H125   H     0.53802   0.79436   0.57020   0.00000  Uiso   1.00
H126   H     0.34682   0.78039   0.85492   0.00000  Uiso   1.00
H127   H     0.37367   0.26087   0.65837   0.00000  Uiso   1.00
H128   H     0.63026   0.92170   0.41071   0.00000  Uiso   1.00
H129   H     0.22708   0.89223   0.01112   0.00000  Uiso   1.00
O130   O     0.26141   0.15382   0.60073   0.00000  Uiso   1.00
O131   O     0.59805   0.02081   0.27582   0.00000  Uiso   1.00
O132   O     0.06908   0.98214   0.06354   0.00000  Uiso   1.00
N133   N     0.22095   0.33091   0.58886   0.00000  Uiso   1.00
N134   N     0.46086   0.94872   0.35730   0.00000  Uiso   1.00
N135   N     0.08392   0.92120   0.91862   0.00000  Uiso   1.00
N136   N     0.32946   0.30152   0.63910   0.00000  Uiso   1.00
N137   N     0.56937   0.91933   0.40755   0.00000  Uiso   1.00
N138   N     0.19244   0.89181   0.96887   0.00000  Uiso   1.00
C139   C     0.75434   0.73615   0.88279   0.00000  Uiso   1.00
C140   C     0.73464   0.61728   0.87831   0.00000  Uiso   1.00
C141   C     0.77851   0.53371   0.90255   0.00000  Uiso   1.00
C142   C     0.75059   0.43057   0.89354   0.00000  Uiso   1.00
C143   C     0.73052   0.24886   0.89151   0.00000  Uiso   1.00
C144   C     0.66851   0.78755   0.94214   0.00000  Uiso   1.00
C145   C     0.65680   0.84714   0.02004   0.00000  Uiso   1.00
C146   C     0.57321   0.88734   0.06476   0.00000  Uiso   1.00
C147   C     0.45049   0.97002   0.16178   0.00000  Uiso   1.00
C148   C     0.77240   0.77994   0.78744   0.00000  Uiso   1.00
C149   C     0.84803   0.83317   0.73526   0.00000  Uiso   1.00
C150   C     0.85189   0.86699   0.64974   0.00000  Uiso   1.00
C151   C     0.89048   0.93787   0.50657   0.00000  Uiso   1.00
C152   C     0.62672   0.70159   0.82371   0.00000  Uiso   1.00
C153   C     0.66532   0.59852   0.84622   0.00000  Uiso   1.00
C154   C     0.63732   0.49548   0.83717   0.00000  Uiso   1.00
C155   C     0.68115   0.41177   0.86139   0.00000  Uiso   1.00
C156   C     0.59920   0.76878   0.91005   0.00000  Uiso   1.00
C157   C     0.51561   0.80890   0.95466   0.00000  Uiso   1.00
C158   C     0.50376   0.86853   0.03261   0.00000  Uiso   1.00
C159   C     0.70309   0.76117   0.75535   0.00000  Uiso   1.00
C160   C     0.70683   0.79493   0.66989   0.00000  Uiso   1.00
C161   C     0.78245   0.84819   0.61759   0.00000  Uiso   1.00
H162   H     0.80830   0.75077   0.90778   0.00000  Uiso   1.00
H163   H     0.83215   0.54827   0.92739   0.00000  Uiso   1.00
H164   H     0.71045   0.86166   0.04485   0.00000  Uiso   1.00
H165   H     0.90165   0.84768   0.76012   0.00000  Uiso   1.00
H166   H     0.82800   0.31549   0.93500   0.00000  Uiso   1.00
H167   H     0.57140   0.97631   0.18266   0.00000  Uiso   1.00
H168   H     0.97459   0.94685   0.58226   0.00000  Uiso   1.00
H169   H     0.57275   0.68698   0.79872   0.00000  Uiso   1.00
H170   H     0.58368   0.48098   0.81234   0.00000  Uiso   1.00
H171   H     0.46198   0.79436   0.92980   0.00000  Uiso   1.00
H172   H     0.65318   0.78039   0.64508   0.00000  Uiso   1.00
H173   H     0.62633   0.26087   0.84163   0.00000  Uiso   1.00
H174   H     0.36974   0.92170   0.08929   0.00000  Uiso   1.00
H175   H     0.77292   0.89223   0.48888   0.00000  Uiso   1.00
O176   O     0.73859   0.15382   0.89927   0.00000  Uiso   1.00
O177   O     0.40195   0.02081   0.22418   0.00000  Uiso   1.00
O178   O     0.93092   0.98214   0.43646   0.00000  Uiso   1.00
N179   N     0.77905   0.33091   0.91114   0.00000  Uiso   1.00
N180   N     0.53914   0.94872   0.14270   0.00000  Uiso   1.00
N181   N     0.91608   0.92120   0.58138   0.00000  Uiso   1.00
N182   N     0.67054   0.30152   0.86090   0.00000  Uiso   1.00
N183   N     0.43063   0.91933   0.09245   0.00000  Uiso   1.00
N184   N     0.80756   0.89181   0.53113   0.00000  Uiso   1.00
