data_job_06207
_audit_creation_date              2018-12-19
_audit_creation_method            'Materials Studio'
_symmetry_space_group_name_H-M    'P1'
_symmetry_Int_Tables_number       1
_symmetry_cell_setting            triclinic
loop_
_symmetry_equiv_pos_as_xyz
  x,y,z
_cell_length_a                    16.0374
_cell_length_b                    16.0379
_cell_length_c                    16.0385
_cell_angle_alpha                 85.0309
_cell_angle_beta                  85.0305
_cell_angle_gamma                 85.0301
loop_
_atom_site_label
_atom_site_type_symbol
_atom_site_fract_x
_atom_site_fract_y
_atom_site_fract_z
_atom_site_U_iso_or_equiv
_atom_site_adp_type
_atom_site_occupancy
C1     C     0.95398   0.43359   0.72166   0.00000  Uiso   1.00
C2     C     0.04182   0.46111   0.72741   0.00000  Uiso   1.00
C3     C     0.11661   0.41640   0.70286   0.00000  Uiso   1.00
C4     C     0.19039   0.45228   0.71323   0.00000  Uiso   1.00
C5     C     0.32696   0.48315   0.71708   0.00000  Uiso   1.00
C6     C     0.91107   0.43356   0.81031   0.00000  Uiso   1.00
C7     C     0.87592   0.36568   0.85544   0.00000  Uiso   1.00
C8     C     0.83963   0.37837   0.93559   0.00000  Uiso   1.00
C9     C     0.77315   0.36648   0.06811   0.00000  Uiso   1.00
C10    C     0.90769   0.50426   0.66980   0.00000  Uiso   1.00
C11    C     0.86967   0.49583   0.59680   0.00000  Uiso   1.00
C12    C     0.83051   0.56804   0.55866   0.00000  Uiso   1.00
C13    C     0.75878   0.66593   0.47302   0.00000  Uiso   1.00
C14    C     0.95202   0.57683   0.78373   0.00000  Uiso   1.00
C15    C     0.04076   0.53891   0.76113   0.00000  Uiso   1.00
C16    C     0.11444   0.57487   0.77154   0.00000  Uiso   1.00
C17    C     0.18933   0.53022   0.74701   0.00000  Uiso   1.00
C18    C     0.91001   0.51135   0.84403   0.00000  Uiso   1.00
C19    C     0.87376   0.52415   0.92412   0.00000  Uiso   1.00
C20    C     0.83856   0.45631   0.96937   0.00000  Uiso   1.00
C21    C     0.90663   0.58206   0.70351   0.00000  Uiso   1.00
C22    C     0.86751   0.65430   0.66548   0.00000  Uiso   1.00
C23    C     0.82944   0.64598   0.59244   0.00000  Uiso   1.00
H24    H     0.95480   0.37302   0.69541   0.00000  Uiso   1.00
H25    H     0.11740   0.35619   0.67678   0.00000  Uiso   1.00
H26    H     0.87675   0.30548   0.82933   0.00000  Uiso   1.00
H27    H     0.87050   0.43561   0.57073   0.00000  Uiso   1.00
H28    H     0.29721   0.37182   0.67102   0.00000  Uiso   1.00
H29    H     0.78975   0.26491   0.99268   0.00000  Uiso   1.00
H30    H     0.77658   0.53932   0.44736   0.00000  Uiso   1.00
H31    H     0.95119   0.63740   0.80998   0.00000  Uiso   1.00
H32    H     0.11360   0.63508   0.79764   0.00000  Uiso   1.00
H33    H     0.87294   0.58437   0.95019   0.00000  Uiso   1.00
H34    H     0.86670   0.71450   0.69159   0.00000  Uiso   1.00
H35    H     0.29413   0.59818   0.76912   0.00000  Uiso   1.00
H36    H     0.78666   0.49127   0.09077   0.00000  Uiso   1.00
H37    H     0.77349   0.76567   0.54546   0.00000  Uiso   1.00
O38    O     0.40258   0.47869   0.70990   0.00000  Uiso   1.00
O39    O     0.73678   0.33843   0.13189   0.00000  Uiso   1.00
O40    O     0.71952   0.69844   0.41646   0.00000  Uiso   1.00
N41    N     0.27420   0.42542   0.69579   0.00000  Uiso   1.00
N42    N     0.79976   0.32546   0.99652   0.00000  Uiso   1.00
N43    N     0.78743   0.58200   0.48671   0.00000  Uiso   1.00
N44    N     0.27254   0.54722   0.74857   0.00000  Uiso   1.00
N45    N     0.79810   0.44726   0.04930   0.00000  Uiso   1.00
N46    N     0.78577   0.70380   0.53949   0.00000  Uiso   1.00
C47    C     0.72165   0.95398   0.43360   0.00000  Uiso   1.00
C48    C     0.72741   0.04182   0.46112   0.00000  Uiso   1.00
C49    C     0.70286   0.11660   0.41641   0.00000  Uiso   1.00
C50    C     0.71323   0.19039   0.45229   0.00000  Uiso   1.00
C51    C     0.71708   0.32695   0.48316   0.00000  Uiso   1.00
C52    C     0.81031   0.91108   0.43356   0.00000  Uiso   1.00
C53    C     0.85545   0.87592   0.36568   0.00000  Uiso   1.00
C54    C     0.93561   0.83963   0.37838   0.00000  Uiso   1.00
C55    C     0.06813   0.77316   0.36649   0.00000  Uiso   1.00
C56    C     0.66979   0.90770   0.50426   0.00000  Uiso   1.00
C57    C     0.59679   0.86968   0.49583   0.00000  Uiso   1.00
C58    C     0.55865   0.83052   0.56805   0.00000  Uiso   1.00
C59    C     0.47300   0.75879   0.66593   0.00000  Uiso   1.00
C60    C     0.78373   0.95202   0.57683   0.00000  Uiso   1.00
C61    C     0.76113   0.04076   0.53891   0.00000  Uiso   1.00
C62    C     0.77154   0.11444   0.57487   0.00000  Uiso   1.00
C63    C     0.74701   0.18932   0.53022   0.00000  Uiso   1.00
C64    C     0.84403   0.91001   0.51136   0.00000  Uiso   1.00
C65    C     0.92413   0.87376   0.52415   0.00000  Uiso   1.00
C66    C     0.96939   0.83857   0.45631   0.00000  Uiso   1.00
C67    C     0.70351   0.90663   0.58206   0.00000  Uiso   1.00
C68    C     0.66547   0.86752   0.65430   0.00000  Uiso   1.00
C69    C     0.59243   0.82945   0.64598   0.00000  Uiso   1.00
H70    H     0.69541   0.95480   0.37303   0.00000  Uiso   1.00
H71    H     0.67677   0.11740   0.35620   0.00000  Uiso   1.00
H72    H     0.82934   0.87675   0.30549   0.00000  Uiso   1.00
H73    H     0.57072   0.87051   0.43562   0.00000  Uiso   1.00
H74    H     0.67101   0.29720   0.37183   0.00000  Uiso   1.00
H75    H     0.99269   0.78975   0.26492   0.00000  Uiso   1.00
H76    H     0.44734   0.77659   0.53932   0.00000  Uiso   1.00
H77    H     0.80999   0.95119   0.63740   0.00000  Uiso   1.00
H78    H     0.79764   0.11360   0.63508   0.00000  Uiso   1.00
H79    H     0.95020   0.87295   0.58437   0.00000  Uiso   1.00
H80    H     0.69158   0.86671   0.71449   0.00000  Uiso   1.00
H81    H     0.76911   0.29412   0.59818   0.00000  Uiso   1.00
H82    H     0.09080   0.78666   0.49127   0.00000  Uiso   1.00
H83    H     0.54544   0.77351   0.76567   0.00000  Uiso   1.00
O84    O     0.70990   0.40256   0.47870   0.00000  Uiso   1.00
O85    O     0.13192   0.73679   0.33844   0.00000  Uiso   1.00
O86    O     0.41643   0.71953   0.69844   0.00000  Uiso   1.00
N87    N     0.69578   0.27419   0.42543   0.00000  Uiso   1.00
N88    N     0.99654   0.79977   0.32547   0.00000  Uiso   1.00
N89    N     0.48669   0.78744   0.58200   0.00000  Uiso   1.00
N90    N     0.74857   0.27253   0.54723   0.00000  Uiso   1.00
N91    N     0.04932   0.79810   0.44727   0.00000  Uiso   1.00
N92    N     0.53948   0.78578   0.70380   0.00000  Uiso   1.00
C93    C     0.43358   0.72166   0.95398   0.00000  Uiso   1.00
C94    C     0.46110   0.72741   0.04182   0.00000  Uiso   1.00
C95    C     0.41639   0.70286   0.11660   0.00000  Uiso   1.00
C96    C     0.45227   0.71323   0.19038   0.00000  Uiso   1.00
C97    C     0.48315   0.71708   0.32693   0.00000  Uiso   1.00
C98    C     0.43355   0.81031   0.91108   0.00000  Uiso   1.00
C99    C     0.36567   0.85545   0.87593   0.00000  Uiso   1.00
C100   C     0.37836   0.93560   0.83964   0.00000  Uiso   1.00
C101   C     0.36647   0.06812   0.77317   0.00000  Uiso   1.00
C102   C     0.50425   0.66979   0.90770   0.00000  Uiso   1.00
C103   C     0.49582   0.59680   0.86968   0.00000  Uiso   1.00
C104   C     0.56804   0.55865   0.83052   0.00000  Uiso   1.00
C105   C     0.66594   0.47301   0.75880   0.00000  Uiso   1.00
C106   C     0.57682   0.78373   0.95202   0.00000  Uiso   1.00
C107   C     0.53891   0.76113   0.04075   0.00000  Uiso   1.00
C108   C     0.57487   0.77154   0.11444   0.00000  Uiso   1.00
C109   C     0.53022   0.74701   0.18931   0.00000  Uiso   1.00
C110   C     0.51135   0.84403   0.91002   0.00000  Uiso   1.00
C111   C     0.52415   0.92413   0.87377   0.00000  Uiso   1.00
C112   C     0.45630   0.96938   0.83858   0.00000  Uiso   1.00
C113   C     0.58206   0.70351   0.90664   0.00000  Uiso   1.00
C114   C     0.65430   0.66548   0.86752   0.00000  Uiso   1.00
C115   C     0.64598   0.59243   0.82946   0.00000  Uiso   1.00
H116   H     0.37301   0.69541   0.95480   0.00000  Uiso   1.00
H117   H     0.35618   0.67678   0.11740   0.00000  Uiso   1.00
H118   H     0.30547   0.82934   0.87676   0.00000  Uiso   1.00
H119   H     0.43560   0.57072   0.87052   0.00000  Uiso   1.00
H120   H     0.37181   0.67102   0.29720   0.00000  Uiso   1.00
H121   H     0.26490   0.99268   0.78977   0.00000  Uiso   1.00
H122   H     0.53931   0.44735   0.77660   0.00000  Uiso   1.00
H123   H     0.63740   0.80998   0.95119   0.00000  Uiso   1.00
H124   H     0.63508   0.79764   0.11359   0.00000  Uiso   1.00
H125   H     0.58436   0.95020   0.87295   0.00000  Uiso   1.00
H126   H     0.71450   0.69159   0.86671   0.00000  Uiso   1.00
H127   H     0.59818   0.76912   0.29411   0.00000  Uiso   1.00
H128   H     0.49126   0.09078   0.78667   0.00000  Uiso   1.00
H129   H     0.76568   0.54545   0.77351   0.00000  Uiso   1.00
O130   O     0.47869   0.70990   0.40255   0.00000  Uiso   1.00
O131   O     0.33841   0.13191   0.73681   0.00000  Uiso   1.00
O132   O     0.69845   0.41644   0.71954   0.00000  Uiso   1.00
N133   N     0.42542   0.69578   0.27418   0.00000  Uiso   1.00
N134   N     0.32545   0.99653   0.79978   0.00000  Uiso   1.00
N135   N     0.58200   0.48670   0.78745   0.00000  Uiso   1.00
N136   N     0.54722   0.74857   0.27252   0.00000  Uiso   1.00
N137   N     0.44725   0.04931   0.79811   0.00000  Uiso   1.00
N138   N     0.70381   0.53948   0.78579   0.00000  Uiso   1.00
C139   C     0.04602   0.56641   0.27834   0.00000  Uiso   1.00
C140   C     0.95818   0.53889   0.27259   0.00000  Uiso   1.00
C141   C     0.88339   0.58360   0.29714   0.00000  Uiso   1.00
C142   C     0.80961   0.54772   0.28677   0.00000  Uiso   1.00
C143   C     0.67304   0.51685   0.28292   0.00000  Uiso   1.00
C144   C     0.08893   0.56645   0.18969   0.00000  Uiso   1.00
C145   C     0.12408   0.63432   0.14456   0.00000  Uiso   1.00
C146   C     0.16037   0.62163   0.06441   0.00000  Uiso   1.00
C147   C     0.22685   0.63352   0.93189   0.00000  Uiso   1.00
C148   C     0.09231   0.49574   0.33020   0.00000  Uiso   1.00
C149   C     0.13033   0.50417   0.40320   0.00000  Uiso   1.00
C150   C     0.16949   0.43196   0.44134   0.00000  Uiso   1.00
C151   C     0.24122   0.33407   0.52698   0.00000  Uiso   1.00
C152   C     0.04798   0.42317   0.21627   0.00000  Uiso   1.00
C153   C     0.95924   0.46109   0.23887   0.00000  Uiso   1.00
C154   C     0.88556   0.42513   0.22846   0.00000  Uiso   1.00
C155   C     0.81067   0.46978   0.25299   0.00000  Uiso   1.00
C156   C     0.08999   0.48865   0.15597   0.00000  Uiso   1.00
C157   C     0.12624   0.47585   0.07588   0.00000  Uiso   1.00
C158   C     0.16144   0.54369   0.03063   0.00000  Uiso   1.00
C159   C     0.09337   0.41794   0.29649   0.00000  Uiso   1.00
C160   C     0.13249   0.34570   0.33452   0.00000  Uiso   1.00
C161   C     0.17056   0.35402   0.40756   0.00000  Uiso   1.00
H162   H     0.04520   0.62698   0.30459   0.00000  Uiso   1.00
H163   H     0.88260   0.64381   0.32322   0.00000  Uiso   1.00
H164   H     0.12325   0.69452   0.17067   0.00000  Uiso   1.00
H165   H     0.12950   0.56439   0.42927   0.00000  Uiso   1.00
H166   H     0.70279   0.62818   0.32898   0.00000  Uiso   1.00
H167   H     0.21025   0.73509   0.00732   0.00000  Uiso   1.00
H168   H     0.22342   0.46068   0.55264   0.00000  Uiso   1.00
H169   H     0.04881   0.36260   0.19002   0.00000  Uiso   1.00
H170   H     0.88640   0.36492   0.20236   0.00000  Uiso   1.00
H171   H     0.12706   0.41563   0.04981   0.00000  Uiso   1.00
H172   H     0.13330   0.28550   0.30841   0.00000  Uiso   1.00
H173   H     0.70587   0.40182   0.23088   0.00000  Uiso   1.00
H174   H     0.21334   0.50873   0.90923   0.00000  Uiso   1.00
H175   H     0.22651   0.23433   0.45454   0.00000  Uiso   1.00
O176   O     0.59742   0.52131   0.29010   0.00000  Uiso   1.00
O177   O     0.26322   0.66157   0.86811   0.00000  Uiso   1.00
O178   O     0.28048   0.30156   0.58354   0.00000  Uiso   1.00
N179   N     0.72580   0.57458   0.30421   0.00000  Uiso   1.00
N180   N     0.20024   0.67454   0.00348   0.00000  Uiso   1.00
N181   N     0.21257   0.41800   0.51329   0.00000  Uiso   1.00
N182   N     0.72746   0.45278   0.25143   0.00000  Uiso   1.00
N183   N     0.20190   0.55274   0.95070   0.00000  Uiso   1.00
N184   N     0.21423   0.29620   0.46051   0.00000  Uiso   1.00
C185   C     0.27835   0.04602   0.56640   0.00000  Uiso   1.00
C186   C     0.27259   0.95818   0.53888   0.00000  Uiso   1.00
C187   C     0.29714   0.88340   0.58359   0.00000  Uiso   1.00
C188   C     0.28677   0.80962   0.54771   0.00000  Uiso   1.00
C189   C     0.28292   0.67305   0.51684   0.00000  Uiso   1.00
C190   C     0.18969   0.08892   0.56644   0.00000  Uiso   1.00
C191   C     0.14455   0.12408   0.63432   0.00000  Uiso   1.00
C192   C     0.06439   0.16037   0.62162   0.00000  Uiso   1.00
C193   C     0.93187   0.22684   0.63351   0.00000  Uiso   1.00
C194   C     0.33021   0.09230   0.49574   0.00000  Uiso   1.00
C195   C     0.40321   0.13033   0.50417   0.00000  Uiso   1.00
C196   C     0.44135   0.16948   0.43195   0.00000  Uiso   1.00
C197   C     0.52700   0.24121   0.33407   0.00000  Uiso   1.00
C198   C     0.21627   0.04798   0.42317   0.00000  Uiso   1.00
C199   C     0.23887   0.95925   0.46109   0.00000  Uiso   1.00
C200   C     0.22846   0.88556   0.42513   0.00000  Uiso   1.00
C201   C     0.25300   0.81068   0.46978   0.00000  Uiso   1.00
C202   C     0.15597   0.08999   0.48864   0.00000  Uiso   1.00
C203   C     0.07587   0.12624   0.47585   0.00000  Uiso   1.00
C204   C     0.03061   0.16143   0.54369   0.00000  Uiso   1.00
C205   C     0.29649   0.09337   0.41794   0.00000  Uiso   1.00
C206   C     0.33453   0.13248   0.34570   0.00000  Uiso   1.00
C207   C     0.40757   0.17055   0.35402   0.00000  Uiso   1.00
H208   H     0.30459   0.04520   0.62697   0.00000  Uiso   1.00
H209   H     0.32323   0.88260   0.64380   0.00000  Uiso   1.00
H210   H     0.17066   0.12325   0.69451   0.00000  Uiso   1.00
H211   H     0.42928   0.12949   0.56438   0.00000  Uiso   1.00
H212   H     0.32899   0.70280   0.62817   0.00000  Uiso   1.00
H213   H     0.00731   0.21025   0.73508   0.00000  Uiso   1.00
H214   H     0.55266   0.22341   0.46068   0.00000  Uiso   1.00
H215   H     0.19001   0.04881   0.36260   0.00000  Uiso   1.00
H216   H     0.20236   0.88640   0.36492   0.00000  Uiso   1.00
H217   H     0.04980   0.12705   0.41563   0.00000  Uiso   1.00
H218   H     0.30842   0.13329   0.28551   0.00000  Uiso   1.00
H219   H     0.23089   0.70588   0.40182   0.00000  Uiso   1.00
H220   H     0.90920   0.21334   0.50873   0.00000  Uiso   1.00
H221   H     0.45456   0.22650   0.23433   0.00000  Uiso   1.00
O222   O     0.29010   0.59744   0.52130   0.00000  Uiso   1.00
O223   O     0.86808   0.26321   0.66156   0.00000  Uiso   1.00
O224   O     0.58357   0.28047   0.30156   0.00000  Uiso   1.00
N225   N     0.30422   0.72581   0.57457   0.00000  Uiso   1.00
N226   N     0.00346   0.20023   0.67453   0.00000  Uiso   1.00
N227   N     0.51331   0.21256   0.41800   0.00000  Uiso   1.00
N228   N     0.25143   0.72747   0.45277   0.00000  Uiso   1.00
N229   N     0.95068   0.20190   0.55273   0.00000  Uiso   1.00
N230   N     0.46052   0.21422   0.29620   0.00000  Uiso   1.00
C231   C     0.56642   0.27835   0.04602   0.00000  Uiso   1.00
C232   C     0.53890   0.27259   0.95818   0.00000  Uiso   1.00
C233   C     0.58361   0.29714   0.88340   0.00000  Uiso   1.00
C234   C     0.54773   0.28677   0.80962   0.00000  Uiso   1.00
C235   C     0.51685   0.28292   0.67307   0.00000  Uiso   1.00
C236   C     0.56645   0.18969   0.08892   0.00000  Uiso   1.00
C237   C     0.63433   0.14455   0.12407   0.00000  Uiso   1.00
C238   C     0.62164   0.06440   0.16036   0.00000  Uiso   1.00
C239   C     0.63353   0.93188   0.22683   0.00000  Uiso   1.00
C240   C     0.49575   0.33021   0.09230   0.00000  Uiso   1.00
C241   C     0.50418   0.40320   0.13032   0.00000  Uiso   1.00
C242   C     0.43196   0.44135   0.16948   0.00000  Uiso   1.00
C243   C     0.33406   0.52700   0.24120   0.00000  Uiso   1.00
C244   C     0.42318   0.21627   0.04798   0.00000  Uiso   1.00
C245   C     0.46109   0.23887   0.95925   0.00000  Uiso   1.00
C246   C     0.42513   0.22846   0.88556   0.00000  Uiso   1.00
C247   C     0.46978   0.25299   0.81069   0.00000  Uiso   1.00
C248   C     0.48865   0.15597   0.08998   0.00000  Uiso   1.00
C249   C     0.47585   0.07587   0.12623   0.00000  Uiso   1.00
C250   C     0.54370   0.03062   0.16142   0.00000  Uiso   1.00
C251   C     0.41794   0.29649   0.09336   0.00000  Uiso   1.00
C252   C     0.34570   0.33452   0.13248   0.00000  Uiso   1.00
C253   C     0.35402   0.40757   0.17054   0.00000  Uiso   1.00
H254   H     0.62699   0.30459   0.04520   0.00000  Uiso   1.00
H255   H     0.64382   0.32322   0.88260   0.00000  Uiso   1.00
H256   H     0.69453   0.17066   0.12324   0.00000  Uiso   1.00
H257   H     0.56440   0.42928   0.12948   0.00000  Uiso   1.00
H258   H     0.62819   0.32898   0.70281   0.00000  Uiso   1.00
H259   H     0.73510   0.00732   0.21023   0.00000  Uiso   1.00
H260   H     0.46069   0.55265   0.22340   0.00000  Uiso   1.00
H261   H     0.36260   0.19002   0.04881   0.00000  Uiso   1.00
H262   H     0.36492   0.20236   0.88641   0.00000  Uiso   1.00
H263   H     0.41564   0.04980   0.12705   0.00000  Uiso   1.00
H264   H     0.28550   0.30842   0.13329   0.00000  Uiso   1.00
H265   H     0.40182   0.23088   0.70589   0.00000  Uiso   1.00
H266   H     0.50874   0.90922   0.21333   0.00000  Uiso   1.00
H267   H     0.23432   0.45455   0.22649   0.00000  Uiso   1.00
O268   O     0.52131   0.29010   0.59745   0.00000  Uiso   1.00
O269   O     0.66159   0.86809   0.26319   0.00000  Uiso   1.00
O270   O     0.30155   0.58356   0.28046   0.00000  Uiso   1.00
N271   N     0.57458   0.30422   0.72582   0.00000  Uiso   1.00
N272   N     0.67455   0.00347   0.20022   0.00000  Uiso   1.00
N273   N     0.41800   0.51330   0.21255   0.00000  Uiso   1.00
N274   N     0.45278   0.25143   0.72748   0.00000  Uiso   1.00
N275   N     0.55275   0.95069   0.20189   0.00000  Uiso   1.00
N276   N     0.29619   0.46052   0.21421   0.00000  Uiso   1.00
