data_job_04856
_audit_creation_date              2018-12-19
_audit_creation_method            'Materials Studio'
_symmetry_space_group_name_H-M    'P1'
_symmetry_Int_Tables_number       1
_symmetry_cell_setting            triclinic
loop_
_symmetry_equiv_pos_as_xyz
  x,y,z
_cell_length_a                    15.7306
_cell_length_b                    25.9016
_cell_length_c                    11.7942
_cell_angle_alpha                 90.0000
_cell_angle_beta                  90.0000
_cell_angle_gamma                 90.0000
loop_
_atom_site_label
_atom_site_type_symbol
_atom_site_fract_x
_atom_site_fract_y
_atom_site_fract_z
_atom_site_U_iso_or_equiv
_atom_site_adp_type
_atom_site_occupancy
C1     C     0.32447   0.47300   0.54631   0.00000  Uiso   1.00
C2     C     0.26328   0.51785   0.56530   0.00000  Uiso   1.00
C3     C     0.28476   0.56595   0.60849   0.00000  Uiso   1.00
C4     C     0.21958   0.60175   0.61939   0.00000  Uiso   1.00
C5     C     0.13730   0.67318   0.65367   0.00000  Uiso   1.00
C6     C     0.28822   0.42757   0.61284   0.00000  Uiso   1.00
C7     C     0.33067   0.39977   0.69598   0.00000  Uiso   1.00
C8     C     0.28648   0.35957   0.74689   0.00000  Uiso   1.00
C9     C     0.24293   0.29083   0.85492   0.00000  Uiso   1.00
C10    C     0.31639   0.45854   0.42145   0.00000  Uiso   1.00
C11    C     0.38253   0.45676   0.34367   0.00000  Uiso   1.00
C12    C     0.36206   0.44263   0.23344   0.00000  Uiso   1.00
C13    C     0.36224   0.42197   0.04431   0.00000  Uiso   1.00
C14    C     0.17051   0.45104   0.48887   0.00000  Uiso   1.00
C15    C     0.17966   0.50592   0.53410   0.00000  Uiso   1.00
C16    C     0.11443   0.54165   0.54494   0.00000  Uiso   1.00
C17    C     0.13581   0.58980   0.58813   0.00000  Uiso   1.00
C18    C     0.20460   0.41564   0.58164   0.00000  Uiso   1.00
C19    C     0.16034   0.37548   0.63243   0.00000  Uiso   1.00
C20    C     0.20271   0.34762   0.71564   0.00000  Uiso   1.00
C21    C     0.23276   0.44661   0.39025   0.00000  Uiso   1.00
C22    C     0.21219   0.43247   0.28012   0.00000  Uiso   1.00
C23    C     0.27828   0.43068   0.20219   0.00000  Uiso   1.00
H24    H     0.38957   0.48229   0.57061   0.00000  Uiso   1.00
H25    H     0.34949   0.57516   0.63263   0.00000  Uiso   1.00
H26    H     0.39539   0.40901   0.72010   0.00000  Uiso   1.00
H27    H     0.44723   0.46600   0.36785   0.00000  Uiso   1.00
H28    H     0.26816   0.67286   0.68768   0.00000  Uiso   1.00
H29    H     0.36496   0.32251   0.87209   0.00000  Uiso   1.00
H30    H     0.47428   0.44268   0.12929   0.00000  Uiso   1.00
H31    H     0.10540   0.44176   0.46458   0.00000  Uiso   1.00
H32    H     0.04973   0.53241   0.52079   0.00000  Uiso   1.00
H33    H     0.09563   0.36625   0.60826   0.00000  Uiso   1.00
H34    H     0.14747   0.42324   0.25601   0.00000  Uiso   1.00
H35    H     0.02487   0.63816   0.59691   0.00000  Uiso   1.00
H36    H     0.12167   0.28781   0.78131   0.00000  Uiso   1.00
H37    H     0.23099   0.40798   0.03851   0.00000  Uiso   1.00
O38    O     0.11501   0.71587   0.68122   0.00000  Uiso   1.00
O39    O     0.24201   0.25622   0.92313   0.00000  Uiso   1.00
O40    O     0.38544   0.41388   0.94860   0.00000  Uiso   1.00
N41    N     0.21855   0.65226   0.65858   0.00000  Uiso   1.00
N42    N     0.30904   0.32470   0.83101   0.00000  Uiso   1.00
N43    N     0.41125   0.43704   0.13656   0.00000  Uiso   1.00
N44    N     0.08763   0.63359   0.60974   0.00000  Uiso   1.00
N45    N     0.17813   0.30603   0.78216   0.00000  Uiso   1.00
N46    N     0.28034   0.41837   0.08771   0.00000  Uiso   1.00
C47    C     0.36667   0.61569   0.96344   0.00000  Uiso   1.00
C48    C     0.28460   0.58652   0.93827   0.00000  Uiso   1.00
C49    C     0.27900   0.53802   0.88882   0.00000  Uiso   1.00
C50    C     0.19803   0.51796   0.87292   0.00000  Uiso   1.00
C51    C     0.08166   0.46850   0.82886   0.00000  Uiso   1.00
C52    C     0.35878   0.66750   0.90297   0.00000  Uiso   1.00
C53    C     0.41555   0.68710   0.82385   0.00000  Uiso   1.00
C54    C     0.39702   0.73523   0.77825   0.00000  Uiso   1.00
C55    C     0.39585   0.81151   0.67945   0.00000  Uiso   1.00
C56    C     0.36490   0.62772   0.08997   0.00000  Uiso   1.00
C57    C     0.42683   0.61389   0.16808   0.00000  Uiso   1.00
C58    C     0.41346   0.62853   0.27992   0.00000  Uiso   1.00
C59    C     0.42179   0.64305   0.47146   0.00000  Uiso   1.00
C60    C     0.23282   0.66630   0.02315   0.00000  Uiso   1.00
C61    C     0.21191   0.61401   0.97071   0.00000  Uiso   1.00
C62    C     0.13092   0.59402   0.95489   0.00000  Uiso   1.00
C63    C     0.12520   0.54550   0.90542   0.00000  Uiso   1.00
C64    C     0.28608   0.69500   0.93541   0.00000  Uiso   1.00
C65    C     0.26747   0.74310   0.88992   0.00000  Uiso   1.00
C66    C     0.32419   0.76277   0.81074   0.00000  Uiso   1.00
C67    C     0.29220   0.65522   0.12241   0.00000  Uiso   1.00
C68    C     0.27874   0.66988   0.23415   0.00000  Uiso   1.00
C69    C     0.34063   0.65607   0.31241   0.00000  Uiso   1.00
H70    H     0.42327   0.59429   0.93818   0.00000  Uiso   1.00
H71    H     0.33528   0.51676   0.86371   0.00000  Uiso   1.00
H72    H     0.47181   0.66582   0.79877   0.00000  Uiso   1.00
H73    H     0.48308   0.59261   0.14295   0.00000  Uiso   1.00
H74    H     0.20566   0.44294   0.79543   0.00000  Uiso   1.00
H75    H     0.49356   0.75725   0.65852   0.00000  Uiso   1.00
H76    H     0.51733   0.60288   0.38427   0.00000  Uiso   1.00
H77    H     0.17622   0.68771   0.04841   0.00000  Uiso   1.00
H78    H     0.07467   0.61530   0.98000   0.00000  Uiso   1.00
H79    H     0.21121   0.76437   0.91505   0.00000  Uiso   1.00
H80    H     0.22248   0.69116   0.25922   0.00000  Uiso   1.00
H81    H     0.99414   0.52292   0.88980   0.00000  Uiso   1.00
H82    H     0.28205   0.83724   0.75289   0.00000  Uiso   1.00
H83    H     0.30581   0.68287   0.47865   0.00000  Uiso   1.00
O84    O     0.03755   0.43362   0.79559   0.00000  Uiso   1.00
O85    O     0.41528   0.84600   0.61598   0.00000  Uiso   1.00
O86    O     0.44646   0.64346   0.56816   0.00000  Uiso   1.00
N87    N     0.16981   0.47169   0.82705   0.00000  Uiso   1.00
N88    N     0.43898   0.76556   0.69903   0.00000  Uiso   1.00
N89    N     0.46121   0.62124   0.37755   0.00000  Uiso   1.00
N90    N     0.05600   0.51473   0.87783   0.00000  Uiso   1.00
N91    N     0.32517   0.80860   0.74981   0.00000  Uiso   1.00
N92    N     0.34740   0.66428   0.42833   0.00000  Uiso   1.00
C93    C     0.67553   0.52700   0.04631   0.00000  Uiso   1.00
C94    C     0.73672   0.48215   0.06530   0.00000  Uiso   1.00
C95    C     0.71524   0.43405   0.10849   0.00000  Uiso   1.00
C96    C     0.78042   0.39825   0.11939   0.00000  Uiso   1.00
C97    C     0.86270   0.32682   0.15367   0.00000  Uiso   1.00
C98    C     0.71178   0.57243   0.11284   0.00000  Uiso   1.00
C99    C     0.66933   0.60023   0.19598   0.00000  Uiso   1.00
C100   C     0.71352   0.64043   0.24689   0.00000  Uiso   1.00
C101   C     0.75707   0.70917   0.35492   0.00000  Uiso   1.00
C102   C     0.68361   0.54146   0.92145   0.00000  Uiso   1.00
C103   C     0.61747   0.54324   0.84367   0.00000  Uiso   1.00
C104   C     0.63794   0.55737   0.73344   0.00000  Uiso   1.00
C105   C     0.63776   0.57803   0.54431   0.00000  Uiso   1.00
C106   C     0.82949   0.54896   0.98887   0.00000  Uiso   1.00
C107   C     0.82034   0.49408   0.03410   0.00000  Uiso   1.00
C108   C     0.88557   0.45835   0.04494   0.00000  Uiso   1.00
C109   C     0.86419   0.41020   0.08813   0.00000  Uiso   1.00
C110   C     0.79540   0.58436   0.08164   0.00000  Uiso   1.00
C111   C     0.83966   0.62452   0.13243   0.00000  Uiso   1.00
C112   C     0.79729   0.65238   0.21564   0.00000  Uiso   1.00
C113   C     0.76724   0.55339   0.89025   0.00000  Uiso   1.00
C114   C     0.78781   0.56753   0.78012   0.00000  Uiso   1.00
C115   C     0.72172   0.56932   0.70219   0.00000  Uiso   1.00
H116   H     0.61043   0.51771   0.07061   0.00000  Uiso   1.00
H117   H     0.65051   0.42484   0.13263   0.00000  Uiso   1.00
H118   H     0.60461   0.59099   0.22010   0.00000  Uiso   1.00
H119   H     0.55277   0.53400   0.86785   0.00000  Uiso   1.00
H120   H     0.73184   0.32714   0.18768   0.00000  Uiso   1.00
H121   H     0.63504   0.67749   0.37209   0.00000  Uiso   1.00
H122   H     0.52572   0.55732   0.62929   0.00000  Uiso   1.00
H123   H     0.89460   0.55824   0.96458   0.00000  Uiso   1.00
H124   H     0.95027   0.46759   0.02079   0.00000  Uiso   1.00
H125   H     0.90437   0.63375   0.10826   0.00000  Uiso   1.00
H126   H     0.85253   0.57676   0.75601   0.00000  Uiso   1.00
H127   H     0.97513   0.36184   0.09691   0.00000  Uiso   1.00
H128   H     0.87833   0.71219   0.28131   0.00000  Uiso   1.00
H129   H     0.76901   0.59202   0.53851   0.00000  Uiso   1.00
O130   O     0.88499   0.28413   0.18122   0.00000  Uiso   1.00
O131   O     0.75799   0.74378   0.42313   0.00000  Uiso   1.00
O132   O     0.61456   0.58612   0.44860   0.00000  Uiso   1.00
N133   N     0.78145   0.34774   0.15858   0.00000  Uiso   1.00
N134   N     0.69096   0.67530   0.33101   0.00000  Uiso   1.00
N135   N     0.58875   0.56296   0.63656   0.00000  Uiso   1.00
N136   N     0.91237   0.36641   0.10974   0.00000  Uiso   1.00
N137   N     0.82187   0.69397   0.28216   0.00000  Uiso   1.00
N138   N     0.71966   0.58163   0.58771   0.00000  Uiso   1.00
C139   C     0.63333   0.38431   0.46344   0.00000  Uiso   1.00
C140   C     0.71540   0.41348   0.43827   0.00000  Uiso   1.00
C141   C     0.72100   0.46198   0.38882   0.00000  Uiso   1.00
C142   C     0.80197   0.48204   0.37292   0.00000  Uiso   1.00
C143   C     0.91834   0.53150   0.32886   0.00000  Uiso   1.00
C144   C     0.64122   0.33250   0.40297   0.00000  Uiso   1.00
C145   C     0.58445   0.31290   0.32385   0.00000  Uiso   1.00
C146   C     0.60298   0.26477   0.27825   0.00000  Uiso   1.00
C147   C     0.60415   0.18849   0.17945   0.00000  Uiso   1.00
C148   C     0.63510   0.37228   0.58997   0.00000  Uiso   1.00
C149   C     0.57317   0.38611   0.66808   0.00000  Uiso   1.00
C150   C     0.58654   0.37147   0.77992   0.00000  Uiso   1.00
C151   C     0.57821   0.35695   0.97146   0.00000  Uiso   1.00
C152   C     0.76718   0.33370   0.52315   0.00000  Uiso   1.00
C153   C     0.78809   0.38599   0.47071   0.00000  Uiso   1.00
C154   C     0.86908   0.40598   0.45489   0.00000  Uiso   1.00
C155   C     0.87480   0.45450   0.40542   0.00000  Uiso   1.00
C156   C     0.71392   0.30500   0.43541   0.00000  Uiso   1.00
C157   C     0.73253   0.25690   0.38992   0.00000  Uiso   1.00
C158   C     0.67581   0.23723   0.31074   0.00000  Uiso   1.00
C159   C     0.70780   0.34478   0.62241   0.00000  Uiso   1.00
C160   C     0.72126   0.33012   0.73415   0.00000  Uiso   1.00
C161   C     0.65937   0.34393   0.81241   0.00000  Uiso   1.00
H162   H     0.57673   0.40571   0.43818   0.00000  Uiso   1.00
H163   H     0.66472   0.48324   0.36371   0.00000  Uiso   1.00
H164   H     0.52819   0.33418   0.29877   0.00000  Uiso   1.00
H165   H     0.51692   0.40739   0.64295   0.00000  Uiso   1.00
H166   H     0.79434   0.55706   0.29543   0.00000  Uiso   1.00
H167   H     0.50644   0.24275   0.15852   0.00000  Uiso   1.00
H168   H     0.48267   0.39712   0.88427   0.00000  Uiso   1.00
H169   H     0.82378   0.31229   0.54841   0.00000  Uiso   1.00
H170   H     0.92533   0.38470   0.48000   0.00000  Uiso   1.00
H171   H     0.78879   0.23563   0.41505   0.00000  Uiso   1.00
H172   H     0.77752   0.30884   0.75922   0.00000  Uiso   1.00
H173   H     0.00586   0.47708   0.38980   0.00000  Uiso   1.00
H174   H     0.71795   0.16276   0.25289   0.00000  Uiso   1.00
H175   H     0.69419   0.31713   0.97865   0.00000  Uiso   1.00
O176   O     0.96245   0.56638   0.29559   0.00000  Uiso   1.00
O177   O     0.58472   0.15400   0.11598   0.00000  Uiso   1.00
O178   O     0.55354   0.35654   0.06816   0.00000  Uiso   1.00
N179   N     0.83019   0.52831   0.32705   0.00000  Uiso   1.00
N180   N     0.56102   0.23444   0.19903   0.00000  Uiso   1.00
N181   N     0.53879   0.37876   0.87755   0.00000  Uiso   1.00
N182   N     0.94400   0.48527   0.37783   0.00000  Uiso   1.00
N183   N     0.67483   0.19140   0.24981   0.00000  Uiso   1.00
N184   N     0.65260   0.33572   0.92833   0.00000  Uiso   1.00
C185   C     0.82447   0.02700   0.54631   0.00000  Uiso   1.00
C186   C     0.76328   0.98215   0.56530   0.00000  Uiso   1.00
C187   C     0.78476   0.93405   0.60849   0.00000  Uiso   1.00
C188   C     0.71958   0.89825   0.61939   0.00000  Uiso   1.00
C189   C     0.63730   0.82682   0.65367   0.00000  Uiso   1.00
C190   C     0.78822   0.07243   0.61284   0.00000  Uiso   1.00
C191   C     0.83067   0.10023   0.69598   0.00000  Uiso   1.00
C192   C     0.78648   0.14043   0.74689   0.00000  Uiso   1.00
C193   C     0.74293   0.20917   0.85492   0.00000  Uiso   1.00
C194   C     0.81639   0.04146   0.42145   0.00000  Uiso   1.00
C195   C     0.88253   0.04324   0.34367   0.00000  Uiso   1.00
C196   C     0.86206   0.05737   0.23344   0.00000  Uiso   1.00
C197   C     0.86224   0.07803   0.04431   0.00000  Uiso   1.00
C198   C     0.67051   0.04896   0.48887   0.00000  Uiso   1.00
C199   C     0.67966   0.99408   0.53410   0.00000  Uiso   1.00
C200   C     0.61443   0.95835   0.54494   0.00000  Uiso   1.00
C201   C     0.63581   0.91020   0.58813   0.00000  Uiso   1.00
C202   C     0.70460   0.08436   0.58164   0.00000  Uiso   1.00
C203   C     0.66034   0.12452   0.63243   0.00000  Uiso   1.00
C204   C     0.70271   0.15238   0.71564   0.00000  Uiso   1.00
C205   C     0.73276   0.05339   0.39025   0.00000  Uiso   1.00
C206   C     0.71219   0.06753   0.28012   0.00000  Uiso   1.00
C207   C     0.77828   0.06932   0.20219   0.00000  Uiso   1.00
H208   H     0.88957   0.01771   0.57061   0.00000  Uiso   1.00
H209   H     0.84949   0.92484   0.63263   0.00000  Uiso   1.00
H210   H     0.89539   0.09099   0.72010   0.00000  Uiso   1.00
H211   H     0.94723   0.03400   0.36785   0.00000  Uiso   1.00
H212   H     0.76816   0.82714   0.68768   0.00000  Uiso   1.00
H213   H     0.86496   0.17749   0.87209   0.00000  Uiso   1.00
H214   H     0.97428   0.05732   0.12929   0.00000  Uiso   1.00
H215   H     0.60540   0.05824   0.46458   0.00000  Uiso   1.00
H216   H     0.54973   0.96759   0.52079   0.00000  Uiso   1.00
H217   H     0.59563   0.13375   0.60826   0.00000  Uiso   1.00
H218   H     0.64747   0.07676   0.25601   0.00000  Uiso   1.00
H219   H     0.52487   0.86184   0.59691   0.00000  Uiso   1.00
H220   H     0.62167   0.21219   0.78131   0.00000  Uiso   1.00
H221   H     0.73099   0.09202   0.03851   0.00000  Uiso   1.00
O222   O     0.61501   0.78413   0.68122   0.00000  Uiso   1.00
O223   O     0.74201   0.24378   0.92313   0.00000  Uiso   1.00
O224   O     0.88544   0.08612   0.94860   0.00000  Uiso   1.00
N225   N     0.71855   0.84774   0.65858   0.00000  Uiso   1.00
N226   N     0.80904   0.17530   0.83101   0.00000  Uiso   1.00
N227   N     0.91125   0.06296   0.13656   0.00000  Uiso   1.00
N228   N     0.58763   0.86641   0.60974   0.00000  Uiso   1.00
N229   N     0.67813   0.19397   0.78216   0.00000  Uiso   1.00
N230   N     0.78034   0.08163   0.08771   0.00000  Uiso   1.00
C231   C     0.86667   0.88431   0.96344   0.00000  Uiso   1.00
C232   C     0.78460   0.91348   0.93827   0.00000  Uiso   1.00
C233   C     0.77900   0.96198   0.88882   0.00000  Uiso   1.00
C234   C     0.69803   0.98204   0.87292   0.00000  Uiso   1.00
C235   C     0.58166   0.03150   0.82886   0.00000  Uiso   1.00
C236   C     0.85878   0.83250   0.90297   0.00000  Uiso   1.00
C237   C     0.91555   0.81290   0.82385   0.00000  Uiso   1.00
C238   C     0.89702   0.76477   0.77825   0.00000  Uiso   1.00
C239   C     0.89585   0.68849   0.67945   0.00000  Uiso   1.00
C240   C     0.86490   0.87228   0.08997   0.00000  Uiso   1.00
C241   C     0.92683   0.88611   0.16808   0.00000  Uiso   1.00
C242   C     0.91346   0.87147   0.27992   0.00000  Uiso   1.00
C243   C     0.92179   0.85695   0.47146   0.00000  Uiso   1.00
C244   C     0.73282   0.83370   0.02315   0.00000  Uiso   1.00
C245   C     0.71191   0.88599   0.97071   0.00000  Uiso   1.00
C246   C     0.63092   0.90598   0.95489   0.00000  Uiso   1.00
C247   C     0.62520   0.95450   0.90542   0.00000  Uiso   1.00
C248   C     0.78608   0.80500   0.93541   0.00000  Uiso   1.00
C249   C     0.76747   0.75690   0.88992   0.00000  Uiso   1.00
C250   C     0.82419   0.73723   0.81074   0.00000  Uiso   1.00
C251   C     0.79220   0.84478   0.12241   0.00000  Uiso   1.00
C252   C     0.77874   0.83012   0.23415   0.00000  Uiso   1.00
C253   C     0.84063   0.84393   0.31241   0.00000  Uiso   1.00
H254   H     0.92327   0.90571   0.93818   0.00000  Uiso   1.00
H255   H     0.83528   0.98324   0.86371   0.00000  Uiso   1.00
H256   H     0.97181   0.83418   0.79877   0.00000  Uiso   1.00
H257   H     0.98308   0.90739   0.14295   0.00000  Uiso   1.00
H258   H     0.70566   0.05706   0.79543   0.00000  Uiso   1.00
H259   H     0.99356   0.74275   0.65852   0.00000  Uiso   1.00
H260   H     0.01733   0.89712   0.38427   0.00000  Uiso   1.00
H261   H     0.67622   0.81229   0.04841   0.00000  Uiso   1.00
H262   H     0.57467   0.88470   0.98000   0.00000  Uiso   1.00
H263   H     0.71121   0.73563   0.91505   0.00000  Uiso   1.00
H264   H     0.72248   0.80884   0.25922   0.00000  Uiso   1.00
H265   H     0.49414   0.97708   0.88980   0.00000  Uiso   1.00
H266   H     0.78205   0.66276   0.75289   0.00000  Uiso   1.00
H267   H     0.80581   0.81713   0.47865   0.00000  Uiso   1.00
O268   O     0.53755   0.06638   0.79559   0.00000  Uiso   1.00
O269   O     0.91528   0.65400   0.61598   0.00000  Uiso   1.00
O270   O     0.94646   0.85654   0.56816   0.00000  Uiso   1.00
N271   N     0.66981   0.02831   0.82705   0.00000  Uiso   1.00
N272   N     0.93898   0.73444   0.69903   0.00000  Uiso   1.00
N273   N     0.96121   0.87876   0.37755   0.00000  Uiso   1.00
N274   N     0.55600   0.98527   0.87783   0.00000  Uiso   1.00
N275   N     0.82517   0.69140   0.74981   0.00000  Uiso   1.00
N276   N     0.84740   0.83572   0.42833   0.00000  Uiso   1.00
C277   C     0.17553   0.97300   0.04631   0.00000  Uiso   1.00
C278   C     0.23672   0.01785   0.06530   0.00000  Uiso   1.00
C279   C     0.21524   0.06595   0.10849   0.00000  Uiso   1.00
C280   C     0.28042   0.10175   0.11939   0.00000  Uiso   1.00
C281   C     0.36270   0.17318   0.15367   0.00000  Uiso   1.00
C282   C     0.21178   0.92757   0.11284   0.00000  Uiso   1.00
C283   C     0.16933   0.89977   0.19598   0.00000  Uiso   1.00
C284   C     0.21352   0.85957   0.24689   0.00000  Uiso   1.00
C285   C     0.25707   0.79083   0.35492   0.00000  Uiso   1.00
C286   C     0.18361   0.95854   0.92145   0.00000  Uiso   1.00
C287   C     0.11747   0.95676   0.84367   0.00000  Uiso   1.00
C288   C     0.13794   0.94263   0.73344   0.00000  Uiso   1.00
C289   C     0.13776   0.92197   0.54431   0.00000  Uiso   1.00
C290   C     0.32949   0.95104   0.98887   0.00000  Uiso   1.00
C291   C     0.32034   0.00592   0.03410   0.00000  Uiso   1.00
C292   C     0.38557   0.04165   0.04494   0.00000  Uiso   1.00
C293   C     0.36419   0.08980   0.08813   0.00000  Uiso   1.00
C294   C     0.29540   0.91564   0.08164   0.00000  Uiso   1.00
C295   C     0.33966   0.87548   0.13243   0.00000  Uiso   1.00
C296   C     0.29729   0.84762   0.21564   0.00000  Uiso   1.00
C297   C     0.26724   0.94661   0.89025   0.00000  Uiso   1.00
C298   C     0.28781   0.93247   0.78012   0.00000  Uiso   1.00
C299   C     0.22172   0.93068   0.70219   0.00000  Uiso   1.00
H300   H     0.11043   0.98229   0.07061   0.00000  Uiso   1.00
H301   H     0.15051   0.07516   0.13263   0.00000  Uiso   1.00
H302   H     0.10461   0.90901   0.22010   0.00000  Uiso   1.00
H303   H     0.05277   0.96600   0.86785   0.00000  Uiso   1.00
H304   H     0.23184   0.17286   0.18768   0.00000  Uiso   1.00
H305   H     0.13504   0.82251   0.37209   0.00000  Uiso   1.00
H306   H     0.02572   0.94268   0.62929   0.00000  Uiso   1.00
H307   H     0.39460   0.94176   0.96458   0.00000  Uiso   1.00
H308   H     0.45027   0.03241   0.02079   0.00000  Uiso   1.00
H309   H     0.40437   0.86625   0.10826   0.00000  Uiso   1.00
H310   H     0.35253   0.92324   0.75601   0.00000  Uiso   1.00
H311   H     0.47513   0.13816   0.09691   0.00000  Uiso   1.00
H312   H     0.37833   0.78781   0.28131   0.00000  Uiso   1.00
H313   H     0.26901   0.90798   0.53851   0.00000  Uiso   1.00
O314   O     0.38499   0.21587   0.18122   0.00000  Uiso   1.00
O315   O     0.25799   0.75622   0.42313   0.00000  Uiso   1.00
O316   O     0.11456   0.91388   0.44860   0.00000  Uiso   1.00
N317   N     0.28145   0.15226   0.15858   0.00000  Uiso   1.00
N318   N     0.19096   0.82470   0.33101   0.00000  Uiso   1.00
N319   N     0.08875   0.93704   0.63656   0.00000  Uiso   1.00
N320   N     0.41237   0.13359   0.10974   0.00000  Uiso   1.00
N321   N     0.32187   0.80603   0.28216   0.00000  Uiso   1.00
N322   N     0.21966   0.91837   0.58771   0.00000  Uiso   1.00
C323   C     0.13333   0.11569   0.46344   0.00000  Uiso   1.00
C324   C     0.21540   0.08652   0.43827   0.00000  Uiso   1.00
C325   C     0.22100   0.03802   0.38882   0.00000  Uiso   1.00
C326   C     0.30197   0.01796   0.37292   0.00000  Uiso   1.00
C327   C     0.41834   0.96850   0.32886   0.00000  Uiso   1.00
C328   C     0.14122   0.16750   0.40297   0.00000  Uiso   1.00
C329   C     0.08445   0.18710   0.32385   0.00000  Uiso   1.00
C330   C     0.10298   0.23523   0.27825   0.00000  Uiso   1.00
C331   C     0.10415   0.31151   0.17945   0.00000  Uiso   1.00
C332   C     0.13510   0.12772   0.58997   0.00000  Uiso   1.00
C333   C     0.07317   0.11389   0.66808   0.00000  Uiso   1.00
C334   C     0.08654   0.12853   0.77992   0.00000  Uiso   1.00
C335   C     0.07821   0.14305   0.97146   0.00000  Uiso   1.00
C336   C     0.26718   0.16630   0.52315   0.00000  Uiso   1.00
C337   C     0.28809   0.11401   0.47071   0.00000  Uiso   1.00
C338   C     0.36908   0.09402   0.45489   0.00000  Uiso   1.00
C339   C     0.37480   0.04550   0.40542   0.00000  Uiso   1.00
C340   C     0.21392   0.19500   0.43541   0.00000  Uiso   1.00
C341   C     0.23253   0.24310   0.38992   0.00000  Uiso   1.00
C342   C     0.17581   0.26277   0.31074   0.00000  Uiso   1.00
C343   C     0.20780   0.15522   0.62241   0.00000  Uiso   1.00
C344   C     0.22126   0.16988   0.73415   0.00000  Uiso   1.00
C345   C     0.15937   0.15607   0.81241   0.00000  Uiso   1.00
H346   H     0.07673   0.09429   0.43818   0.00000  Uiso   1.00
H347   H     0.16472   0.01676   0.36371   0.00000  Uiso   1.00
H348   H     0.02819   0.16582   0.29877   0.00000  Uiso   1.00
H349   H     0.01692   0.09261   0.64295   0.00000  Uiso   1.00
H350   H     0.29434   0.94294   0.29543   0.00000  Uiso   1.00
H351   H     0.00644   0.25725   0.15852   0.00000  Uiso   1.00
H352   H     0.98267   0.10288   0.88427   0.00000  Uiso   1.00
H353   H     0.32378   0.18771   0.54841   0.00000  Uiso   1.00
H354   H     0.42533   0.11530   0.48000   0.00000  Uiso   1.00
H355   H     0.28879   0.26437   0.41505   0.00000  Uiso   1.00
H356   H     0.27752   0.19116   0.75922   0.00000  Uiso   1.00
H357   H     0.50586   0.02292   0.38980   0.00000  Uiso   1.00
H358   H     0.21795   0.33724   0.25289   0.00000  Uiso   1.00
H359   H     0.19419   0.18287   0.97865   0.00000  Uiso   1.00
O360   O     0.46245   0.93362   0.29559   0.00000  Uiso   1.00
O361   O     0.08472   0.34600   0.11598   0.00000  Uiso   1.00
O362   O     0.05354   0.14346   0.06816   0.00000  Uiso   1.00
N363   N     0.33019   0.97169   0.32705   0.00000  Uiso   1.00
N364   N     0.06102   0.26556   0.19903   0.00000  Uiso   1.00
N365   N     0.03879   0.12124   0.87755   0.00000  Uiso   1.00
N366   N     0.44400   0.01473   0.37783   0.00000  Uiso   1.00
N367   N     0.17483   0.30860   0.24981   0.00000  Uiso   1.00
N368   N     0.15260   0.16428   0.92833   0.00000  Uiso   1.00
