data_job_00544
_audit_creation_date              2018-12-19
_audit_creation_method            'Materials Studio'
_symmetry_space_group_name_H-M    'P1'
_symmetry_Int_Tables_number       1
_symmetry_cell_setting            triclinic
loop_
_symmetry_equiv_pos_as_xyz
  x,y,z
_cell_length_a                    16.3685
_cell_length_b                    15.8991
_cell_length_c                    9.2284
_cell_angle_alpha                 90.0000
_cell_angle_beta                  98.7572
_cell_angle_gamma                 90.0000
loop_
_atom_site_label
_atom_site_type_symbol
_atom_site_fract_x
_atom_site_fract_y
_atom_site_fract_z
_atom_site_U_iso_or_equiv
_atom_site_adp_type
_atom_site_occupancy
C1     C     0.70081   0.46893   0.46845   0.00000  Uiso   1.00
C2     C     0.72252   0.55834   0.42820   0.00000  Uiso   1.00
C3     C     0.69634   0.63144   0.48927   0.00000  Uiso   1.00
C4     C     0.72293   0.70711   0.43756   0.00000  Uiso   1.00
C5     C     0.74886   0.84558   0.39156   0.00000  Uiso   1.00
C6     C     0.66122   0.42754   0.32584   0.00000  Uiso   1.00
C7     C     0.58350   0.39066   0.30086   0.00000  Uiso   1.00
C8     C     0.55849   0.35620   0.16300   0.00000  Uiso   1.00
C9     C     0.48927   0.29155   0.95812   0.00000  Uiso   1.00
C10    C     0.78297   0.42390   0.51396   0.00000  Uiso   1.00
C11    C     0.80761   0.38393   0.64714   0.00000  Uiso   1.00
C12    C     0.88510   0.34640   0.66765   0.00000  Uiso   1.00
C13    C     0.00491   0.27610   0.75486   0.00000  Uiso   1.00
C14    C     0.79461   0.47330   0.26802   0.00000  Uiso   1.00
C15    C     0.77347   0.56071   0.31933   0.00000  Uiso   1.00
C16    C     0.80011   0.63629   0.26752   0.00000  Uiso   1.00
C17    C     0.77397   0.70949   0.32851   0.00000  Uiso   1.00
C18    C     0.71216   0.42991   0.21697   0.00000  Uiso   1.00
C19    C     0.68727   0.39550   0.07912   0.00000  Uiso   1.00
C20    C     0.60953   0.35858   0.05394   0.00000  Uiso   1.00
C21    C     0.83392   0.42627   0.40510   0.00000  Uiso   1.00
C22    C     0.91138   0.38878   0.42539   0.00000  Uiso   1.00
C23    C     0.93614   0.34878   0.55859   0.00000  Uiso   1.00
H24    H     0.66115   0.46707   0.55320   0.00000  Uiso   1.00
H25    H     0.65691   0.62958   0.57350   0.00000  Uiso   1.00
H26    H     0.54409   0.38882   0.38513   0.00000  Uiso   1.00
H27    H     0.76817   0.38211   0.73136   0.00000  Uiso   1.00
H28    H     0.67465   0.81080   0.54797   0.00000  Uiso   1.00
H29    H     0.43678   0.30312   0.15080   0.00000  Uiso   1.00
H30    H     0.90928   0.28896   0.88088   0.00000  Uiso   1.00
H31    H     0.83427   0.47515   0.18326   0.00000  Uiso   1.00
H32    H     0.83954   0.63810   0.18327   0.00000  Uiso   1.00
H33    H     0.72671   0.39734   0.99490   0.00000  Uiso   1.00
H34    H     0.95079   0.39063   0.34113   0.00000  Uiso   1.00
H35    H     0.82287   0.81772   0.23124   0.00000  Uiso   1.00
H36    H     0.58500   0.31004   0.83407   0.00000  Uiso   1.00
H37    H     0.05751   0.29588   0.56415   0.00000  Uiso   1.00
O38    O     0.74907   0.92131   0.39625   0.00000  Uiso   1.00
O39    O     0.43700   0.25524   0.87519   0.00000  Uiso   1.00
O40    O     0.05692   0.23667   0.83304   0.00000  Uiso   1.00
N41    N     0.70882   0.79006   0.47345   0.00000  Uiso   1.00
N42    N     0.48642   0.31543   0.10211   0.00000  Uiso   1.00
N43    N     0.92817   0.30217   0.78466   0.00000  Uiso   1.00
N44    N     0.78858   0.79379   0.30302   0.00000  Uiso   1.00
N45    N     0.56618   0.31915   0.93168   0.00000  Uiso   1.00
N46    N     0.00793   0.30589   0.61423   0.00000  Uiso   1.00
C47    C     0.29919   0.96893   0.03155   0.00000  Uiso   1.00
C48    C     0.27748   0.05834   0.07180   0.00000  Uiso   1.00
C49    C     0.30366   0.13144   0.01073   0.00000  Uiso   1.00
C50    C     0.27707   0.20711   0.06244   0.00000  Uiso   1.00
C51    C     0.25114   0.34558   0.10844   0.00000  Uiso   1.00
C52    C     0.33878   0.92754   0.17416   0.00000  Uiso   1.00
C53    C     0.41650   0.89066   0.19914   0.00000  Uiso   1.00
C54    C     0.44151   0.85620   0.33700   0.00000  Uiso   1.00
C55    C     0.51073   0.79155   0.54188   0.00000  Uiso   1.00
C56    C     0.21703   0.92390   0.98604   0.00000  Uiso   1.00
C57    C     0.19239   0.88393   0.85286   0.00000  Uiso   1.00
C58    C     0.11490   0.84640   0.83235   0.00000  Uiso   1.00
C59    C     0.99509   0.77610   0.74514   0.00000  Uiso   1.00
C60    C     0.20539   0.97330   0.23198   0.00000  Uiso   1.00
C61    C     0.22653   0.06071   0.18067   0.00000  Uiso   1.00
C62    C     0.19989   0.13629   0.23248   0.00000  Uiso   1.00
C63    C     0.22603   0.20949   0.17149   0.00000  Uiso   1.00
C64    C     0.28784   0.92991   0.28303   0.00000  Uiso   1.00
C65    C     0.31273   0.89550   0.42088   0.00000  Uiso   1.00
C66    C     0.39047   0.85858   0.44606   0.00000  Uiso   1.00
C67    C     0.16608   0.92627   0.09490   0.00000  Uiso   1.00
C68    C     0.08862   0.88878   0.07461   0.00000  Uiso   1.00
C69    C     0.06386   0.84878   0.94141   0.00000  Uiso   1.00
H70    H     0.33885   0.96707   0.94680   0.00000  Uiso   1.00
H71    H     0.34309   0.12958   0.92650   0.00000  Uiso   1.00
H72    H     0.45591   0.88882   0.11487   0.00000  Uiso   1.00
H73    H     0.23183   0.88211   0.76864   0.00000  Uiso   1.00
H74    H     0.32535   0.31080   0.95203   0.00000  Uiso   1.00
H75    H     0.56322   0.80312   0.34920   0.00000  Uiso   1.00
H76    H     0.09072   0.78896   0.61912   0.00000  Uiso   1.00
H77    H     0.16573   0.97515   0.31674   0.00000  Uiso   1.00
H78    H     0.16046   0.13810   0.31673   0.00000  Uiso   1.00
H79    H     0.27329   0.89734   0.50510   0.00000  Uiso   1.00
H80    H     0.04921   0.89063   0.15887   0.00000  Uiso   1.00
H81    H     0.17713   0.31772   0.26876   0.00000  Uiso   1.00
H82    H     0.41500   0.81004   0.66593   0.00000  Uiso   1.00
H83    H     0.94249   0.79588   0.93585   0.00000  Uiso   1.00
O84    O     0.25093   0.42131   0.10375   0.00000  Uiso   1.00
O85    O     0.56300   0.75524   0.62481   0.00000  Uiso   1.00
O86    O     0.94308   0.73667   0.66696   0.00000  Uiso   1.00
N87    N     0.29118   0.29006   0.02655   0.00000  Uiso   1.00
N88    N     0.51358   0.81543   0.39789   0.00000  Uiso   1.00
N89    N     0.07183   0.80217   0.71534   0.00000  Uiso   1.00
N90    N     0.21142   0.29379   0.19698   0.00000  Uiso   1.00
N91    N     0.43382   0.81915   0.56832   0.00000  Uiso   1.00
N92    N     0.99207   0.80589   0.88577   0.00000  Uiso   1.00
C93    C     0.29919   0.53107   0.53155   0.00000  Uiso   1.00
C94    C     0.27748   0.44166   0.57180   0.00000  Uiso   1.00
C95    C     0.30366   0.36856   0.51073   0.00000  Uiso   1.00
C96    C     0.27707   0.29289   0.56244   0.00000  Uiso   1.00
C97    C     0.25114   0.15442   0.60844   0.00000  Uiso   1.00
C98    C     0.33878   0.57246   0.67416   0.00000  Uiso   1.00
C99    C     0.41650   0.60934   0.69914   0.00000  Uiso   1.00
C100   C     0.44151   0.64380   0.83700   0.00000  Uiso   1.00
C101   C     0.51073   0.70845   0.04188   0.00000  Uiso   1.00
C102   C     0.21703   0.57610   0.48604   0.00000  Uiso   1.00
C103   C     0.19239   0.61607   0.35286   0.00000  Uiso   1.00
C104   C     0.11490   0.65360   0.33235   0.00000  Uiso   1.00
C105   C     0.99509   0.72390   0.24514   0.00000  Uiso   1.00
C106   C     0.20539   0.52670   0.73198   0.00000  Uiso   1.00
C107   C     0.22653   0.43929   0.68067   0.00000  Uiso   1.00
C108   C     0.19989   0.36371   0.73248   0.00000  Uiso   1.00
C109   C     0.22603   0.29051   0.67149   0.00000  Uiso   1.00
C110   C     0.28784   0.57009   0.78303   0.00000  Uiso   1.00
C111   C     0.31273   0.60450   0.92088   0.00000  Uiso   1.00
C112   C     0.39047   0.64142   0.94606   0.00000  Uiso   1.00
C113   C     0.16608   0.57373   0.59490   0.00000  Uiso   1.00
C114   C     0.08862   0.61122   0.57461   0.00000  Uiso   1.00
C115   C     0.06386   0.65122   0.44141   0.00000  Uiso   1.00
H116   H     0.33885   0.53293   0.44680   0.00000  Uiso   1.00
H117   H     0.34309   0.37042   0.42650   0.00000  Uiso   1.00
H118   H     0.45591   0.61118   0.61487   0.00000  Uiso   1.00
H119   H     0.23183   0.61789   0.26864   0.00000  Uiso   1.00
H120   H     0.32535   0.18920   0.45203   0.00000  Uiso   1.00
H121   H     0.56322   0.69688   0.84920   0.00000  Uiso   1.00
H122   H     0.09072   0.71104   0.11912   0.00000  Uiso   1.00
H123   H     0.16573   0.52485   0.81674   0.00000  Uiso   1.00
H124   H     0.16046   0.36190   0.81673   0.00000  Uiso   1.00
H125   H     0.27329   0.60266   0.00510   0.00000  Uiso   1.00
H126   H     0.04921   0.60937   0.65887   0.00000  Uiso   1.00
H127   H     0.17713   0.18228   0.76876   0.00000  Uiso   1.00
H128   H     0.41500   0.68996   0.16593   0.00000  Uiso   1.00
H129   H     0.94249   0.70412   0.43585   0.00000  Uiso   1.00
O130   O     0.25093   0.07869   0.60375   0.00000  Uiso   1.00
O131   O     0.56300   0.74476   0.12481   0.00000  Uiso   1.00
O132   O     0.94308   0.76333   0.16696   0.00000  Uiso   1.00
N133   N     0.29118   0.20994   0.52655   0.00000  Uiso   1.00
N134   N     0.51358   0.68457   0.89789   0.00000  Uiso   1.00
N135   N     0.07183   0.69783   0.21534   0.00000  Uiso   1.00
N136   N     0.21142   0.20621   0.69698   0.00000  Uiso   1.00
N137   N     0.43382   0.68085   0.06832   0.00000  Uiso   1.00
N138   N     0.99207   0.69411   0.38577   0.00000  Uiso   1.00
C139   C     0.70081   0.03107   0.96845   0.00000  Uiso   1.00
C140   C     0.72252   0.94166   0.92820   0.00000  Uiso   1.00
C141   C     0.69634   0.86856   0.98927   0.00000  Uiso   1.00
C142   C     0.72293   0.79289   0.93756   0.00000  Uiso   1.00
C143   C     0.74886   0.65442   0.89156   0.00000  Uiso   1.00
C144   C     0.66122   0.07246   0.82584   0.00000  Uiso   1.00
C145   C     0.58350   0.10934   0.80086   0.00000  Uiso   1.00
C146   C     0.55849   0.14380   0.66300   0.00000  Uiso   1.00
C147   C     0.48927   0.20845   0.45812   0.00000  Uiso   1.00
C148   C     0.78297   0.07610   0.01396   0.00000  Uiso   1.00
C149   C     0.80761   0.11607   0.14714   0.00000  Uiso   1.00
C150   C     0.88510   0.15360   0.16765   0.00000  Uiso   1.00
C151   C     0.00491   0.22390   0.25486   0.00000  Uiso   1.00
C152   C     0.79461   0.02670   0.76802   0.00000  Uiso   1.00
C153   C     0.77347   0.93929   0.81933   0.00000  Uiso   1.00
C154   C     0.80011   0.86371   0.76752   0.00000  Uiso   1.00
C155   C     0.77397   0.79051   0.82851   0.00000  Uiso   1.00
C156   C     0.71216   0.07009   0.71697   0.00000  Uiso   1.00
C157   C     0.68727   0.10450   0.57912   0.00000  Uiso   1.00
C158   C     0.60953   0.14142   0.55394   0.00000  Uiso   1.00
C159   C     0.83392   0.07373   0.90510   0.00000  Uiso   1.00
C160   C     0.91138   0.11122   0.92539   0.00000  Uiso   1.00
C161   C     0.93614   0.15122   0.05859   0.00000  Uiso   1.00
H162   H     0.66115   0.03293   0.05320   0.00000  Uiso   1.00
H163   H     0.65691   0.87042   0.07350   0.00000  Uiso   1.00
H164   H     0.54409   0.11118   0.88513   0.00000  Uiso   1.00
H165   H     0.76817   0.11789   0.23136   0.00000  Uiso   1.00
H166   H     0.67465   0.68920   0.04797   0.00000  Uiso   1.00
H167   H     0.43678   0.19688   0.65080   0.00000  Uiso   1.00
H168   H     0.90928   0.21104   0.38088   0.00000  Uiso   1.00
H169   H     0.83427   0.02485   0.68326   0.00000  Uiso   1.00
H170   H     0.83954   0.86190   0.68327   0.00000  Uiso   1.00
H171   H     0.72671   0.10266   0.49490   0.00000  Uiso   1.00
H172   H     0.95079   0.10937   0.84113   0.00000  Uiso   1.00
H173   H     0.82287   0.68228   0.73124   0.00000  Uiso   1.00
H174   H     0.58500   0.18996   0.33407   0.00000  Uiso   1.00
H175   H     0.05751   0.20412   0.06415   0.00000  Uiso   1.00
O176   O     0.74907   0.57869   0.89625   0.00000  Uiso   1.00
O177   O     0.43700   0.24476   0.37519   0.00000  Uiso   1.00
O178   O     0.05692   0.26333   0.33304   0.00000  Uiso   1.00
N179   N     0.70882   0.70994   0.97345   0.00000  Uiso   1.00
N180   N     0.48642   0.18457   0.60211   0.00000  Uiso   1.00
N181   N     0.92817   0.19783   0.28466   0.00000  Uiso   1.00
N182   N     0.78858   0.70621   0.80302   0.00000  Uiso   1.00
N183   N     0.56618   0.18085   0.43168   0.00000  Uiso   1.00
N184   N     0.00793   0.19411   0.11423   0.00000  Uiso   1.00
