data_job_04320
_audit_creation_date              2018-12-19
_audit_creation_method            'Materials Studio'
_symmetry_space_group_name_H-M    'P1'
_symmetry_Int_Tables_number       1
_symmetry_cell_setting            triclinic
loop_
_symmetry_equiv_pos_as_xyz
  x,y,z
_cell_length_a                    16.2573
_cell_length_b                    10.5854
_cell_length_c                    25.4690
_cell_angle_alpha                 90.0000
_cell_angle_beta                  90.0000
_cell_angle_gamma                 90.0000
loop_
_atom_site_label
_atom_site_type_symbol
_atom_site_fract_x
_atom_site_fract_y
_atom_site_fract_z
_atom_site_U_iso_or_equiv
_atom_site_adp_type
_atom_site_occupancy
C1     C     0.94731   0.41113   0.43272   0.00000  Uiso   1.00
C2     C     0.87364   0.42856   0.39637   0.00000  Uiso   1.00
C3     C     0.80611   0.50529   0.40608   0.00000  Uiso   1.00
C4     C     0.74512   0.50831   0.36794   0.00000  Uiso   1.00
C5     C     0.62973   0.54615   0.31854   0.00000  Uiso   1.00
C6     C     0.95339   0.26961   0.44322   0.00000  Uiso   1.00
C7     C     0.95293   0.21271   0.49231   0.00000  Uiso   1.00
C8     C     0.95909   0.08192   0.49360   0.00000  Uiso   1.00
C9     C     0.96758   0.87300   0.51693   0.00000  Uiso   1.00
C10    C     0.02297   0.44538   0.40032   0.00000  Uiso   1.00
C11    C     0.08103   0.53624   0.41334   0.00000  Uiso   1.00
C12    C     0.14579   0.55342   0.37852   0.00000  Uiso   1.00
C13    C     0.26231   0.61741   0.33525   0.00000  Uiso   1.00
C14    C     0.95908   0.28005   0.34773   0.00000  Uiso   1.00
C15    C     0.88003   0.35736   0.35021   0.00000  Uiso   1.00
C16    C     0.81913   0.36026   0.31204   0.00000  Uiso   1.00
C17    C     0.75153   0.43699   0.32169   0.00000  Uiso   1.00
C18    C     0.95978   0.19841   0.39706   0.00000  Uiso   1.00
C19    C     0.96595   0.06768   0.39828   0.00000  Uiso   1.00
C20    C     0.96550   0.01059   0.44735   0.00000  Uiso   1.00
C21    C     0.02936   0.37418   0.35415   0.00000  Uiso   1.00
C22    C     0.09405   0.39121   0.31931   0.00000  Uiso   1.00
C23    C     0.15219   0.48209   0.33228   0.00000  Uiso   1.00
H24    H     0.94233   0.46655   0.46866   0.00000  Uiso   1.00
H25    H     0.80118   0.56037   0.44181   0.00000  Uiso   1.00
H26    H     0.94799   0.26783   0.52803   0.00000  Uiso   1.00
H27    H     0.07606   0.59132   0.44907   0.00000  Uiso   1.00
H28    H     0.64749   0.63294   0.39169   0.00000  Uiso   1.00
H29    H     0.95707   0.01612   0.57349   0.00000  Uiso   1.00
H30    H     0.22715   0.69825   0.40700   0.00000  Uiso   1.00
H31    H     0.96406   0.22461   0.31178   0.00000  Uiso   1.00
H32    H     0.82410   0.30515   0.27632   0.00000  Uiso   1.00
H33    H     0.97090   0.01261   0.36254   0.00000  Uiso   1.00
H34    H     0.09898   0.33610   0.28359   0.00000  Uiso   1.00
H35    H     0.66609   0.42579   0.25738   0.00000  Uiso   1.00
H36    H     0.97567   0.80897   0.43917   0.00000  Uiso   1.00
H37    H     0.24574   0.49110   0.27268   0.00000  Uiso   1.00
O38    O     0.56432   0.58668   0.30405   0.00000  Uiso   1.00
O39    O     0.97049   0.77744   0.54255   0.00000  Uiso   1.00
O40    O     0.32481   0.67238   0.32412   0.00000  Uiso   1.00
N41    N     0.67109   0.57316   0.36495   0.00000  Uiso   1.00
N42    N     0.96051   0.99646   0.53491   0.00000  Uiso   1.00
N43    N     0.21302   0.63417   0.37926   0.00000  Uiso   1.00
N44    N     0.68109   0.46169   0.29267   0.00000  Uiso   1.00
N45    N     0.97052   0.88500   0.46264   0.00000  Uiso   1.00
N46    N     0.22302   0.52271   0.30699   0.00000  Uiso   1.00
C47    C     0.23744   0.59161   0.07947   0.00000  Uiso   1.00
C48    C     0.15986   0.56360   0.11104   0.00000  Uiso   1.00
C49    C     0.09728   0.48189   0.09622   0.00000  Uiso   1.00
C50    C     0.03146   0.46924   0.13055   0.00000  Uiso   1.00
C51    C     0.91144   0.41566   0.17235   0.00000  Uiso   1.00
C52    C     0.23908   0.73440   0.07162   0.00000  Uiso   1.00
C53    C     0.24312   0.79628   0.02365   0.00000  Uiso   1.00
C54    C     0.24400   0.92741   0.02480   0.00000  Uiso   1.00
C55    C     0.24702   0.13899   0.00539   0.00000  Uiso   1.00
C56    C     0.30954   0.56101   0.11559   0.00000  Uiso   1.00
C57    C     0.37285   0.47713   0.10459   0.00000  Uiso   1.00
C58    C     0.43306   0.46230   0.14276   0.00000  Uiso   1.00
C59    C     0.54549   0.40467   0.19162   0.00000  Uiso   1.00
C60    C     0.23183   0.71446   0.16681   0.00000  Uiso   1.00
C61    C     0.15681   0.63034   0.15848   0.00000  Uiso   1.00
C62    C     0.09107   0.61781   0.19285   0.00000  Uiso   1.00
C63    C     0.02841   0.53608   0.17808   0.00000  Uiso   1.00
C64    C     0.23603   0.80113   0.11906   0.00000  Uiso   1.00
C65    C     0.23691   0.93220   0.12028   0.00000  Uiso   1.00
C66    C     0.24094   0.99426   0.07232   0.00000  Uiso   1.00
C67    C     0.30650   0.62774   0.16303   0.00000  Uiso   1.00
C68    C     0.36663   0.61305   0.20122   0.00000  Uiso   1.00
C69    C     0.43001   0.52915   0.19028   0.00000  Uiso   1.00
H70    H     0.23982   0.53966   0.04253   0.00000  Uiso   1.00
H71    H     0.09966   0.43027   0.05950   0.00000  Uiso   1.00
H72    H     0.24548   0.74461   0.98694   0.00000  Uiso   1.00
H73    H     0.37518   0.42551   0.06787   0.00000  Uiso   1.00
H74    H     0.94291   0.33845   0.09922   0.00000  Uiso   1.00
H75    H     0.25042   0.00126   0.94623   0.00000  Uiso   1.00
H76    H     0.52392   0.32837   0.11689   0.00000  Uiso   1.00
H77    H     0.22946   0.76642   0.20374   0.00000  Uiso   1.00
H78    H     0.08873   0.66946   0.22956   0.00000  Uiso   1.00
H79    H     0.23455   0.98381   0.15700   0.00000  Uiso   1.00
H80    H     0.36425   0.66470   0.23793   0.00000  Uiso   1.00
H81    H     0.93403   0.53259   0.23724   0.00000  Uiso   1.00
H82    H     0.24155   0.19540   0.08425   0.00000  Uiso   1.00
H83    H     0.51504   0.52251   0.25491   0.00000  Uiso   1.00
O84    O     0.84607   0.36768   0.18229   0.00000  Uiso   1.00
O85    O     0.24952   0.23725   0.98158   0.00000  Uiso   1.00
O86    O     0.60834   0.35444   0.20548   0.00000  Uiso   1.00
N87    N     0.96014   0.39743   0.12817   0.00000  Uiso   1.00
N88    N     0.24763   0.01711   0.98513   0.00000  Uiso   1.00
N89    N     0.50334   0.38805   0.14467   0.00000  Uiso   1.00
N90    N     0.95537   0.50189   0.20243   0.00000  Uiso   1.00
N91    N     0.24285   0.12158   0.05940   0.00000  Uiso   1.00
N92    N     0.49857   0.49251   0.21894   0.00000  Uiso   1.00
C93    C     0.05269   0.58887   0.93272   0.00000  Uiso   1.00
C94    C     0.12636   0.57144   0.89637   0.00000  Uiso   1.00
C95    C     0.19389   0.49471   0.90608   0.00000  Uiso   1.00
C96    C     0.25488   0.49169   0.86794   0.00000  Uiso   1.00
C97    C     0.37027   0.45385   0.81854   0.00000  Uiso   1.00
C98    C     0.04661   0.73039   0.94322   0.00000  Uiso   1.00
C99    C     0.04707   0.78729   0.99231   0.00000  Uiso   1.00
C100   C     0.04091   0.91808   0.99360   0.00000  Uiso   1.00
C101   C     0.03242   0.12700   0.01693   0.00000  Uiso   1.00
C102   C     0.97703   0.55462   0.90032   0.00000  Uiso   1.00
C103   C     0.91897   0.46376   0.91334   0.00000  Uiso   1.00
C104   C     0.85421   0.44658   0.87852   0.00000  Uiso   1.00
C105   C     0.73769   0.38259   0.83525   0.00000  Uiso   1.00
C106   C     0.04092   0.71995   0.84773   0.00000  Uiso   1.00
C107   C     0.11997   0.64264   0.85021   0.00000  Uiso   1.00
C108   C     0.18087   0.63974   0.81204   0.00000  Uiso   1.00
C109   C     0.24847   0.56301   0.82169   0.00000  Uiso   1.00
C110   C     0.04022   0.80159   0.89706   0.00000  Uiso   1.00
C111   C     0.03405   0.93232   0.89828   0.00000  Uiso   1.00
C112   C     0.03450   0.98941   0.94735   0.00000  Uiso   1.00
C113   C     0.97064   0.62582   0.85415   0.00000  Uiso   1.00
C114   C     0.90595   0.60879   0.81931   0.00000  Uiso   1.00
C115   C     0.84781   0.51791   0.83228   0.00000  Uiso   1.00
H116   H     0.05767   0.53345   0.96866   0.00000  Uiso   1.00
H117   H     0.19882   0.43963   0.94181   0.00000  Uiso   1.00
H118   H     0.05201   0.73217   0.02803   0.00000  Uiso   1.00
H119   H     0.92394   0.40868   0.94907   0.00000  Uiso   1.00
H120   H     0.35251   0.36706   0.89169   0.00000  Uiso   1.00
H121   H     0.04293   0.98388   0.07349   0.00000  Uiso   1.00
H122   H     0.77285   0.30175   0.90700   0.00000  Uiso   1.00
H123   H     0.03594   0.77539   0.81178   0.00000  Uiso   1.00
H124   H     0.17590   0.69485   0.77632   0.00000  Uiso   1.00
H125   H     0.02910   0.98739   0.86254   0.00000  Uiso   1.00
H126   H     0.90102   0.66390   0.78359   0.00000  Uiso   1.00
H127   H     0.33391   0.57421   0.75738   0.00000  Uiso   1.00
H128   H     0.02433   0.19103   0.93917   0.00000  Uiso   1.00
H129   H     0.75426   0.50890   0.77268   0.00000  Uiso   1.00
O130   O     0.43568   0.41332   0.80405   0.00000  Uiso   1.00
O131   O     0.02951   0.22256   0.04255   0.00000  Uiso   1.00
O132   O     0.67519   0.32762   0.82412   0.00000  Uiso   1.00
N133   N     0.32891   0.42684   0.86495   0.00000  Uiso   1.00
N134   N     0.03949   0.00354   0.03491   0.00000  Uiso   1.00
N135   N     0.78698   0.36583   0.87926   0.00000  Uiso   1.00
N136   N     0.31891   0.53831   0.79267   0.00000  Uiso   1.00
N137   N     0.02948   0.11500   0.96264   0.00000  Uiso   1.00
N138   N     0.77698   0.47729   0.80699   0.00000  Uiso   1.00
C139   C     0.76256   0.40839   0.57947   0.00000  Uiso   1.00
C140   C     0.84014   0.43640   0.61104   0.00000  Uiso   1.00
C141   C     0.90272   0.51811   0.59622   0.00000  Uiso   1.00
C142   C     0.96854   0.53076   0.63055   0.00000  Uiso   1.00
C143   C     0.08856   0.58434   0.67235   0.00000  Uiso   1.00
C144   C     0.76092   0.26560   0.57162   0.00000  Uiso   1.00
C145   C     0.75688   0.20372   0.52365   0.00000  Uiso   1.00
C146   C     0.75600   0.07259   0.52480   0.00000  Uiso   1.00
C147   C     0.75298   0.86101   0.50539   0.00000  Uiso   1.00
C148   C     0.69046   0.43899   0.61559   0.00000  Uiso   1.00
C149   C     0.62715   0.52287   0.60459   0.00000  Uiso   1.00
C150   C     0.56694   0.53770   0.64276   0.00000  Uiso   1.00
C151   C     0.45451   0.59533   0.69162   0.00000  Uiso   1.00
C152   C     0.76817   0.28554   0.66681   0.00000  Uiso   1.00
C153   C     0.84319   0.36966   0.65848   0.00000  Uiso   1.00
C154   C     0.90893   0.38219   0.69285   0.00000  Uiso   1.00
C155   C     0.97159   0.46392   0.67808   0.00000  Uiso   1.00
C156   C     0.76397   0.19887   0.61906   0.00000  Uiso   1.00
C157   C     0.76309   0.06780   0.62028   0.00000  Uiso   1.00
C158   C     0.75906   0.00574   0.57232   0.00000  Uiso   1.00
C159   C     0.69350   0.37226   0.66303   0.00000  Uiso   1.00
C160   C     0.63337   0.38695   0.70122   0.00000  Uiso   1.00
C161   C     0.56999   0.47085   0.69028   0.00000  Uiso   1.00
H162   H     0.76018   0.46034   0.54253   0.00000  Uiso   1.00
H163   H     0.90034   0.56973   0.55950   0.00000  Uiso   1.00
H164   H     0.75452   0.25539   0.48694   0.00000  Uiso   1.00
H165   H     0.62482   0.57449   0.56787   0.00000  Uiso   1.00
H166   H     0.05709   0.66155   0.59922   0.00000  Uiso   1.00
H167   H     0.74958   0.99874   0.44623   0.00000  Uiso   1.00
H168   H     0.47608   0.67163   0.61689   0.00000  Uiso   1.00
H169   H     0.77054   0.23358   0.70374   0.00000  Uiso   1.00
H170   H     0.91127   0.33054   0.72956   0.00000  Uiso   1.00
H171   H     0.76545   0.01619   0.65700   0.00000  Uiso   1.00
H172   H     0.63575   0.33530   0.73793   0.00000  Uiso   1.00
H173   H     0.06597   0.46741   0.73724   0.00000  Uiso   1.00
H174   H     0.75845   0.80460   0.58425   0.00000  Uiso   1.00
H175   H     0.48496   0.47749   0.75491   0.00000  Uiso   1.00
O176   O     0.15393   0.63232   0.68229   0.00000  Uiso   1.00
O177   O     0.75048   0.76275   0.48158   0.00000  Uiso   1.00
O178   O     0.39166   0.64556   0.70548   0.00000  Uiso   1.00
N179   N     0.03986   0.60257   0.62817   0.00000  Uiso   1.00
N180   N     0.75237   0.98289   0.48513   0.00000  Uiso   1.00
N181   N     0.49666   0.61195   0.64467   0.00000  Uiso   1.00
N182   N     0.04463   0.49811   0.70243   0.00000  Uiso   1.00
N183   N     0.75715   0.87842   0.55940   0.00000  Uiso   1.00
N184   N     0.50143   0.50749   0.71894   0.00000  Uiso   1.00
C185   C     0.44731   0.08887   0.43272   0.00000  Uiso   1.00
C186   C     0.37364   0.07144   0.39637   0.00000  Uiso   1.00
C187   C     0.30611   0.99471   0.40608   0.00000  Uiso   1.00
C188   C     0.24512   0.99169   0.36794   0.00000  Uiso   1.00
C189   C     0.12973   0.95385   0.31854   0.00000  Uiso   1.00
C190   C     0.45339   0.23039   0.44322   0.00000  Uiso   1.00
C191   C     0.45293   0.28729   0.49231   0.00000  Uiso   1.00
C192   C     0.45909   0.41808   0.49360   0.00000  Uiso   1.00
C193   C     0.46758   0.62700   0.51693   0.00000  Uiso   1.00
C194   C     0.52297   0.05462   0.40032   0.00000  Uiso   1.00
C195   C     0.58103   0.96376   0.41334   0.00000  Uiso   1.00
C196   C     0.64579   0.94658   0.37852   0.00000  Uiso   1.00
C197   C     0.76231   0.88259   0.33525   0.00000  Uiso   1.00
C198   C     0.45908   0.21995   0.34773   0.00000  Uiso   1.00
C199   C     0.38003   0.14264   0.35021   0.00000  Uiso   1.00
C200   C     0.31913   0.13974   0.31204   0.00000  Uiso   1.00
C201   C     0.25153   0.06301   0.32169   0.00000  Uiso   1.00
C202   C     0.45978   0.30159   0.39706   0.00000  Uiso   1.00
C203   C     0.46595   0.43232   0.39828   0.00000  Uiso   1.00
C204   C     0.46550   0.48941   0.44735   0.00000  Uiso   1.00
C205   C     0.52936   0.12582   0.35415   0.00000  Uiso   1.00
C206   C     0.59405   0.10879   0.31931   0.00000  Uiso   1.00
C207   C     0.65219   0.01791   0.33228   0.00000  Uiso   1.00
H208   H     0.44233   0.03345   0.46866   0.00000  Uiso   1.00
H209   H     0.30118   0.93963   0.44181   0.00000  Uiso   1.00
H210   H     0.44799   0.23217   0.52803   0.00000  Uiso   1.00
H211   H     0.57606   0.90868   0.44907   0.00000  Uiso   1.00
H212   H     0.14749   0.86706   0.39169   0.00000  Uiso   1.00
H213   H     0.45707   0.48388   0.57349   0.00000  Uiso   1.00
H214   H     0.72715   0.80175   0.40700   0.00000  Uiso   1.00
H215   H     0.46406   0.27539   0.31178   0.00000  Uiso   1.00
H216   H     0.32410   0.19485   0.27632   0.00000  Uiso   1.00
H217   H     0.47090   0.48739   0.36254   0.00000  Uiso   1.00
H218   H     0.59898   0.16390   0.28359   0.00000  Uiso   1.00
H219   H     0.16609   0.07421   0.25738   0.00000  Uiso   1.00
H220   H     0.47567   0.69103   0.43917   0.00000  Uiso   1.00
H221   H     0.74574   0.00890   0.27268   0.00000  Uiso   1.00
O222   O     0.06432   0.91332   0.30405   0.00000  Uiso   1.00
O223   O     0.47049   0.72256   0.54255   0.00000  Uiso   1.00
O224   O     0.82481   0.82762   0.32412   0.00000  Uiso   1.00
N225   N     0.17109   0.92684   0.36495   0.00000  Uiso   1.00
N226   N     0.46051   0.50354   0.53491   0.00000  Uiso   1.00
N227   N     0.71302   0.86583   0.37926   0.00000  Uiso   1.00
N228   N     0.18109   0.03831   0.29267   0.00000  Uiso   1.00
N229   N     0.47052   0.61500   0.46264   0.00000  Uiso   1.00
N230   N     0.72302   0.97729   0.30699   0.00000  Uiso   1.00
C231   C     0.73744   0.90839   0.07947   0.00000  Uiso   1.00
C232   C     0.65986   0.93640   0.11104   0.00000  Uiso   1.00
C233   C     0.59728   0.01811   0.09622   0.00000  Uiso   1.00
C234   C     0.53146   0.03076   0.13055   0.00000  Uiso   1.00
C235   C     0.41144   0.08434   0.17235   0.00000  Uiso   1.00
C236   C     0.73908   0.76560   0.07162   0.00000  Uiso   1.00
C237   C     0.74312   0.70372   0.02365   0.00000  Uiso   1.00
C238   C     0.74400   0.57259   0.02480   0.00000  Uiso   1.00
C239   C     0.74702   0.36101   0.00539   0.00000  Uiso   1.00
C240   C     0.80954   0.93899   0.11559   0.00000  Uiso   1.00
C241   C     0.87285   0.02287   0.10459   0.00000  Uiso   1.00
C242   C     0.93306   0.03770   0.14276   0.00000  Uiso   1.00
C243   C     0.04549   0.09533   0.19162   0.00000  Uiso   1.00
C244   C     0.73183   0.78554   0.16681   0.00000  Uiso   1.00
C245   C     0.65681   0.86966   0.15848   0.00000  Uiso   1.00
C246   C     0.59107   0.88219   0.19285   0.00000  Uiso   1.00
C247   C     0.52841   0.96392   0.17808   0.00000  Uiso   1.00
C248   C     0.73603   0.69887   0.11906   0.00000  Uiso   1.00
C249   C     0.73691   0.56780   0.12028   0.00000  Uiso   1.00
C250   C     0.74094   0.50574   0.07232   0.00000  Uiso   1.00
C251   C     0.80650   0.87226   0.16303   0.00000  Uiso   1.00
C252   C     0.86663   0.88695   0.20122   0.00000  Uiso   1.00
C253   C     0.93001   0.97085   0.19028   0.00000  Uiso   1.00
H254   H     0.73982   0.96034   0.04253   0.00000  Uiso   1.00
H255   H     0.59966   0.06973   0.05950   0.00000  Uiso   1.00
H256   H     0.74548   0.75539   0.98694   0.00000  Uiso   1.00
H257   H     0.87518   0.07449   0.06787   0.00000  Uiso   1.00
H258   H     0.44291   0.16155   0.09922   0.00000  Uiso   1.00
H259   H     0.75042   0.49874   0.94623   0.00000  Uiso   1.00
H260   H     0.02392   0.17163   0.11689   0.00000  Uiso   1.00
H261   H     0.72946   0.73358   0.20374   0.00000  Uiso   1.00
H262   H     0.58873   0.83054   0.22956   0.00000  Uiso   1.00
H263   H     0.73455   0.51619   0.15700   0.00000  Uiso   1.00
H264   H     0.86425   0.83530   0.23793   0.00000  Uiso   1.00
H265   H     0.43403   0.96741   0.23724   0.00000  Uiso   1.00
H266   H     0.74155   0.30460   0.08425   0.00000  Uiso   1.00
H267   H     0.01504   0.97749   0.25491   0.00000  Uiso   1.00
O268   O     0.34607   0.13232   0.18229   0.00000  Uiso   1.00
O269   O     0.74952   0.26275   0.98158   0.00000  Uiso   1.00
O270   O     0.10834   0.14556   0.20548   0.00000  Uiso   1.00
N271   N     0.46014   0.10257   0.12817   0.00000  Uiso   1.00
N272   N     0.74763   0.48289   0.98513   0.00000  Uiso   1.00
N273   N     0.00334   0.11195   0.14467   0.00000  Uiso   1.00
N274   N     0.45537   0.99811   0.20243   0.00000  Uiso   1.00
N275   N     0.74285   0.37842   0.05940   0.00000  Uiso   1.00
N276   N     0.99857   0.00749   0.21894   0.00000  Uiso   1.00
C277   C     0.55269   0.91113   0.93272   0.00000  Uiso   1.00
C278   C     0.62636   0.92856   0.89637   0.00000  Uiso   1.00
C279   C     0.69389   0.00529   0.90608   0.00000  Uiso   1.00
C280   C     0.75488   0.00831   0.86794   0.00000  Uiso   1.00
C281   C     0.87027   0.04615   0.81854   0.00000  Uiso   1.00
C282   C     0.54661   0.76961   0.94322   0.00000  Uiso   1.00
C283   C     0.54707   0.71271   0.99231   0.00000  Uiso   1.00
C284   C     0.54091   0.58192   0.99360   0.00000  Uiso   1.00
C285   C     0.53242   0.37300   0.01693   0.00000  Uiso   1.00
C286   C     0.47703   0.94538   0.90032   0.00000  Uiso   1.00
C287   C     0.41897   0.03624   0.91334   0.00000  Uiso   1.00
C288   C     0.35421   0.05342   0.87852   0.00000  Uiso   1.00
C289   C     0.23769   0.11741   0.83525   0.00000  Uiso   1.00
C290   C     0.54092   0.78005   0.84773   0.00000  Uiso   1.00
C291   C     0.61997   0.85736   0.85021   0.00000  Uiso   1.00
C292   C     0.68087   0.86026   0.81204   0.00000  Uiso   1.00
C293   C     0.74847   0.93699   0.82169   0.00000  Uiso   1.00
C294   C     0.54022   0.69841   0.89706   0.00000  Uiso   1.00
C295   C     0.53405   0.56768   0.89828   0.00000  Uiso   1.00
C296   C     0.53450   0.51059   0.94735   0.00000  Uiso   1.00
C297   C     0.47064   0.87418   0.85415   0.00000  Uiso   1.00
C298   C     0.40595   0.89121   0.81931   0.00000  Uiso   1.00
C299   C     0.34781   0.98209   0.83228   0.00000  Uiso   1.00
H300   H     0.55767   0.96655   0.96866   0.00000  Uiso   1.00
H301   H     0.69882   0.06037   0.94181   0.00000  Uiso   1.00
H302   H     0.55201   0.76783   0.02803   0.00000  Uiso   1.00
H303   H     0.42394   0.09132   0.94907   0.00000  Uiso   1.00
H304   H     0.85251   0.13294   0.89169   0.00000  Uiso   1.00
H305   H     0.54293   0.51612   0.07349   0.00000  Uiso   1.00
H306   H     0.27285   0.19825   0.90700   0.00000  Uiso   1.00
H307   H     0.53594   0.72461   0.81178   0.00000  Uiso   1.00
H308   H     0.67590   0.80515   0.77632   0.00000  Uiso   1.00
H309   H     0.52910   0.51261   0.86254   0.00000  Uiso   1.00
H310   H     0.40102   0.83610   0.78359   0.00000  Uiso   1.00
H311   H     0.83391   0.92579   0.75738   0.00000  Uiso   1.00
H312   H     0.52433   0.30897   0.93917   0.00000  Uiso   1.00
H313   H     0.25426   0.99110   0.77268   0.00000  Uiso   1.00
O314   O     0.93568   0.08668   0.80405   0.00000  Uiso   1.00
O315   O     0.52951   0.27744   0.04255   0.00000  Uiso   1.00
O316   O     0.17519   0.17238   0.82412   0.00000  Uiso   1.00
N317   N     0.82891   0.07316   0.86495   0.00000  Uiso   1.00
N318   N     0.53949   0.49646   0.03491   0.00000  Uiso   1.00
N319   N     0.28698   0.13417   0.87926   0.00000  Uiso   1.00
N320   N     0.81891   0.96169   0.79267   0.00000  Uiso   1.00
N321   N     0.52948   0.38500   0.96264   0.00000  Uiso   1.00
N322   N     0.27698   0.02271   0.80699   0.00000  Uiso   1.00
C323   C     0.26256   0.09161   0.57947   0.00000  Uiso   1.00
C324   C     0.34014   0.06360   0.61104   0.00000  Uiso   1.00
C325   C     0.40272   0.98189   0.59622   0.00000  Uiso   1.00
C326   C     0.46854   0.96924   0.63055   0.00000  Uiso   1.00
C327   C     0.58856   0.91566   0.67235   0.00000  Uiso   1.00
C328   C     0.26092   0.23440   0.57162   0.00000  Uiso   1.00
C329   C     0.25688   0.29628   0.52365   0.00000  Uiso   1.00
C330   C     0.25600   0.42741   0.52480   0.00000  Uiso   1.00
C331   C     0.25298   0.63899   0.50539   0.00000  Uiso   1.00
C332   C     0.19046   0.06101   0.61559   0.00000  Uiso   1.00
C333   C     0.12715   0.97713   0.60459   0.00000  Uiso   1.00
C334   C     0.06694   0.96230   0.64276   0.00000  Uiso   1.00
C335   C     0.95451   0.90467   0.69162   0.00000  Uiso   1.00
C336   C     0.26817   0.21446   0.66681   0.00000  Uiso   1.00
C337   C     0.34319   0.13034   0.65848   0.00000  Uiso   1.00
C338   C     0.40893   0.11781   0.69285   0.00000  Uiso   1.00
C339   C     0.47159   0.03608   0.67808   0.00000  Uiso   1.00
C340   C     0.26397   0.30113   0.61906   0.00000  Uiso   1.00
C341   C     0.26309   0.43220   0.62028   0.00000  Uiso   1.00
C342   C     0.25906   0.49426   0.57232   0.00000  Uiso   1.00
C343   C     0.19350   0.12774   0.66303   0.00000  Uiso   1.00
C344   C     0.13337   0.11305   0.70122   0.00000  Uiso   1.00
C345   C     0.06999   0.02915   0.69028   0.00000  Uiso   1.00
H346   H     0.26018   0.03966   0.54253   0.00000  Uiso   1.00
H347   H     0.40034   0.93027   0.55950   0.00000  Uiso   1.00
H348   H     0.25452   0.24461   0.48694   0.00000  Uiso   1.00
H349   H     0.12482   0.92551   0.56787   0.00000  Uiso   1.00
H350   H     0.55709   0.83845   0.59922   0.00000  Uiso   1.00
H351   H     0.24958   0.50126   0.44623   0.00000  Uiso   1.00
H352   H     0.97608   0.82837   0.61689   0.00000  Uiso   1.00
H353   H     0.27054   0.26642   0.70374   0.00000  Uiso   1.00
H354   H     0.41127   0.16946   0.72956   0.00000  Uiso   1.00
H355   H     0.26545   0.48381   0.65700   0.00000  Uiso   1.00
H356   H     0.13575   0.16470   0.73793   0.00000  Uiso   1.00
H357   H     0.56597   0.03259   0.73724   0.00000  Uiso   1.00
H358   H     0.25845   0.69540   0.58425   0.00000  Uiso   1.00
H359   H     0.98496   0.02251   0.75491   0.00000  Uiso   1.00
O360   O     0.65393   0.86768   0.68229   0.00000  Uiso   1.00
O361   O     0.25048   0.73725   0.48158   0.00000  Uiso   1.00
O362   O     0.89166   0.85444   0.70548   0.00000  Uiso   1.00
N363   N     0.53986   0.89743   0.62817   0.00000  Uiso   1.00
N364   N     0.25237   0.51711   0.48513   0.00000  Uiso   1.00
N365   N     0.99666   0.88805   0.64467   0.00000  Uiso   1.00
N366   N     0.54463   0.00189   0.70243   0.00000  Uiso   1.00
N367   N     0.25715   0.62158   0.55940   0.00000  Uiso   1.00
N368   N     0.00143   0.99251   0.71894   0.00000  Uiso   1.00
