data_job_02354
_audit_creation_date              2018-12-19
_audit_creation_method            'Materials Studio'
_symmetry_space_group_name_H-M    'P1'
_symmetry_Int_Tables_number       1
_symmetry_cell_setting            triclinic
loop_
_symmetry_equiv_pos_as_xyz
  x,y,z
_cell_length_a                    30.7743
_cell_length_b                    30.7743
_cell_length_c                    7.0940
_cell_angle_alpha                 90.0000
_cell_angle_beta                  90.0000
_cell_angle_gamma                 90.0000
loop_
_atom_site_label
_atom_site_type_symbol
_atom_site_fract_x
_atom_site_fract_y
_atom_site_fract_z
_atom_site_U_iso_or_equiv
_atom_site_adp_type
_atom_site_occupancy
C1     C     0.43695   0.78738   0.51424   0.00000  Uiso   1.00
C2     C     0.42376   0.83419   0.47309   0.00000  Uiso   1.00
C3     C     0.41831   0.86676   0.60632   0.00000  Uiso   1.00
C4     C     0.40614   0.90744   0.54021   0.00000  Uiso   1.00
C5     C     0.38662   0.97894   0.50560   0.00000  Uiso   1.00
C6     C     0.40134   0.75892   0.42997   0.00000  Uiso   1.00
C7     C     0.37705   0.72819   0.52695   0.00000  Uiso   1.00
C8     C     0.34601   0.70551   0.42453   0.00000  Uiso   1.00
C9     C     0.29171   0.66012   0.32294   0.00000  Uiso   1.00
C10    C     0.47758   0.77885   0.39685   0.00000  Uiso   1.00
C11    C     0.51738   0.76487   0.46597   0.00000  Uiso   1.00
C12    C     0.55052   0.75896   0.33567   0.00000  Uiso   1.00
C13    C     0.61459   0.74452   0.18266   0.00000  Uiso   1.00
C14    C     0.42502   0.80171   0.15991   0.00000  Uiso   1.00
C15    C     0.41728   0.84198   0.28063   0.00000  Uiso   1.00
C16    C     0.40511   0.88262   0.21430   0.00000  Uiso   1.00
C17    C     0.39965   0.91524   0.34741   0.00000  Uiso   1.00
C18    C     0.39486   0.76670   0.23752   0.00000  Uiso   1.00
C19    C     0.36386   0.74405   0.13493   0.00000  Uiso   1.00
C20    C     0.33952   0.71331   0.23173   0.00000  Uiso   1.00
C21    C     0.47110   0.78664   0.20439   0.00000  Uiso   1.00
C22    C     0.50418   0.78074   0.07395   0.00000  Uiso   1.00
C23    C     0.54403   0.76676   0.14286   0.00000  Uiso   1.00
H24    H     0.44200   0.78132   0.66407   0.00000  Uiso   1.00
H25    H     0.42333   0.86072   0.75525   0.00000  Uiso   1.00
H26    H     0.38208   0.72217   0.67588   0.00000  Uiso   1.00
H27    H     0.52238   0.75885   0.61491   0.00000  Uiso   1.00
H28    H     0.39975   0.95218   0.77146   0.00000  Uiso   1.00
H29    H     0.31279   0.66004   0.60410   0.00000  Uiso   1.00
H30    H     0.60865   0.73738   0.47555   0.00000  Uiso   1.00
H31    H     0.41998   0.80778   0.01007   0.00000  Uiso   1.00
H32    H     0.40010   0.88864   0.06536   0.00000  Uiso   1.00
H33    H     0.35885   0.75009   0.98599   0.00000  Uiso   1.00
H34    H     0.49916   0.78677   0.92503   0.00000  Uiso   1.00
H35    H     0.38090   0.97484   0.21153   0.00000  Uiso   1.00
H36    H     0.29394   0.68269   0.04416   0.00000  Uiso   1.00
H37    H     0.58980   0.76004   0.91561   0.00000  Uiso   1.00
O38    O     0.37763   0.01622   0.53967   0.00000  Uiso   1.00
O39    O     0.26355   0.63294   0.32009   0.00000  Uiso   1.00
O40    O     0.65171   0.73441   0.15144   0.00000  Uiso   1.00
N41    N     0.39805   0.94642   0.63209   0.00000  Uiso   1.00
N42    N     0.31674   0.67329   0.47562   0.00000  Uiso   1.00
N43    N     0.59335   0.74558   0.35543   0.00000  Uiso   1.00
N44    N     0.38791   0.95861   0.33079   0.00000  Uiso   1.00
N45    N     0.30660   0.68548   0.17432   0.00000  Uiso   1.00
N46    N     0.58320   0.75778   0.05413   0.00000  Uiso   1.00
C47    C     0.93695   0.28738   0.01424   0.00000  Uiso   1.00
C48    C     0.92376   0.33419   0.97309   0.00000  Uiso   1.00
C49    C     0.91831   0.36676   0.10632   0.00000  Uiso   1.00
C50    C     0.90614   0.40744   0.04021   0.00000  Uiso   1.00
C51    C     0.88662   0.47894   0.00560   0.00000  Uiso   1.00
C52    C     0.90134   0.25892   0.92997   0.00000  Uiso   1.00
C53    C     0.87705   0.22819   0.02695   0.00000  Uiso   1.00
C54    C     0.84601   0.20551   0.92453   0.00000  Uiso   1.00
C55    C     0.79171   0.16012   0.82294   0.00000  Uiso   1.00
C56    C     0.97758   0.27885   0.89685   0.00000  Uiso   1.00
C57    C     0.01738   0.26487   0.96597   0.00000  Uiso   1.00
C58    C     0.05052   0.25896   0.83567   0.00000  Uiso   1.00
C59    C     0.11459   0.24452   0.68266   0.00000  Uiso   1.00
C60    C     0.92502   0.30171   0.65991   0.00000  Uiso   1.00
C61    C     0.91728   0.34198   0.78063   0.00000  Uiso   1.00
C62    C     0.90511   0.38262   0.71430   0.00000  Uiso   1.00
C63    C     0.89965   0.41524   0.84741   0.00000  Uiso   1.00
C64    C     0.89486   0.26670   0.73752   0.00000  Uiso   1.00
C65    C     0.86386   0.24405   0.63493   0.00000  Uiso   1.00
C66    C     0.83952   0.21331   0.73173   0.00000  Uiso   1.00
C67    C     0.97110   0.28664   0.70439   0.00000  Uiso   1.00
C68    C     0.00418   0.28074   0.57395   0.00000  Uiso   1.00
C69    C     0.04403   0.26676   0.64286   0.00000  Uiso   1.00
H70    H     0.94200   0.28132   0.16407   0.00000  Uiso   1.00
H71    H     0.92333   0.36072   0.25525   0.00000  Uiso   1.00
H72    H     0.88208   0.22217   0.17588   0.00000  Uiso   1.00
H73    H     0.02238   0.25885   0.11491   0.00000  Uiso   1.00
H74    H     0.89975   0.45218   0.27146   0.00000  Uiso   1.00
H75    H     0.81279   0.16004   0.10410   0.00000  Uiso   1.00
H76    H     0.10865   0.23738   0.97555   0.00000  Uiso   1.00
H77    H     0.91998   0.30778   0.51007   0.00000  Uiso   1.00
H78    H     0.90010   0.38864   0.56536   0.00000  Uiso   1.00
H79    H     0.85885   0.25009   0.48599   0.00000  Uiso   1.00
H80    H     0.99916   0.28677   0.42503   0.00000  Uiso   1.00
H81    H     0.88090   0.47484   0.71153   0.00000  Uiso   1.00
H82    H     0.79394   0.18269   0.54416   0.00000  Uiso   1.00
H83    H     0.08980   0.26004   0.41561   0.00000  Uiso   1.00
O84    O     0.87763   0.51622   0.03967   0.00000  Uiso   1.00
O85    O     0.76355   0.13294   0.82009   0.00000  Uiso   1.00
O86    O     0.15171   0.23441   0.65144   0.00000  Uiso   1.00
N87    N     0.89805   0.44642   0.13209   0.00000  Uiso   1.00
N88    N     0.81674   0.17329   0.97562   0.00000  Uiso   1.00
N89    N     0.09335   0.24558   0.85543   0.00000  Uiso   1.00
N90    N     0.88791   0.45861   0.83079   0.00000  Uiso   1.00
N91    N     0.80660   0.18548   0.67432   0.00000  Uiso   1.00
N92    N     0.08320   0.25778   0.55413   0.00000  Uiso   1.00
C93    C     0.56305   0.21262   0.51424   0.00000  Uiso   1.00
C94    C     0.57624   0.16581   0.47309   0.00000  Uiso   1.00
C95    C     0.58169   0.13324   0.60632   0.00000  Uiso   1.00
C96    C     0.59386   0.09256   0.54021   0.00000  Uiso   1.00
C97    C     0.61338   0.02106   0.50560   0.00000  Uiso   1.00
C98    C     0.59866   0.24108   0.42997   0.00000  Uiso   1.00
C99    C     0.62295   0.27181   0.52695   0.00000  Uiso   1.00
C100   C     0.65399   0.29449   0.42453   0.00000  Uiso   1.00
C101   C     0.70829   0.33988   0.32294   0.00000  Uiso   1.00
C102   C     0.52242   0.22115   0.39685   0.00000  Uiso   1.00
C103   C     0.48262   0.23513   0.46597   0.00000  Uiso   1.00
C104   C     0.44948   0.24104   0.33567   0.00000  Uiso   1.00
C105   C     0.38541   0.25548   0.18266   0.00000  Uiso   1.00
C106   C     0.57498   0.19829   0.15991   0.00000  Uiso   1.00
C107   C     0.58272   0.15802   0.28063   0.00000  Uiso   1.00
C108   C     0.59489   0.11738   0.21430   0.00000  Uiso   1.00
C109   C     0.60035   0.08476   0.34741   0.00000  Uiso   1.00
C110   C     0.60514   0.23330   0.23752   0.00000  Uiso   1.00
C111   C     0.63614   0.25595   0.13493   0.00000  Uiso   1.00
C112   C     0.66048   0.28669   0.23173   0.00000  Uiso   1.00
C113   C     0.52890   0.21336   0.20439   0.00000  Uiso   1.00
C114   C     0.49582   0.21926   0.07395   0.00000  Uiso   1.00
C115   C     0.45597   0.23324   0.14286   0.00000  Uiso   1.00
H116   H     0.55800   0.21868   0.66407   0.00000  Uiso   1.00
H117   H     0.57667   0.13928   0.75525   0.00000  Uiso   1.00
H118   H     0.61792   0.27783   0.67588   0.00000  Uiso   1.00
H119   H     0.47762   0.24115   0.61491   0.00000  Uiso   1.00
H120   H     0.60025   0.04782   0.77146   0.00000  Uiso   1.00
H121   H     0.68721   0.33996   0.60410   0.00000  Uiso   1.00
H122   H     0.39135   0.26262   0.47555   0.00000  Uiso   1.00
H123   H     0.58002   0.19222   0.01007   0.00000  Uiso   1.00
H124   H     0.59990   0.11136   0.06536   0.00000  Uiso   1.00
H125   H     0.64115   0.24991   0.98599   0.00000  Uiso   1.00
H126   H     0.50084   0.21323   0.92503   0.00000  Uiso   1.00
H127   H     0.61910   0.02516   0.21153   0.00000  Uiso   1.00
H128   H     0.70606   0.31731   0.04416   0.00000  Uiso   1.00
H129   H     0.41020   0.23996   0.91561   0.00000  Uiso   1.00
O130   O     0.62237   0.98378   0.53967   0.00000  Uiso   1.00
O131   O     0.73645   0.36706   0.32009   0.00000  Uiso   1.00
O132   O     0.34829   0.26559   0.15144   0.00000  Uiso   1.00
N133   N     0.60195   0.05358   0.63209   0.00000  Uiso   1.00
N134   N     0.68326   0.32671   0.47562   0.00000  Uiso   1.00
N135   N     0.40665   0.25442   0.35543   0.00000  Uiso   1.00
N136   N     0.61209   0.04139   0.33079   0.00000  Uiso   1.00
N137   N     0.69340   0.31452   0.17432   0.00000  Uiso   1.00
N138   N     0.41680   0.24222   0.05413   0.00000  Uiso   1.00
C139   C     0.06305   0.71262   0.01424   0.00000  Uiso   1.00
C140   C     0.07624   0.66581   0.97309   0.00000  Uiso   1.00
C141   C     0.08169   0.63324   0.10632   0.00000  Uiso   1.00
C142   C     0.09386   0.59256   0.04021   0.00000  Uiso   1.00
C143   C     0.11338   0.52106   0.00560   0.00000  Uiso   1.00
C144   C     0.09866   0.74108   0.92997   0.00000  Uiso   1.00
C145   C     0.12295   0.77181   0.02695   0.00000  Uiso   1.00
C146   C     0.15399   0.79449   0.92453   0.00000  Uiso   1.00
C147   C     0.20829   0.83988   0.82294   0.00000  Uiso   1.00
C148   C     0.02242   0.72115   0.89685   0.00000  Uiso   1.00
C149   C     0.98262   0.73513   0.96597   0.00000  Uiso   1.00
C150   C     0.94948   0.74104   0.83567   0.00000  Uiso   1.00
C151   C     0.88541   0.75548   0.68266   0.00000  Uiso   1.00
C152   C     0.07498   0.69829   0.65991   0.00000  Uiso   1.00
C153   C     0.08272   0.65802   0.78063   0.00000  Uiso   1.00
C154   C     0.09489   0.61738   0.71430   0.00000  Uiso   1.00
C155   C     0.10035   0.58476   0.84741   0.00000  Uiso   1.00
C156   C     0.10514   0.73330   0.73752   0.00000  Uiso   1.00
C157   C     0.13614   0.75595   0.63493   0.00000  Uiso   1.00
C158   C     0.16048   0.78669   0.73173   0.00000  Uiso   1.00
C159   C     0.02890   0.71336   0.70439   0.00000  Uiso   1.00
C160   C     0.99582   0.71926   0.57395   0.00000  Uiso   1.00
C161   C     0.95597   0.73324   0.64286   0.00000  Uiso   1.00
H162   H     0.05800   0.71868   0.16407   0.00000  Uiso   1.00
H163   H     0.07667   0.63928   0.25525   0.00000  Uiso   1.00
H164   H     0.11792   0.77783   0.17588   0.00000  Uiso   1.00
H165   H     0.97762   0.74115   0.11491   0.00000  Uiso   1.00
H166   H     0.10025   0.54782   0.27146   0.00000  Uiso   1.00
H167   H     0.18721   0.83996   0.10410   0.00000  Uiso   1.00
H168   H     0.89135   0.76262   0.97555   0.00000  Uiso   1.00
H169   H     0.08002   0.69222   0.51007   0.00000  Uiso   1.00
H170   H     0.09990   0.61136   0.56536   0.00000  Uiso   1.00
H171   H     0.14115   0.74991   0.48599   0.00000  Uiso   1.00
H172   H     0.00084   0.71323   0.42503   0.00000  Uiso   1.00
H173   H     0.11910   0.52516   0.71153   0.00000  Uiso   1.00
H174   H     0.20606   0.81731   0.54416   0.00000  Uiso   1.00
H175   H     0.91020   0.73996   0.41561   0.00000  Uiso   1.00
O176   O     0.12237   0.48378   0.03967   0.00000  Uiso   1.00
O177   O     0.23645   0.86706   0.82009   0.00000  Uiso   1.00
O178   O     0.84829   0.76559   0.65144   0.00000  Uiso   1.00
N179   N     0.10195   0.55358   0.13209   0.00000  Uiso   1.00
N180   N     0.18326   0.82671   0.97562   0.00000  Uiso   1.00
N181   N     0.90665   0.75442   0.85543   0.00000  Uiso   1.00
N182   N     0.11209   0.54139   0.83079   0.00000  Uiso   1.00
N183   N     0.19340   0.81452   0.67432   0.00000  Uiso   1.00
N184   N     0.91680   0.74222   0.55413   0.00000  Uiso   1.00
C185   C     0.78738   0.56305   0.48576   0.00000  Uiso   1.00
C186   C     0.83419   0.57624   0.52691   0.00000  Uiso   1.00
C187   C     0.86676   0.58169   0.39368   0.00000  Uiso   1.00
C188   C     0.90744   0.59386   0.45979   0.00000  Uiso   1.00
C189   C     0.97894   0.61338   0.49440   0.00000  Uiso   1.00
C190   C     0.75892   0.59866   0.57003   0.00000  Uiso   1.00
C191   C     0.72819   0.62295   0.47305   0.00000  Uiso   1.00
C192   C     0.70551   0.65399   0.57547   0.00000  Uiso   1.00
C193   C     0.66012   0.70829   0.67706   0.00000  Uiso   1.00
C194   C     0.77885   0.52242   0.60315   0.00000  Uiso   1.00
C195   C     0.76487   0.48262   0.53403   0.00000  Uiso   1.00
C196   C     0.75896   0.44948   0.66433   0.00000  Uiso   1.00
C197   C     0.74452   0.38541   0.81734   0.00000  Uiso   1.00
C198   C     0.80171   0.57498   0.84009   0.00000  Uiso   1.00
C199   C     0.84198   0.58272   0.71937   0.00000  Uiso   1.00
C200   C     0.88262   0.59489   0.78570   0.00000  Uiso   1.00
C201   C     0.91524   0.60035   0.65259   0.00000  Uiso   1.00
C202   C     0.76670   0.60514   0.76248   0.00000  Uiso   1.00
C203   C     0.74405   0.63614   0.86507   0.00000  Uiso   1.00
C204   C     0.71331   0.66048   0.76827   0.00000  Uiso   1.00
C205   C     0.78664   0.52890   0.79561   0.00000  Uiso   1.00
C206   C     0.78074   0.49582   0.92605   0.00000  Uiso   1.00
C207   C     0.76676   0.45597   0.85714   0.00000  Uiso   1.00
H208   H     0.78132   0.55800   0.33593   0.00000  Uiso   1.00
H209   H     0.86072   0.57667   0.24475   0.00000  Uiso   1.00
H210   H     0.72217   0.61792   0.32412   0.00000  Uiso   1.00
H211   H     0.75885   0.47762   0.38509   0.00000  Uiso   1.00
H212   H     0.95218   0.60025   0.22854   0.00000  Uiso   1.00
H213   H     0.66004   0.68721   0.39590   0.00000  Uiso   1.00
H214   H     0.73738   0.39135   0.52445   0.00000  Uiso   1.00
H215   H     0.80778   0.58002   0.98993   0.00000  Uiso   1.00
H216   H     0.88864   0.59990   0.93464   0.00000  Uiso   1.00
H217   H     0.75009   0.64115   0.01401   0.00000  Uiso   1.00
H218   H     0.78677   0.50084   0.07497   0.00000  Uiso   1.00
H219   H     0.97484   0.61910   0.78847   0.00000  Uiso   1.00
H220   H     0.68269   0.70606   0.95584   0.00000  Uiso   1.00
H221   H     0.76004   0.41020   0.08439   0.00000  Uiso   1.00
O222   O     0.01622   0.62237   0.46033   0.00000  Uiso   1.00
O223   O     0.63294   0.73645   0.67991   0.00000  Uiso   1.00
O224   O     0.73441   0.34829   0.84856   0.00000  Uiso   1.00
N225   N     0.94642   0.60195   0.36791   0.00000  Uiso   1.00
N226   N     0.67329   0.68326   0.52438   0.00000  Uiso   1.00
N227   N     0.74558   0.40665   0.64457   0.00000  Uiso   1.00
N228   N     0.95861   0.61209   0.66921   0.00000  Uiso   1.00
N229   N     0.68548   0.69340   0.82568   0.00000  Uiso   1.00
N230   N     0.75778   0.41680   0.94587   0.00000  Uiso   1.00
C231   C     0.28738   0.06305   0.98576   0.00000  Uiso   1.00
C232   C     0.33419   0.07624   0.02691   0.00000  Uiso   1.00
C233   C     0.36676   0.08169   0.89368   0.00000  Uiso   1.00
C234   C     0.40744   0.09386   0.95979   0.00000  Uiso   1.00
C235   C     0.47894   0.11338   0.99440   0.00000  Uiso   1.00
C236   C     0.25892   0.09866   0.07003   0.00000  Uiso   1.00
C237   C     0.22819   0.12295   0.97305   0.00000  Uiso   1.00
C238   C     0.20551   0.15399   0.07547   0.00000  Uiso   1.00
C239   C     0.16012   0.20829   0.17706   0.00000  Uiso   1.00
C240   C     0.27885   0.02242   0.10315   0.00000  Uiso   1.00
C241   C     0.26487   0.98262   0.03403   0.00000  Uiso   1.00
C242   C     0.25896   0.94948   0.16433   0.00000  Uiso   1.00
C243   C     0.24452   0.88541   0.31734   0.00000  Uiso   1.00
C244   C     0.30171   0.07498   0.34009   0.00000  Uiso   1.00
C245   C     0.34198   0.08272   0.21937   0.00000  Uiso   1.00
C246   C     0.38262   0.09489   0.28570   0.00000  Uiso   1.00
C247   C     0.41524   0.10035   0.15259   0.00000  Uiso   1.00
C248   C     0.26670   0.10514   0.26248   0.00000  Uiso   1.00
C249   C     0.24405   0.13614   0.36507   0.00000  Uiso   1.00
C250   C     0.21331   0.16048   0.26827   0.00000  Uiso   1.00
C251   C     0.28664   0.02890   0.29561   0.00000  Uiso   1.00
C252   C     0.28074   0.99582   0.42605   0.00000  Uiso   1.00
C253   C     0.26676   0.95597   0.35714   0.00000  Uiso   1.00
H254   H     0.28132   0.05800   0.83593   0.00000  Uiso   1.00
H255   H     0.36072   0.07667   0.74475   0.00000  Uiso   1.00
H256   H     0.22217   0.11792   0.82412   0.00000  Uiso   1.00
H257   H     0.25885   0.97762   0.88509   0.00000  Uiso   1.00
H258   H     0.45218   0.10025   0.72854   0.00000  Uiso   1.00
H259   H     0.16004   0.18721   0.89590   0.00000  Uiso   1.00
H260   H     0.23738   0.89135   0.02445   0.00000  Uiso   1.00
H261   H     0.30778   0.08002   0.48993   0.00000  Uiso   1.00
H262   H     0.38864   0.09990   0.43464   0.00000  Uiso   1.00
H263   H     0.25009   0.14115   0.51401   0.00000  Uiso   1.00
H264   H     0.28677   0.00084   0.57497   0.00000  Uiso   1.00
H265   H     0.47484   0.11910   0.28847   0.00000  Uiso   1.00
H266   H     0.18269   0.20606   0.45584   0.00000  Uiso   1.00
H267   H     0.26004   0.91020   0.58439   0.00000  Uiso   1.00
O268   O     0.51622   0.12237   0.96033   0.00000  Uiso   1.00
O269   O     0.13294   0.23645   0.17991   0.00000  Uiso   1.00
O270   O     0.23441   0.84829   0.34856   0.00000  Uiso   1.00
N271   N     0.44642   0.10195   0.86791   0.00000  Uiso   1.00
N272   N     0.17329   0.18326   0.02438   0.00000  Uiso   1.00
N273   N     0.24558   0.90665   0.14457   0.00000  Uiso   1.00
N274   N     0.45861   0.11209   0.16921   0.00000  Uiso   1.00
N275   N     0.18548   0.19340   0.32568   0.00000  Uiso   1.00
N276   N     0.25778   0.91680   0.44587   0.00000  Uiso   1.00
C277   C     0.21262   0.43695   0.48576   0.00000  Uiso   1.00
C278   C     0.16581   0.42376   0.52691   0.00000  Uiso   1.00
C279   C     0.13324   0.41831   0.39368   0.00000  Uiso   1.00
C280   C     0.09256   0.40614   0.45979   0.00000  Uiso   1.00
C281   C     0.02106   0.38662   0.49440   0.00000  Uiso   1.00
C282   C     0.24108   0.40134   0.57003   0.00000  Uiso   1.00
C283   C     0.27181   0.37705   0.47305   0.00000  Uiso   1.00
C284   C     0.29449   0.34601   0.57547   0.00000  Uiso   1.00
C285   C     0.33988   0.29171   0.67706   0.00000  Uiso   1.00
C286   C     0.22115   0.47758   0.60315   0.00000  Uiso   1.00
C287   C     0.23513   0.51738   0.53403   0.00000  Uiso   1.00
C288   C     0.24104   0.55052   0.66433   0.00000  Uiso   1.00
C289   C     0.25548   0.61459   0.81734   0.00000  Uiso   1.00
C290   C     0.19829   0.42502   0.84009   0.00000  Uiso   1.00
C291   C     0.15802   0.41728   0.71937   0.00000  Uiso   1.00
C292   C     0.11738   0.40511   0.78570   0.00000  Uiso   1.00
C293   C     0.08476   0.39965   0.65259   0.00000  Uiso   1.00
C294   C     0.23330   0.39486   0.76248   0.00000  Uiso   1.00
C295   C     0.25595   0.36386   0.86507   0.00000  Uiso   1.00
C296   C     0.28669   0.33952   0.76827   0.00000  Uiso   1.00
C297   C     0.21336   0.47110   0.79561   0.00000  Uiso   1.00
C298   C     0.21926   0.50418   0.92605   0.00000  Uiso   1.00
C299   C     0.23324   0.54403   0.85714   0.00000  Uiso   1.00
H300   H     0.21868   0.44200   0.33593   0.00000  Uiso   1.00
H301   H     0.13928   0.42333   0.24475   0.00000  Uiso   1.00
H302   H     0.27783   0.38208   0.32412   0.00000  Uiso   1.00
H303   H     0.24115   0.52238   0.38509   0.00000  Uiso   1.00
H304   H     0.04782   0.39975   0.22854   0.00000  Uiso   1.00
H305   H     0.33996   0.31279   0.39590   0.00000  Uiso   1.00
H306   H     0.26262   0.60865   0.52445   0.00000  Uiso   1.00
H307   H     0.19222   0.41998   0.98993   0.00000  Uiso   1.00
H308   H     0.11136   0.40010   0.93464   0.00000  Uiso   1.00
H309   H     0.24991   0.35885   0.01401   0.00000  Uiso   1.00
H310   H     0.21323   0.49916   0.07497   0.00000  Uiso   1.00
H311   H     0.02516   0.38090   0.78847   0.00000  Uiso   1.00
H312   H     0.31731   0.29394   0.95584   0.00000  Uiso   1.00
H313   H     0.23996   0.58980   0.08439   0.00000  Uiso   1.00
O314   O     0.98378   0.37763   0.46033   0.00000  Uiso   1.00
O315   O     0.36706   0.26355   0.67991   0.00000  Uiso   1.00
O316   O     0.26559   0.65171   0.84856   0.00000  Uiso   1.00
N317   N     0.05358   0.39805   0.36791   0.00000  Uiso   1.00
N318   N     0.32671   0.31674   0.52438   0.00000  Uiso   1.00
N319   N     0.25442   0.59335   0.64457   0.00000  Uiso   1.00
N320   N     0.04139   0.38791   0.66921   0.00000  Uiso   1.00
N321   N     0.31452   0.30660   0.82568   0.00000  Uiso   1.00
N322   N     0.24222   0.58320   0.94587   0.00000  Uiso   1.00
C323   C     0.71262   0.93695   0.98576   0.00000  Uiso   1.00
C324   C     0.66581   0.92376   0.02691   0.00000  Uiso   1.00
C325   C     0.63324   0.91831   0.89368   0.00000  Uiso   1.00
C326   C     0.59256   0.90614   0.95979   0.00000  Uiso   1.00
C327   C     0.52106   0.88662   0.99440   0.00000  Uiso   1.00
C328   C     0.74108   0.90134   0.07003   0.00000  Uiso   1.00
C329   C     0.77181   0.87705   0.97305   0.00000  Uiso   1.00
C330   C     0.79449   0.84601   0.07547   0.00000  Uiso   1.00
C331   C     0.83988   0.79171   0.17706   0.00000  Uiso   1.00
C332   C     0.72115   0.97758   0.10315   0.00000  Uiso   1.00
C333   C     0.73513   0.01738   0.03403   0.00000  Uiso   1.00
C334   C     0.74104   0.05052   0.16433   0.00000  Uiso   1.00
C335   C     0.75548   0.11459   0.31734   0.00000  Uiso   1.00
C336   C     0.69829   0.92502   0.34009   0.00000  Uiso   1.00
C337   C     0.65802   0.91728   0.21937   0.00000  Uiso   1.00
C338   C     0.61738   0.90511   0.28570   0.00000  Uiso   1.00
C339   C     0.58476   0.89965   0.15259   0.00000  Uiso   1.00
C340   C     0.73330   0.89486   0.26248   0.00000  Uiso   1.00
C341   C     0.75595   0.86386   0.36507   0.00000  Uiso   1.00
C342   C     0.78669   0.83952   0.26827   0.00000  Uiso   1.00
C343   C     0.71336   0.97110   0.29561   0.00000  Uiso   1.00
C344   C     0.71926   0.00418   0.42605   0.00000  Uiso   1.00
C345   C     0.73324   0.04403   0.35714   0.00000  Uiso   1.00
H346   H     0.71868   0.94200   0.83593   0.00000  Uiso   1.00
H347   H     0.63928   0.92333   0.74475   0.00000  Uiso   1.00
H348   H     0.77783   0.88208   0.82412   0.00000  Uiso   1.00
H349   H     0.74115   0.02238   0.88509   0.00000  Uiso   1.00
H350   H     0.54782   0.89975   0.72854   0.00000  Uiso   1.00
H351   H     0.83996   0.81279   0.89590   0.00000  Uiso   1.00
H352   H     0.76262   0.10865   0.02445   0.00000  Uiso   1.00
H353   H     0.69222   0.91998   0.48993   0.00000  Uiso   1.00
H354   H     0.61136   0.90010   0.43464   0.00000  Uiso   1.00
H355   H     0.74991   0.85885   0.51401   0.00000  Uiso   1.00
H356   H     0.71323   0.99916   0.57497   0.00000  Uiso   1.00
H357   H     0.52516   0.88090   0.28847   0.00000  Uiso   1.00
H358   H     0.81731   0.79394   0.45584   0.00000  Uiso   1.00
H359   H     0.73996   0.08980   0.58439   0.00000  Uiso   1.00
O360   O     0.48378   0.87763   0.96033   0.00000  Uiso   1.00
O361   O     0.86706   0.76355   0.17991   0.00000  Uiso   1.00
O362   O     0.76559   0.15171   0.34856   0.00000  Uiso   1.00
N363   N     0.55358   0.89805   0.86791   0.00000  Uiso   1.00
N364   N     0.82671   0.81674   0.02438   0.00000  Uiso   1.00
N365   N     0.75442   0.09335   0.14457   0.00000  Uiso   1.00
N366   N     0.54139   0.88791   0.16921   0.00000  Uiso   1.00
N367   N     0.81452   0.80660   0.32568   0.00000  Uiso   1.00
N368   N     0.74222   0.08320   0.44587   0.00000  Uiso   1.00
