data_job_03169
_audit_creation_date              2018-12-19
_audit_creation_method            'Materials Studio'
_symmetry_space_group_name_H-M    'P1'
_symmetry_Int_Tables_number       1
_symmetry_cell_setting            triclinic
loop_
_symmetry_equiv_pos_as_xyz
  x,y,z
_cell_length_a                    17.7486
_cell_length_b                    18.2836
_cell_length_c                    14.1296
_cell_angle_alpha                 90.0000
_cell_angle_beta                  136.2056
_cell_angle_gamma                 90.0000
loop_
_atom_site_label
_atom_site_type_symbol
_atom_site_fract_x
_atom_site_fract_y
_atom_site_fract_z
_atom_site_U_iso_or_equiv
_atom_site_adp_type
_atom_site_occupancy
C1     C     0.66534   0.90014   0.83897   0.00000  Uiso   1.00
C2     C     0.76051   0.88534   0.99187   0.00000  Uiso   1.00
C3     C     0.81878   0.82047   0.05060   0.00000  Uiso   1.00
C4     C     0.90296   0.81784   0.19241   0.00000  Uiso   1.00
C5     C     0.04691   0.78571   0.41764   0.00000  Uiso   1.00
C6     C     0.57036   0.92311   0.81567   0.00000  Uiso   1.00
C7     C     0.46874   0.89000   0.72623   0.00000  Uiso   1.00
C8     C     0.39285   0.91917   0.71970   0.00000  Uiso   1.00
C9     C     0.24155   0.94570   0.67130   0.00000  Uiso   1.00
C10    C     0.69661   0.96781   0.81040   0.00000  Uiso   1.00
C11    C     0.70112   0.97229   0.71652   0.00000  Uiso   1.00
C12    C     0.73150   0.03910   0.70553   0.00000  Uiso   1.00
C13    C     0.77623   0.13504   0.64896   0.00000  Uiso   1.00
C14    C     0.71125   0.01083   0.98638   0.00000  Uiso   1.00
C15    C     0.78545   0.94547   0.07193   0.00000  Uiso   1.00
C16    C     0.86957   0.94293   0.21369   0.00000  Uiso   1.00
C17    C     0.92795   0.87807   0.27262   0.00000  Uiso   1.00
C18    C     0.59529   0.98323   0.89573   0.00000  Uiso   1.00
C19    C     0.51953   0.01246   0.88932   0.00000  Uiso   1.00
C20    C     0.41783   0.97940   0.79991   0.00000  Uiso   1.00
C21    C     0.72155   0.02793   0.89047   0.00000  Uiso   1.00
C22    C     0.75192   0.09475   0.87962   0.00000  Uiso   1.00
C23    C     0.75648   0.09933   0.78574   0.00000  Uiso   1.00
H24    H     0.64592   0.85333   0.77663   0.00000  Uiso   1.00
H25    H     0.79945   0.77396   0.98860   0.00000  Uiso   1.00
H26    H     0.44946   0.84348   0.66427   0.00000  Uiso   1.00
H27    H     0.68181   0.92576   0.65458   0.00000  Uiso   1.00
H28    H     0.98063   0.71246   0.25891   0.00000  Uiso   1.00
H29    H     0.24265   0.85906   0.57502   0.00000  Uiso   1.00
H30    H     0.73261   0.03256   0.55456   0.00000  Uiso   1.00
H31    H     0.73067   0.05763   0.04872   0.00000  Uiso   1.00
H32    H     0.88885   0.98947   0.27563   0.00000  Uiso   1.00
H33    H     0.53886   0.05899   0.95129   0.00000  Uiso   1.00
H34    H     0.77121   0.14127   0.94160   0.00000  Uiso   1.00
H35    H     0.05318   0.88737   0.49187   0.00000  Uiso   1.00
H36    H     0.31520   0.03398   0.80797   0.00000  Uiso   1.00
H37    H     0.80517   0.20748   0.78752   0.00000  Uiso   1.00
O38    O     0.11941   0.75138   0.51975   0.00000  Uiso   1.00
O39    O     0.15121   0.94372   0.62249   0.00000  Uiso   1.00
O40    O     0.79403   0.17135   0.59565   0.00000  Uiso   1.00
N41    N     0.97601   0.76298   0.28260   0.00000  Uiso   1.00
N42    N     0.28605   0.90004   0.64322   0.00000  Uiso   1.00
N43    N     0.74409   0.06226   0.62406   0.00000  Uiso   1.00
N44    N     0.01505   0.85710   0.40796   0.00000  Uiso   1.00
N45    N     0.32510   0.99416   0.76857   0.00000  Uiso   1.00
N46    N     0.78314   0.15638   0.74942   0.00000  Uiso   1.00
C47    C     0.33466   0.40014   0.66103   0.00000  Uiso   1.00
C48    C     0.23949   0.38534   0.50813   0.00000  Uiso   1.00
C49    C     0.18122   0.32047   0.44940   0.00000  Uiso   1.00
C50    C     0.09704   0.31784   0.30759   0.00000  Uiso   1.00
C51    C     0.95309   0.28571   0.08236   0.00000  Uiso   1.00
C52    C     0.42964   0.42311   0.68433   0.00000  Uiso   1.00
C53    C     0.53126   0.39000   0.77377   0.00000  Uiso   1.00
C54    C     0.60715   0.41917   0.78030   0.00000  Uiso   1.00
C55    C     0.75845   0.44570   0.82870   0.00000  Uiso   1.00
C56    C     0.30339   0.46781   0.68960   0.00000  Uiso   1.00
C57    C     0.29888   0.47229   0.78348   0.00000  Uiso   1.00
C58    C     0.26850   0.53910   0.79447   0.00000  Uiso   1.00
C59    C     0.22377   0.63504   0.85104   0.00000  Uiso   1.00
C60    C     0.28875   0.51083   0.51362   0.00000  Uiso   1.00
C61    C     0.21455   0.44547   0.42807   0.00000  Uiso   1.00
C62    C     0.13043   0.44293   0.28631   0.00000  Uiso   1.00
C63    C     0.07205   0.37807   0.22738   0.00000  Uiso   1.00
C64    C     0.40471   0.48323   0.60427   0.00000  Uiso   1.00
C65    C     0.48047   0.51246   0.61068   0.00000  Uiso   1.00
C66    C     0.58217   0.47940   0.70009   0.00000  Uiso   1.00
C67    C     0.27845   0.52793   0.60953   0.00000  Uiso   1.00
C68    C     0.24808   0.59475   0.62038   0.00000  Uiso   1.00
C69    C     0.24352   0.59933   0.71426   0.00000  Uiso   1.00
H70    H     0.35408   0.35333   0.72337   0.00000  Uiso   1.00
H71    H     0.20055   0.27396   0.51140   0.00000  Uiso   1.00
H72    H     0.55054   0.34348   0.83573   0.00000  Uiso   1.00
H73    H     0.31819   0.42576   0.84542   0.00000  Uiso   1.00
H74    H     0.01937   0.21246   0.24109   0.00000  Uiso   1.00
H75    H     0.75735   0.35906   0.92498   0.00000  Uiso   1.00
H76    H     0.26739   0.53256   0.94544   0.00000  Uiso   1.00
H77    H     0.26933   0.55763   0.45128   0.00000  Uiso   1.00
H78    H     0.11115   0.48947   0.22437   0.00000  Uiso   1.00
H79    H     0.46114   0.55899   0.54871   0.00000  Uiso   1.00
H80    H     0.22879   0.64127   0.55840   0.00000  Uiso   1.00
H81    H     0.94682   0.38737   0.00813   0.00000  Uiso   1.00
H82    H     0.68480   0.53398   0.69203   0.00000  Uiso   1.00
H83    H     0.19483   0.70748   0.71248   0.00000  Uiso   1.00
O84    O     0.88059   0.25138   0.98025   0.00000  Uiso   1.00
O85    O     0.84879   0.44372   0.87751   0.00000  Uiso   1.00
O86    O     0.20597   0.67135   0.90435   0.00000  Uiso   1.00
N87    N     0.02399   0.26298   0.21740   0.00000  Uiso   1.00
N88    N     0.71395   0.40004   0.85678   0.00000  Uiso   1.00
N89    N     0.25591   0.56226   0.87594   0.00000  Uiso   1.00
N90    N     0.98495   0.35710   0.09204   0.00000  Uiso   1.00
N91    N     0.67490   0.49416   0.73143   0.00000  Uiso   1.00
N92    N     0.21686   0.65638   0.75058   0.00000  Uiso   1.00
C93    C     0.33466   0.09986   0.16103   0.00000  Uiso   1.00
C94    C     0.23949   0.11466   0.00813   0.00000  Uiso   1.00
C95    C     0.18122   0.17953   0.94940   0.00000  Uiso   1.00
C96    C     0.09704   0.18216   0.80759   0.00000  Uiso   1.00
C97    C     0.95309   0.21429   0.58236   0.00000  Uiso   1.00
C98    C     0.42964   0.07689   0.18433   0.00000  Uiso   1.00
C99    C     0.53126   0.11000   0.27377   0.00000  Uiso   1.00
C100   C     0.60715   0.08083   0.28030   0.00000  Uiso   1.00
C101   C     0.75845   0.05430   0.32870   0.00000  Uiso   1.00
C102   C     0.30339   0.03219   0.18960   0.00000  Uiso   1.00
C103   C     0.29888   0.02771   0.28348   0.00000  Uiso   1.00
C104   C     0.26850   0.96090   0.29447   0.00000  Uiso   1.00
C105   C     0.22377   0.86496   0.35104   0.00000  Uiso   1.00
C106   C     0.28875   0.98917   0.01362   0.00000  Uiso   1.00
C107   C     0.21455   0.05453   0.92807   0.00000  Uiso   1.00
C108   C     0.13043   0.05707   0.78631   0.00000  Uiso   1.00
C109   C     0.07205   0.12193   0.72738   0.00000  Uiso   1.00
C110   C     0.40471   0.01677   0.10427   0.00000  Uiso   1.00
C111   C     0.48047   0.98754   0.11068   0.00000  Uiso   1.00
C112   C     0.58217   0.02060   0.20009   0.00000  Uiso   1.00
C113   C     0.27845   0.97207   0.10953   0.00000  Uiso   1.00
C114   C     0.24808   0.90525   0.12038   0.00000  Uiso   1.00
C115   C     0.24352   0.90067   0.21426   0.00000  Uiso   1.00
H116   H     0.35408   0.14667   0.22337   0.00000  Uiso   1.00
H117   H     0.20055   0.22604   0.01140   0.00000  Uiso   1.00
H118   H     0.55054   0.15652   0.33573   0.00000  Uiso   1.00
H119   H     0.31819   0.07424   0.34542   0.00000  Uiso   1.00
H120   H     0.01937   0.28754   0.74109   0.00000  Uiso   1.00
H121   H     0.75735   0.14094   0.42498   0.00000  Uiso   1.00
H122   H     0.26739   0.96744   0.44544   0.00000  Uiso   1.00
H123   H     0.26933   0.94237   0.95128   0.00000  Uiso   1.00
H124   H     0.11115   0.01053   0.72437   0.00000  Uiso   1.00
H125   H     0.46114   0.94101   0.04871   0.00000  Uiso   1.00
H126   H     0.22879   0.85873   0.05840   0.00000  Uiso   1.00
H127   H     0.94682   0.11263   0.50813   0.00000  Uiso   1.00
H128   H     0.68480   0.96602   0.19203   0.00000  Uiso   1.00
H129   H     0.19483   0.79252   0.21248   0.00000  Uiso   1.00
O130   O     0.88059   0.24862   0.48025   0.00000  Uiso   1.00
O131   O     0.84879   0.05628   0.37751   0.00000  Uiso   1.00
O132   O     0.20597   0.82865   0.40435   0.00000  Uiso   1.00
N133   N     0.02399   0.23702   0.71740   0.00000  Uiso   1.00
N134   N     0.71395   0.09996   0.35678   0.00000  Uiso   1.00
N135   N     0.25591   0.93774   0.37594   0.00000  Uiso   1.00
N136   N     0.98495   0.14290   0.59204   0.00000  Uiso   1.00
N137   N     0.67490   0.00584   0.23143   0.00000  Uiso   1.00
N138   N     0.21686   0.84362   0.25058   0.00000  Uiso   1.00
C139   C     0.66534   0.59986   0.33897   0.00000  Uiso   1.00
C140   C     0.76051   0.61466   0.49187   0.00000  Uiso   1.00
C141   C     0.81878   0.67953   0.55060   0.00000  Uiso   1.00
C142   C     0.90296   0.68216   0.69241   0.00000  Uiso   1.00
C143   C     0.04691   0.71429   0.91764   0.00000  Uiso   1.00
C144   C     0.57036   0.57689   0.31567   0.00000  Uiso   1.00
C145   C     0.46874   0.61000   0.22623   0.00000  Uiso   1.00
C146   C     0.39285   0.58083   0.21970   0.00000  Uiso   1.00
C147   C     0.24155   0.55430   0.17130   0.00000  Uiso   1.00
C148   C     0.69661   0.53219   0.31040   0.00000  Uiso   1.00
C149   C     0.70112   0.52771   0.21652   0.00000  Uiso   1.00
C150   C     0.73150   0.46090   0.20553   0.00000  Uiso   1.00
C151   C     0.77623   0.36496   0.14896   0.00000  Uiso   1.00
C152   C     0.71125   0.48917   0.48638   0.00000  Uiso   1.00
C153   C     0.78545   0.55453   0.57193   0.00000  Uiso   1.00
C154   C     0.86957   0.55707   0.71369   0.00000  Uiso   1.00
C155   C     0.92795   0.62193   0.77262   0.00000  Uiso   1.00
C156   C     0.59529   0.51677   0.39573   0.00000  Uiso   1.00
C157   C     0.51953   0.48754   0.38932   0.00000  Uiso   1.00
C158   C     0.41783   0.52060   0.29991   0.00000  Uiso   1.00
C159   C     0.72155   0.47207   0.39047   0.00000  Uiso   1.00
C160   C     0.75192   0.40525   0.37962   0.00000  Uiso   1.00
C161   C     0.75648   0.40067   0.28574   0.00000  Uiso   1.00
H162   H     0.64592   0.64667   0.27663   0.00000  Uiso   1.00
H163   H     0.79945   0.72604   0.48860   0.00000  Uiso   1.00
H164   H     0.44946   0.65652   0.16427   0.00000  Uiso   1.00
H165   H     0.68181   0.57424   0.15458   0.00000  Uiso   1.00
H166   H     0.98063   0.78754   0.75891   0.00000  Uiso   1.00
H167   H     0.24265   0.64094   0.07502   0.00000  Uiso   1.00
H168   H     0.73261   0.46744   0.05456   0.00000  Uiso   1.00
H169   H     0.73067   0.44237   0.54872   0.00000  Uiso   1.00
H170   H     0.88885   0.51053   0.77563   0.00000  Uiso   1.00
H171   H     0.53886   0.44101   0.45129   0.00000  Uiso   1.00
H172   H     0.77121   0.35873   0.44160   0.00000  Uiso   1.00
H173   H     0.05318   0.61263   0.99187   0.00000  Uiso   1.00
H174   H     0.31520   0.46602   0.30797   0.00000  Uiso   1.00
H175   H     0.80517   0.29252   0.28752   0.00000  Uiso   1.00
O176   O     0.11941   0.74862   0.01975   0.00000  Uiso   1.00
O177   O     0.15121   0.55628   0.12249   0.00000  Uiso   1.00
O178   O     0.79403   0.32865   0.09565   0.00000  Uiso   1.00
N179   N     0.97601   0.73702   0.78260   0.00000  Uiso   1.00
N180   N     0.28605   0.59996   0.14322   0.00000  Uiso   1.00
N181   N     0.74409   0.43774   0.12406   0.00000  Uiso   1.00
N182   N     0.01505   0.64290   0.90796   0.00000  Uiso   1.00
N183   N     0.32510   0.50584   0.26857   0.00000  Uiso   1.00
N184   N     0.78314   0.34362   0.24942   0.00000  Uiso   1.00
