data_job_05065
_audit_creation_date              2018-12-19
_audit_creation_method            'Materials Studio'
_symmetry_space_group_name_H-M    'P1'
_symmetry_Int_Tables_number       1
_symmetry_cell_setting            triclinic
loop_
_symmetry_equiv_pos_as_xyz
  x,y,z
_cell_length_a                    12.3083
_cell_length_b                    12.3083
_cell_length_c                    32.1023
_cell_angle_alpha                 90.0000
_cell_angle_beta                  90.0000
_cell_angle_gamma                 120.0000
loop_
_atom_site_label
_atom_site_type_symbol
_atom_site_fract_x
_atom_site_fract_y
_atom_site_fract_z
_atom_site_U_iso_or_equiv
_atom_site_adp_type
_atom_site_occupancy
C1     C     0.00198   0.29603   0.10327   0.00000  Uiso   1.00
C2     C     0.99609   0.30366   0.15056   0.00000  Uiso   1.00
C3     C     0.89114   0.23232   0.17510   0.00000  Uiso   1.00
C4     C     0.90492   0.25333   0.21776   0.00000  Uiso   1.00
C5     C     0.87832   0.25166   0.28853   0.00000  Uiso   1.00
C6     C     0.04697   0.42831   0.08710   0.00000  Uiso   1.00
C7     C     0.98481   0.46178   0.05828   0.00000  Uiso   1.00
C8     C     0.04143   0.58772   0.04752   0.00000  Uiso   1.00
C9     C     0.09386   0.77956   0.01975   0.00000  Uiso   1.00
C10    C     0.10754   0.26863   0.09417   0.00000  Uiso   1.00
C11    C     0.09631   0.16786   0.07128   0.00000  Uiso   1.00
C12    C     0.20394   0.15938   0.06646   0.00000  Uiso   1.00
C13    C     0.35041   0.10329   0.04967   0.00000  Uiso   1.00
C14    C     0.21308   0.46020   0.13540   0.00000  Uiso   1.00
C15    C     0.11075   0.39283   0.16801   0.00000  Uiso   1.00
C16    C     0.12470   0.41395   0.21065   0.00000  Uiso   1.00
C17    C     0.01979   0.34266   0.23525   0.00000  Uiso   1.00
C18    C     0.16162   0.51748   0.10455   0.00000  Uiso   1.00
C19    C     0.21836   0.64341   0.09383   0.00000  Uiso   1.00
C20    C     0.15630   0.67706   0.06500   0.00000  Uiso   1.00
C21    C     0.22220   0.35780   0.11162   0.00000  Uiso   1.00
C22    C     0.32987   0.34949   0.10683   0.00000  Uiso   1.00
C23    C     0.31881   0.24872   0.08395   0.00000  Uiso   1.00
H24    H     0.91271   0.22662   0.08968   0.00000  Uiso   1.00
H25    H     0.80242   0.16333   0.16158   0.00000  Uiso   1.00
H26    H     0.89608   0.39275   0.04478   0.00000  Uiso   1.00
H27    H     0.00757   0.09888   0.05778   0.00000  Uiso   1.00
H28    H     0.73070   0.13253   0.24899   0.00000  Uiso   1.00
H29    H     0.92820   0.61626   0.00269   0.00000  Uiso   1.00
H30    H     0.16330   0.99657   0.03011   0.00000  Uiso   1.00
H31    H     0.30235   0.52962   0.14899   0.00000  Uiso   1.00
H32    H     0.21344   0.48296   0.22414   0.00000  Uiso   1.00
H33    H     0.30709   0.71238   0.10734   0.00000  Uiso   1.00
H34    H     0.41858   0.41851   0.12034   0.00000  Uiso   1.00
H35    H     0.06429   0.39196   0.29977   0.00000  Uiso   1.00
H36    H     0.26180   0.87569   0.05347   0.00000  Uiso   1.00
H37    H     0.49689   0.25599   0.08089   0.00000  Uiso   1.00
O38    O     0.83197   0.22611   0.32275   0.00000  Uiso   1.00
O39    O     0.09110   0.86074   0.99961   0.00000  Uiso   1.00
O40    O     0.39953   0.04772   0.03559   0.00000  Uiso   1.00
N41    N     0.82142   0.19997   0.25063   0.00000  Uiso   1.00
N42    N     0.00606   0.65223   0.02036   0.00000  Uiso   1.00
N43    N     0.22586   0.07289   0.04598   0.00000  Uiso   1.00
N44    N     0.00092   0.33956   0.27795   0.00000  Uiso   1.00
N45    N     0.18557   0.79183   0.04768   0.00000  Uiso   1.00
N46    N     0.40537   0.21248   0.07331   0.00000  Uiso   1.00
C47    C     0.70397   0.70595   0.76994   0.00000  Uiso   1.00
C48    C     0.69634   0.69243   0.81722   0.00000  Uiso   1.00
C49    C     0.76768   0.65882   0.84176   0.00000  Uiso   1.00
C50    C     0.74667   0.65159   0.88443   0.00000  Uiso   1.00
C51    C     0.74834   0.62667   0.95520   0.00000  Uiso   1.00
C52    C     0.57169   0.61866   0.75377   0.00000  Uiso   1.00
C53    C     0.53822   0.52303   0.72495   0.00000  Uiso   1.00
C54    C     0.41228   0.45371   0.71419   0.00000  Uiso   1.00
C55    C     0.22044   0.31430   0.68641   0.00000  Uiso   1.00
C56    C     0.73137   0.83890   0.76083   0.00000  Uiso   1.00
C57    C     0.83214   0.92846   0.73795   0.00000  Uiso   1.00
C58    C     0.84062   0.04456   0.73313   0.00000  Uiso   1.00
C59    C     0.89671   0.24712   0.71633   0.00000  Uiso   1.00
C60    C     0.53980   0.75288   0.80207   0.00000  Uiso   1.00
C61    C     0.60717   0.71792   0.83467   0.00000  Uiso   1.00
C62    C     0.58605   0.71075   0.87731   0.00000  Uiso   1.00
C63    C     0.65734   0.67713   0.90191   0.00000  Uiso   1.00
C64    C     0.48252   0.64414   0.77122   0.00000  Uiso   1.00
C65    C     0.35659   0.57495   0.76050   0.00000  Uiso   1.00
C66    C     0.32294   0.47924   0.73167   0.00000  Uiso   1.00
C67    C     0.64220   0.86440   0.77829   0.00000  Uiso   1.00
C68    C     0.65051   0.98038   0.77350   0.00000  Uiso   1.00
C69    C     0.75128   0.07009   0.75061   0.00000  Uiso   1.00
H70    H     0.77338   0.68610   0.75635   0.00000  Uiso   1.00
H71    H     0.83667   0.63909   0.82825   0.00000  Uiso   1.00
H72    H     0.60725   0.50333   0.71144   0.00000  Uiso   1.00
H73    H     0.90112   0.90869   0.72445   0.00000  Uiso   1.00
H74    H     0.86747   0.59817   0.91566   0.00000  Uiso   1.00
H75    H     0.38374   0.31194   0.66936   0.00000  Uiso   1.00
H76    H     0.00343   0.16673   0.69678   0.00000  Uiso   1.00
H77    H     0.47038   0.77272   0.81565   0.00000  Uiso   1.00
H78    H     0.51704   0.73048   0.89081   0.00000  Uiso   1.00
H79    H     0.28762   0.59471   0.77401   0.00000  Uiso   1.00
H80    H     0.58149   0.00007   0.78701   0.00000  Uiso   1.00
H81    H     0.60804   0.67234   0.96643   0.00000  Uiso   1.00
H82    H     0.12431   0.38611   0.72014   0.00000  Uiso   1.00
H83    H     0.74401   0.24090   0.74756   0.00000  Uiso   1.00
O84    O     0.77389   0.60586   0.98941   0.00000  Uiso   1.00
O85    O     0.13926   0.23036   0.66628   0.00000  Uiso   1.00
O86    O     0.95228   0.35181   0.70225   0.00000  Uiso   1.00
N87    N     0.80003   0.62145   0.91729   0.00000  Uiso   1.00
N88    N     0.34777   0.35383   0.68703   0.00000  Uiso   1.00
N89    N     0.92711   0.15297   0.71265   0.00000  Uiso   1.00
N90    N     0.66044   0.66136   0.94462   0.00000  Uiso   1.00
N91    N     0.20817   0.39374   0.71435   0.00000  Uiso   1.00
N92    N     0.78752   0.19288   0.73997   0.00000  Uiso   1.00
C93    C     0.29405   0.99802   0.43660   0.00000  Uiso   1.00
C94    C     0.30757   0.00391   0.48389   0.00000  Uiso   1.00
C95    C     0.34118   0.10886   0.50843   0.00000  Uiso   1.00
C96    C     0.34841   0.09508   0.55109   0.00000  Uiso   1.00
C97    C     0.37333   0.12168   0.62187   0.00000  Uiso   1.00
C98    C     0.38134   0.95303   0.42043   0.00000  Uiso   1.00
C99    C     0.47697   0.01519   0.39161   0.00000  Uiso   1.00
C100   C     0.54629   0.95857   0.38085   0.00000  Uiso   1.00
C101   C     0.68570   0.90614   0.35308   0.00000  Uiso   1.00
C102   C     0.16110   0.89246   0.42750   0.00000  Uiso   1.00
C103   C     0.07154   0.90369   0.40461   0.00000  Uiso   1.00
C104   C     0.95544   0.79606   0.39980   0.00000  Uiso   1.00
C105   C     0.75288   0.64959   0.38300   0.00000  Uiso   1.00
C106   C     0.24712   0.78692   0.46873   0.00000  Uiso   1.00
C107   C     0.28208   0.88925   0.50134   0.00000  Uiso   1.00
C108   C     0.28925   0.87530   0.54398   0.00000  Uiso   1.00
C109   C     0.32287   0.98021   0.56858   0.00000  Uiso   1.00
C110   C     0.35586   0.83838   0.43788   0.00000  Uiso   1.00
C111   C     0.42505   0.78164   0.42716   0.00000  Uiso   1.00
C112   C     0.52076   0.84370   0.39834   0.00000  Uiso   1.00
C113   C     0.13560   0.77780   0.44495   0.00000  Uiso   1.00
C114   C     0.01962   0.67013   0.44017   0.00000  Uiso   1.00
C115   C     0.92991   0.68119   0.41728   0.00000  Uiso   1.00
H116   H     0.31390   0.08729   0.42301   0.00000  Uiso   1.00
H117   H     0.36091   0.19758   0.49491   0.00000  Uiso   1.00
H118   H     0.49667   0.10392   0.37811   0.00000  Uiso   1.00
H119   H     0.09131   0.99243   0.39111   0.00000  Uiso   1.00
H120   H     0.40183   0.26930   0.58232   0.00000  Uiso   1.00
H121   H     0.68806   0.07180   0.33603   0.00000  Uiso   1.00
H122   H     0.83327   0.83670   0.36344   0.00000  Uiso   1.00
H123   H     0.22728   0.69765   0.48232   0.00000  Uiso   1.00
H124   H     0.26952   0.78656   0.55748   0.00000  Uiso   1.00
H125   H     0.40529   0.69291   0.44067   0.00000  Uiso   1.00
H126   H     0.99993   0.58142   0.45368   0.00000  Uiso   1.00
H127   H     0.32766   0.93571   0.63310   0.00000  Uiso   1.00
H128   H     0.61389   0.73820   0.38680   0.00000  Uiso   1.00
H129   H     0.75910   0.50311   0.41422   0.00000  Uiso   1.00
O130   O     0.39414   0.16803   0.65608   0.00000  Uiso   1.00
O131   O     0.76964   0.90890   0.33294   0.00000  Uiso   1.00
O132   O     0.64819   0.60047   0.36892   0.00000  Uiso   1.00
N133   N     0.37855   0.17858   0.58396   0.00000  Uiso   1.00
N134   N     0.64617   0.99394   0.35369   0.00000  Uiso   1.00
N135   N     0.84703   0.77414   0.37932   0.00000  Uiso   1.00
N136   N     0.33864   0.99908   0.61128   0.00000  Uiso   1.00
N137   N     0.60626   0.81443   0.38102   0.00000  Uiso   1.00
N138   N     0.80712   0.59463   0.40664   0.00000  Uiso   1.00
C139   C     0.29603   0.00198   0.89673   0.00000  Uiso   1.00
C140   C     0.30366   0.99609   0.84944   0.00000  Uiso   1.00
C141   C     0.23232   0.89114   0.82490   0.00000  Uiso   1.00
C142   C     0.25333   0.90492   0.78224   0.00000  Uiso   1.00
C143   C     0.25166   0.87832   0.71147   0.00000  Uiso   1.00
C144   C     0.42831   0.04697   0.91290   0.00000  Uiso   1.00
C145   C     0.46178   0.98481   0.94172   0.00000  Uiso   1.00
C146   C     0.58772   0.04143   0.95248   0.00000  Uiso   1.00
C147   C     0.77956   0.09386   0.98025   0.00000  Uiso   1.00
C148   C     0.26863   0.10754   0.90583   0.00000  Uiso   1.00
C149   C     0.16786   0.09631   0.92872   0.00000  Uiso   1.00
C150   C     0.15938   0.20394   0.93354   0.00000  Uiso   1.00
C151   C     0.10329   0.35041   0.95033   0.00000  Uiso   1.00
C152   C     0.46020   0.21308   0.86460   0.00000  Uiso   1.00
C153   C     0.39283   0.11075   0.83199   0.00000  Uiso   1.00
C154   C     0.41395   0.12470   0.78935   0.00000  Uiso   1.00
C155   C     0.34266   0.01979   0.76475   0.00000  Uiso   1.00
C156   C     0.51748   0.16162   0.89545   0.00000  Uiso   1.00
C157   C     0.64341   0.21836   0.90617   0.00000  Uiso   1.00
C158   C     0.67706   0.15630   0.93500   0.00000  Uiso   1.00
C159   C     0.35780   0.22220   0.88838   0.00000  Uiso   1.00
C160   C     0.34949   0.32987   0.89317   0.00000  Uiso   1.00
C161   C     0.24872   0.31881   0.91605   0.00000  Uiso   1.00
H162   H     0.22662   0.91271   0.91032   0.00000  Uiso   1.00
H163   H     0.16333   0.80242   0.83842   0.00000  Uiso   1.00
H164   H     0.39275   0.89608   0.95522   0.00000  Uiso   1.00
H165   H     0.09888   0.00757   0.94222   0.00000  Uiso   1.00
H166   H     0.13253   0.73070   0.75101   0.00000  Uiso   1.00
H167   H     0.61626   0.92820   0.99731   0.00000  Uiso   1.00
H168   H     0.99657   0.16330   0.96989   0.00000  Uiso   1.00
H169   H     0.52962   0.30235   0.85101   0.00000  Uiso   1.00
H170   H     0.48296   0.21344   0.77586   0.00000  Uiso   1.00
H171   H     0.71238   0.30709   0.89266   0.00000  Uiso   1.00
H172   H     0.41851   0.41858   0.87966   0.00000  Uiso   1.00
H173   H     0.39196   0.06429   0.70023   0.00000  Uiso   1.00
H174   H     0.87569   0.26180   0.94653   0.00000  Uiso   1.00
H175   H     0.25599   0.49689   0.91911   0.00000  Uiso   1.00
O176   O     0.22611   0.83197   0.67725   0.00000  Uiso   1.00
O177   O     0.86074   0.09110   0.00039   0.00000  Uiso   1.00
O178   O     0.04772   0.39953   0.96441   0.00000  Uiso   1.00
N179   N     0.19997   0.82142   0.74937   0.00000  Uiso   1.00
N180   N     0.65223   0.00606   0.97964   0.00000  Uiso   1.00
N181   N     0.07289   0.22586   0.95402   0.00000  Uiso   1.00
N182   N     0.33956   0.00092   0.72205   0.00000  Uiso   1.00
N183   N     0.79183   0.18557   0.95232   0.00000  Uiso   1.00
N184   N     0.21248   0.40537   0.92669   0.00000  Uiso   1.00
C185   C     0.70595   0.70397   0.23006   0.00000  Uiso   1.00
C186   C     0.69243   0.69634   0.18278   0.00000  Uiso   1.00
C187   C     0.65882   0.76768   0.15824   0.00000  Uiso   1.00
C188   C     0.65159   0.74667   0.11557   0.00000  Uiso   1.00
C189   C     0.62667   0.74834   0.04480   0.00000  Uiso   1.00
C190   C     0.61866   0.57169   0.24623   0.00000  Uiso   1.00
C191   C     0.52303   0.53822   0.27505   0.00000  Uiso   1.00
C192   C     0.45371   0.41228   0.28581   0.00000  Uiso   1.00
C193   C     0.31430   0.22044   0.31359   0.00000  Uiso   1.00
C194   C     0.83890   0.73137   0.23917   0.00000  Uiso   1.00
C195   C     0.92846   0.83214   0.26205   0.00000  Uiso   1.00
C196   C     0.04456   0.84062   0.26687   0.00000  Uiso   1.00
C197   C     0.24712   0.89671   0.28367   0.00000  Uiso   1.00
C198   C     0.75288   0.53980   0.19793   0.00000  Uiso   1.00
C199   C     0.71792   0.60717   0.16533   0.00000  Uiso   1.00
C200   C     0.71075   0.58605   0.12269   0.00000  Uiso   1.00
C201   C     0.67713   0.65734   0.09809   0.00000  Uiso   1.00
C202   C     0.64414   0.48252   0.22878   0.00000  Uiso   1.00
C203   C     0.57495   0.35659   0.23950   0.00000  Uiso   1.00
C204   C     0.47924   0.32294   0.26833   0.00000  Uiso   1.00
C205   C     0.86440   0.64220   0.22171   0.00000  Uiso   1.00
C206   C     0.98038   0.65051   0.22650   0.00000  Uiso   1.00
C207   C     0.07009   0.75128   0.24939   0.00000  Uiso   1.00
H208   H     0.68610   0.77338   0.24365   0.00000  Uiso   1.00
H209   H     0.63909   0.83667   0.17175   0.00000  Uiso   1.00
H210   H     0.50333   0.60725   0.28856   0.00000  Uiso   1.00
H211   H     0.90869   0.90112   0.27555   0.00000  Uiso   1.00
H212   H     0.59817   0.86747   0.08434   0.00000  Uiso   1.00
H213   H     0.31194   0.38374   0.33064   0.00000  Uiso   1.00
H214   H     0.16673   0.00343   0.30322   0.00000  Uiso   1.00
H215   H     0.77272   0.47038   0.18435   0.00000  Uiso   1.00
H216   H     0.73048   0.51704   0.10919   0.00000  Uiso   1.00
H217   H     0.59471   0.28762   0.22599   0.00000  Uiso   1.00
H218   H     0.00007   0.58149   0.21299   0.00000  Uiso   1.00
H219   H     0.67234   0.60804   0.03357   0.00000  Uiso   1.00
H220   H     0.38611   0.12431   0.27986   0.00000  Uiso   1.00
H221   H     0.24090   0.74401   0.25244   0.00000  Uiso   1.00
O222   O     0.60586   0.77389   0.01059   0.00000  Uiso   1.00
O223   O     0.23036   0.13926   0.33372   0.00000  Uiso   1.00
O224   O     0.35181   0.95228   0.29775   0.00000  Uiso   1.00
N225   N     0.62145   0.80003   0.08271   0.00000  Uiso   1.00
N226   N     0.35383   0.34777   0.31297   0.00000  Uiso   1.00
N227   N     0.15297   0.92711   0.28735   0.00000  Uiso   1.00
N228   N     0.66136   0.66044   0.05538   0.00000  Uiso   1.00
N229   N     0.39374   0.20817   0.28565   0.00000  Uiso   1.00
N230   N     0.19288   0.78752   0.26003   0.00000  Uiso   1.00
C231   C     0.99802   0.29405   0.56340   0.00000  Uiso   1.00
C232   C     0.00391   0.30757   0.51611   0.00000  Uiso   1.00
C233   C     0.10886   0.34118   0.49157   0.00000  Uiso   1.00
C234   C     0.09508   0.34841   0.44891   0.00000  Uiso   1.00
C235   C     0.12168   0.37333   0.37813   0.00000  Uiso   1.00
C236   C     0.95303   0.38134   0.57957   0.00000  Uiso   1.00
C237   C     0.01519   0.47697   0.60839   0.00000  Uiso   1.00
C238   C     0.95857   0.54629   0.61915   0.00000  Uiso   1.00
C239   C     0.90614   0.68570   0.64692   0.00000  Uiso   1.00
C240   C     0.89246   0.16110   0.57250   0.00000  Uiso   1.00
C241   C     0.90369   0.07154   0.59539   0.00000  Uiso   1.00
C242   C     0.79606   0.95544   0.60020   0.00000  Uiso   1.00
C243   C     0.64959   0.75288   0.61700   0.00000  Uiso   1.00
C244   C     0.78692   0.24712   0.53127   0.00000  Uiso   1.00
C245   C     0.88925   0.28208   0.49866   0.00000  Uiso   1.00
C246   C     0.87530   0.28925   0.45602   0.00000  Uiso   1.00
C247   C     0.98021   0.32287   0.43142   0.00000  Uiso   1.00
C248   C     0.83838   0.35586   0.56212   0.00000  Uiso   1.00
C249   C     0.78164   0.42505   0.57284   0.00000  Uiso   1.00
C250   C     0.84370   0.52076   0.60166   0.00000  Uiso   1.00
C251   C     0.77780   0.13560   0.55505   0.00000  Uiso   1.00
C252   C     0.67013   0.01962   0.55983   0.00000  Uiso   1.00
C253   C     0.68119   0.92991   0.58272   0.00000  Uiso   1.00
H254   H     0.08729   0.31390   0.57699   0.00000  Uiso   1.00
H255   H     0.19758   0.36091   0.50509   0.00000  Uiso   1.00
H256   H     0.10392   0.49667   0.62189   0.00000  Uiso   1.00
H257   H     0.99243   0.09131   0.60889   0.00000  Uiso   1.00
H258   H     0.26930   0.40183   0.41768   0.00000  Uiso   1.00
H259   H     0.07180   0.68806   0.66397   0.00000  Uiso   1.00
H260   H     0.83670   0.83327   0.63656   0.00000  Uiso   1.00
H261   H     0.69765   0.22728   0.51768   0.00000  Uiso   1.00
H262   H     0.78656   0.26952   0.44252   0.00000  Uiso   1.00
H263   H     0.69291   0.40529   0.55933   0.00000  Uiso   1.00
H264   H     0.58142   0.99993   0.54632   0.00000  Uiso   1.00
H265   H     0.93571   0.32766   0.36690   0.00000  Uiso   1.00
H266   H     0.73820   0.61389   0.61320   0.00000  Uiso   1.00
H267   H     0.50311   0.75910   0.58578   0.00000  Uiso   1.00
O268   O     0.16803   0.39414   0.34392   0.00000  Uiso   1.00
O269   O     0.90890   0.76964   0.66706   0.00000  Uiso   1.00
O270   O     0.60047   0.64819   0.63108   0.00000  Uiso   1.00
N271   N     0.17858   0.37855   0.41604   0.00000  Uiso   1.00
N272   N     0.99394   0.64617   0.64631   0.00000  Uiso   1.00
N273   N     0.77414   0.84703   0.62068   0.00000  Uiso   1.00
N274   N     0.99908   0.33864   0.38872   0.00000  Uiso   1.00
N275   N     0.81443   0.60626   0.61898   0.00000  Uiso   1.00
N276   N     0.59463   0.80712   0.59336   0.00000  Uiso   1.00
