data_job_06966
_audit_creation_date              2018-12-19
_audit_creation_method            'Materials Studio'
_symmetry_space_group_name_H-M    'P1'
_symmetry_Int_Tables_number       1
_symmetry_cell_setting            triclinic
loop_
_symmetry_equiv_pos_as_xyz
  x,y,z
_cell_length_a                    17.5550
_cell_length_b                    24.9897
_cell_length_c                    20.0023
_cell_angle_alpha                 100.3220
_cell_angle_beta                  92.4435
_cell_angle_gamma                 99.4275
loop_
_atom_site_label
_atom_site_type_symbol
_atom_site_fract_x
_atom_site_fract_y
_atom_site_fract_z
_atom_site_U_iso_or_equiv
_atom_site_adp_type
_atom_site_occupancy
C1     C     0.92902   0.82185   0.40629   0.00000  Uiso   1.00
C2     C     0.91339   0.80249   0.32946   0.00000  Uiso   1.00
C3     C     0.96392   0.77983   0.28573   0.00000  Uiso   1.00
C4     C     0.93883   0.76474   0.21713   0.00000  Uiso   1.00
C5     C     0.92568   0.73359   0.10146   0.00000  Uiso   1.00
C6     C     0.91856   0.88213   0.42088   0.00000  Uiso   1.00
C7     C     0.97343   0.92643   0.45403   0.00000  Uiso   1.00
C8     C     0.95269   0.97837   0.46239   0.00000  Uiso   1.00
C9     C     0.94755   0.07085   0.48871   0.00000  Uiso   1.00
C10    C     0.86300   0.79018   0.43835   0.00000  Uiso   1.00
C11    C     0.87116   0.75719   0.48619   0.00000  Uiso   1.00
C12    C     0.80364   0.73173   0.50927   0.00000  Uiso   1.00
C13    C     0.71224   0.68145   0.56270   0.00000  Uiso   1.00
C14    C     0.79460   0.83533   0.36224   0.00000  Uiso   1.00
C15    C     0.84038   0.80982   0.30553   0.00000  Uiso   1.00
C16    C     0.81520   0.79475   0.23698   0.00000  Uiso   1.00
C17    C     0.86569   0.77207   0.19315   0.00000  Uiso   1.00
C18    C     0.84555   0.88945   0.39695   0.00000  Uiso   1.00
C19    C     0.82472   0.94134   0.40528   0.00000  Uiso   1.00
C20    C     0.87955   0.98571   0.43842   0.00000  Uiso   1.00
C21    C     0.78999   0.79750   0.41442   0.00000  Uiso   1.00
C22    C     0.72245   0.77210   0.43744   0.00000  Uiso   1.00
C23    C     0.73050   0.73906   0.48530   0.00000  Uiso   1.00
H24    H     0.98586   0.81616   0.42493   0.00000  Uiso   1.00
H25    H     0.02042   0.77418   0.30426   0.00000  Uiso   1.00
H26    H     0.02993   0.92075   0.47254   0.00000  Uiso   1.00
H27    H     0.92767   0.75153   0.50469   0.00000  Uiso   1.00
H28    H     0.02654   0.73089   0.15993   0.00000  Uiso   1.00
H29    H     0.04658   0.03993   0.51478   0.00000  Uiso   1.00
H30    H     0.83096   0.68310   0.58258   0.00000  Uiso   1.00
H31    H     0.73776   0.84104   0.34361   0.00000  Uiso   1.00
H32    H     0.75870   0.80042   0.21848   0.00000  Uiso   1.00
H33    H     0.76821   0.94699   0.38676   0.00000  Uiso   1.00
H34    H     0.66596   0.77777   0.41891   0.00000  Uiso   1.00
H35    H     0.81413   0.75219   0.09030   0.00000  Uiso   1.00
H36    H     0.83417   0.06124   0.44515   0.00000  Uiso   1.00
H37    H     0.61854   0.70440   0.51295   0.00000  Uiso   1.00
O38    O     0.93860   0.71439   0.04427   0.00000  Uiso   1.00
O39    O     0.96489   0.11984   0.50983   0.00000  Uiso   1.00
O40    O     0.68199   0.65169   0.59877   0.00000  Uiso   1.00
N41    N     0.97367   0.74146   0.16072   0.00000  Uiso   1.00
N42    N     0.99241   0.03041   0.49247   0.00000  Uiso   1.00
N43    N     0.79082   0.69681   0.55587   0.00000  Uiso   1.00
N44    N     0.85937   0.75292   0.12325   0.00000  Uiso   1.00
N45    N     0.87811   0.04187   0.45500   0.00000  Uiso   1.00
N46    N     0.67652   0.70827   0.51840   0.00000  Uiso   1.00
C47    C     0.17431   0.76338   0.01533   0.00000  Uiso   1.00
C48    C     0.10969   0.79715   0.01290   0.00000  Uiso   1.00
C49    C     0.10524   0.84608   0.05686   0.00000  Uiso   1.00
C50    C     0.04147   0.87066   0.04620   0.00000  Uiso   1.00
C51    C     0.94981   0.92667   0.05047   0.00000  Uiso   1.00
C52    C     0.13497   0.70553   0.02145   0.00000  Uiso   1.00
C53    C     0.15178   0.67742   0.07258   0.00000  Uiso   1.00
C54    C     0.10930   0.62486   0.06910   0.00000  Uiso   1.00
C55    C     0.05693   0.53861   0.08661   0.00000  Uiso   1.00
C56    C     0.20610   0.75774   0.94512   0.00000  Uiso   1.00
C57    C     0.28272   0.77352   0.93207   0.00000  Uiso   1.00
C58    C     0.30013   0.76491   0.86433   0.00000  Uiso   1.00
C59    C     0.35819   0.75973   0.76333   0.00000  Uiso   1.00
C60    C     0.06898   0.72003   0.91824   0.00000  Uiso   1.00
C61    C     0.05248   0.77360   0.96017   0.00000  Uiso   1.00
C62    C     0.98871   0.79812   0.94944   0.00000  Uiso   1.00
C63    C     0.98416   0.84707   0.99337   0.00000  Uiso   1.00
C64    C     0.07776   0.68198   0.96872   0.00000  Uiso   1.00
C65    C     0.03525   0.62945   0.96516   0.00000  Uiso   1.00
C66    C     0.05199   0.60127   0.01627   0.00000  Uiso   1.00
C67    C     0.14889   0.73419   0.89238   0.00000  Uiso   1.00
C68    C     0.16618   0.72556   0.82465   0.00000  Uiso   1.00
C69    C     0.24282   0.74132   0.81150   0.00000  Uiso   1.00
H70    H     0.21885   0.78171   0.05639   0.00000  Uiso   1.00
H71    H     0.14952   0.86429   0.09766   0.00000  Uiso   1.00
H72    H     0.19606   0.69565   0.11338   0.00000  Uiso   1.00
H73    H     0.32698   0.79174   0.97289   0.00000  Uiso   1.00
H74    H     0.04741   0.94545   0.12018   0.00000  Uiso   1.00
H75    H     0.14556   0.58986   0.15330   0.00000  Uiso   1.00
H76    H     0.42163   0.79248   0.85707   0.00000  Uiso   1.00
H77    H     0.02444   0.70169   0.87719   0.00000  Uiso   1.00
H78    H     0.94444   0.77988   0.90862   0.00000  Uiso   1.00
H79    H     0.99098   0.61124   0.92434   0.00000  Uiso   1.00
H80    H     0.12190   0.70733   0.78386   0.00000  Uiso   1.00
H81    H     0.88096   0.87694   0.96675   0.00000  Uiso   1.00
H82    H     0.97912   0.52135   0.99987   0.00000  Uiso   1.00
H83    H     0.25517   0.72397   0.70364   0.00000  Uiso   1.00
O84    O     0.91505   0.96407   0.06740   0.00000  Uiso   1.00
O85    O     0.04384   0.49754   0.11084   0.00000  Uiso   1.00
O86    O     0.40602   0.76338   0.72219   0.00000  Uiso   1.00
N87    N     0.01922   0.91860   0.07975   0.00000  Uiso   1.00
N88    N     0.11098   0.58615   0.11072   0.00000  Uiso   1.00
N89    N     0.36908   0.77557   0.83377   0.00000  Uiso   1.00
N90    N     0.92966   0.88174   0.99719   0.00000  Uiso   1.00
N91    N     0.02142   0.54928   0.02816   0.00000  Uiso   1.00
N92    N     0.27951   0.73870   0.75121   0.00000  Uiso   1.00
C93    C     0.75659   0.26108   0.93389   0.00000  Uiso   1.00
C94    C     0.75128   0.22783   0.99095   0.00000  Uiso   1.00
C95    C     0.73901   0.24774   0.05825   0.00000  Uiso   1.00
C96    C     0.73601   0.21078   0.10267   0.00000  Uiso   1.00
C97    C     0.72643   0.16750   0.19465   0.00000  Uiso   1.00
C98    C     0.83456   0.25631   0.90469   0.00000  Uiso   1.00
C99    C     0.89232   0.30016   0.89946   0.00000  Uiso   1.00
C100   C     0.95942   0.28717   0.87126   0.00000  Uiso   1.00
C101   C     0.07912   0.28811   0.82927   0.00000  Uiso   1.00
C102   C     0.69525   0.22986   0.87808   0.00000  Uiso   1.00
C103   C     0.63587   0.25147   0.85044   0.00000  Uiso   1.00
C104   C     0.58569   0.21621   0.79982   0.00000  Uiso   1.00
C105   C     0.48908   0.17608   0.71650   0.00000  Uiso   1.00
C106   C     0.77307   0.16003   0.89310   0.00000  Uiso   1.00
C107   C     0.76023   0.17294   0.96879   0.00000  Uiso   1.00
C108   C     0.75724   0.13594   0.01312   0.00000  Uiso   1.00
C109   C     0.74497   0.15579   0.08048   0.00000  Uiso   1.00
C110   C     0.84351   0.20142   0.88254   0.00000  Uiso   1.00
C111   C     0.91055   0.18836   0.85433   0.00000  Uiso   1.00
C112   C     0.96839   0.23218   0.84906   0.00000  Uiso   1.00
C113   C     0.70419   0.17497   0.85592   0.00000  Uiso   1.00
C114   C     0.65410   0.13967   0.80532   0.00000  Uiso   1.00
C115   C     0.59466   0.16123   0.77762   0.00000  Uiso   1.00
H116   H     0.74963   0.30382   0.95114   0.00000  Uiso   1.00
H117   H     0.73210   0.29022   0.07538   0.00000  Uiso   1.00
H118   H     0.88537   0.34263   0.91661   0.00000  Uiso   1.00
H119   H     0.62897   0.29395   0.86760   0.00000  Uiso   1.00
H120   H     0.71663   0.25095   0.20336   0.00000  Uiso   1.00
H121   H     0.03981   0.36147   0.86855   0.00000  Uiso   1.00
H122   H     0.49913   0.25881   0.76522   0.00000  Uiso   1.00
H123   H     0.78004   0.11729   0.87585   0.00000  Uiso   1.00
H124   H     0.76417   0.09346   0.99596   0.00000  Uiso   1.00
H125   H     0.91745   0.14588   0.83718   0.00000  Uiso   1.00
H126   H     0.66104   0.09720   0.78818   0.00000  Uiso   1.00
H127   H     0.74266   0.09126   0.13890   0.00000  Uiso   1.00
H128   H     0.06585   0.20177   0.80409   0.00000  Uiso   1.00
H129   H     0.52516   0.09912   0.70076   0.00000  Uiso   1.00
O130   O     0.71868   0.15880   0.25151   0.00000  Uiso   1.00
O131   O     0.14268   0.30379   0.81224   0.00000  Uiso   1.00
O132   O     0.43331   0.16911   0.67667   0.00000  Uiso   1.00
N133   N     0.72492   0.21664   0.17171   0.00000  Uiso   1.00
N134   N     0.02708   0.31996   0.85869   0.00000  Uiso   1.00
N135   N     0.52160   0.22399   0.76207   0.00000  Uiso   1.00
N136   N     0.73893   0.13071   0.13702   0.00000  Uiso   1.00
N137   N     0.04109   0.23403   0.82400   0.00000  Uiso   1.00
N138   N     0.53561   0.13806   0.72738   0.00000  Uiso   1.00
C139   C     0.39851   0.85750   0.41205   0.00000  Uiso   1.00
C140   C     0.46591   0.85593   0.46193   0.00000  Uiso   1.00
C141   C     0.54258   0.87950   0.45850   0.00000  Uiso   1.00
C142   C     0.59557   0.87352   0.50901   0.00000  Uiso   1.00
C143   C     0.70370   0.87545   0.57857   0.00000  Uiso   1.00
C144   C     0.33916   0.88312   0.45481   0.00000  Uiso   1.00
C145   C     0.30927   0.92955   0.44539   0.00000  Uiso   1.00
C146   C     0.25555   0.94646   0.48990   0.00000  Uiso   1.00
C147   C     0.16688   0.99058   0.54838   0.00000  Uiso   1.00
C148   C     0.36151   0.79746   0.38506   0.00000  Uiso   1.00
C149   C     0.35038   0.77185   0.31698   0.00000  Uiso   1.00
C150   C     0.31546   0.71664   0.30276   0.00000  Uiso   1.00
C151   C     0.26148   0.62775   0.25292   0.00000  Uiso   1.00
C152   C     0.35626   0.80498   0.50785   0.00000  Uiso   1.00
C153   C     0.44296   0.82741   0.51397   0.00000  Uiso   1.00
C154   C     0.49584   0.82139   0.56449   0.00000  Uiso   1.00
C155   C     0.57258   0.84494   0.56114   0.00000  Uiso   1.00
C156   C     0.31622   0.85460   0.50685   0.00000  Uiso   1.00
C157   C     0.26253   0.87144   0.55138   0.00000  Uiso   1.00
C158   C     0.23257   0.91788   0.54203   0.00000  Uiso   1.00
C159   C     0.33856   0.76893   0.43709   0.00000  Uiso   1.00
C160   C     0.30365   0.71375   0.42297   0.00000  Uiso   1.00
C161   C     0.29247   0.68806   0.35488   0.00000  Uiso   1.00
H162   H     0.41637   0.87971   0.37154   0.00000  Uiso   1.00
H163   H     0.56031   0.90157   0.41823   0.00000  Uiso   1.00
H164   H     0.32703   0.95161   0.40511   0.00000  Uiso   1.00
H165   H     0.36814   0.79394   0.27672   0.00000  Uiso   1.00
H166   H     0.70978   0.91325   0.49296   0.00000  Uiso   1.00
H167   H     0.21787   0.01874   0.46529   0.00000  Uiso   1.00
H168   H     0.30456   0.68626   0.19455   0.00000  Uiso   1.00
H169   H     0.33840   0.78278   0.54836   0.00000  Uiso   1.00
H170   H     0.47807   0.79932   0.60476   0.00000  Uiso   1.00
H171   H     0.24478   0.84936   0.59164   0.00000  Uiso   1.00
H172   H     0.28590   0.69169   0.46325   0.00000  Uiso   1.00
H173   H     0.64302   0.83026   0.64435   0.00000  Uiso   1.00
H174   H     0.15111   0.93576   0.61668   0.00000  Uiso   1.00
H175   H     0.23780   0.60327   0.34594   0.00000  Uiso   1.00
O176   O     0.76968   0.88440   0.60257   0.00000  Uiso   1.00
O177   O     0.12431   0.02280   0.56626   0.00000  Uiso   1.00
O178   O     0.23805   0.58660   0.21106   0.00000  Uiso   1.00
N179   N     0.67490   0.89144   0.52084   0.00000  Uiso   1.00
N180   N     0.21501   0.99008   0.49498   0.00000  Uiso   1.00
N181   N     0.29603   0.67924   0.24186   0.00000  Uiso   1.00
N182   N     0.63898   0.84678   0.60230   0.00000  Uiso   1.00
N183   N     0.17909   0.94542   0.57644   0.00000  Uiso   1.00
N184   N     0.26011   0.63458   0.32332   0.00000  Uiso   1.00
C185   C     0.95306   0.37792   0.57632   0.00000  Uiso   1.00
C186   C     0.88718   0.37948   0.62353   0.00000  Uiso   1.00
C187   C     0.89279   0.37717   0.69233   0.00000  Uiso   1.00
C188   C     0.82589   0.37918   0.72662   0.00000  Uiso   1.00
C189   C     0.73425   0.38100   0.80501   0.00000  Uiso   1.00
C190   C     0.95850   0.42995   0.54568   0.00000  Uiso   1.00
C191   C     0.02408   0.47007   0.54903   0.00000  Uiso   1.00
C192   C     0.01722   0.51456   0.51778   0.00000  Uiso   1.00
C193   C     0.03632   0.59472   0.47528   0.00000  Uiso   1.00
C194   C     0.92526   0.32958   0.51763   0.00000  Uiso   1.00
C195   C     0.96290   0.28531   0.49738   0.00000  Uiso   1.00
C196   C     0.92806   0.24530   0.44249   0.00000  Uiso   1.00
C197   C     0.89554   0.16962   0.35643   0.00000  Uiso   1.00
C198   C     0.82429   0.38559   0.51486   0.00000  Uiso   1.00
C199   C     0.81724   0.38365   0.59014   0.00000  Uiso   1.00
C200   C     0.75032   0.38566   0.62433   0.00000  Uiso   1.00
C201   C     0.75582   0.38335   0.69318   0.00000  Uiso   1.00
C202   C     0.88856   0.43412   0.51230   0.00000  Uiso   1.00
C203   C     0.88161   0.47856   0.48104   0.00000  Uiso   1.00
C204   C     0.94715   0.51874   0.48434   0.00000  Uiso   1.00
C205   C     0.85532   0.33374   0.48425   0.00000  Uiso   1.00
C206   C     0.82042   0.29380   0.42938   0.00000  Uiso   1.00
C207   C     0.85799   0.24947   0.40905   0.00000  Uiso   1.00
H208   H     0.00752   0.37468   0.60231   0.00000  Uiso   1.00
H209   H     0.94693   0.37395   0.71815   0.00000  Uiso   1.00
H210   H     0.07820   0.46683   0.57487   0.00000  Uiso   1.00
H211   H     0.01702   0.28210   0.52322   0.00000  Uiso   1.00
H212   H     0.84892   0.37501   0.83187   0.00000  Uiso   1.00
H213   H     0.12571   0.57085   0.52973   0.00000  Uiso   1.00
H214   H     0.99671   0.18130   0.42082   0.00000  Uiso   1.00
H215   H     0.76984   0.38883   0.48887   0.00000  Uiso   1.00
H216   H     0.69620   0.38888   0.59849   0.00000  Uiso   1.00
H217   H     0.82747   0.48177   0.45520   0.00000  Uiso   1.00
H218   H     0.76630   0.29703   0.40356   0.00000  Uiso   1.00
H219   H     0.64542   0.38713   0.73475   0.00000  Uiso   1.00
H220   H     0.92222   0.58297   0.43260   0.00000  Uiso   1.00
H221   H     0.79321   0.19342   0.32370   0.00000  Uiso   1.00
O222   O     0.70302   0.38086   0.85747   0.00000  Uiso   1.00
O223   O     0.06617   0.63779   0.46106   0.00000  Uiso   1.00
O224   O     0.89692   0.12672   0.31818   0.00000  Uiso   1.00
N225   N     0.81112   0.37784   0.79396   0.00000  Uiso   1.00
N226   N     0.06991   0.56094   0.51149   0.00000  Uiso   1.00
N227   N     0.94931   0.19676   0.40966   0.00000  Uiso   1.00
N228   N     0.70162   0.38436   0.74170   0.00000  Uiso   1.00
N229   N     0.96041   0.56747   0.45923   0.00000  Uiso   1.00
N230   N     0.83981   0.20328   0.35740   0.00000  Uiso   1.00
C231   C     0.44571   0.28119   0.95178   0.00000  Uiso   1.00
C232   C     0.45026   0.31600   0.89630   0.00000  Uiso   1.00
C233   C     0.51017   0.35845   0.89109   0.00000  Uiso   1.00
C234   C     0.50350   0.38528   0.83660   0.00000  Uiso   1.00
C235   C     0.52036   0.44161   0.75766   0.00000  Uiso   1.00
C236   C     0.43600   0.22126   0.91491   0.00000  Uiso   1.00
C237   C     0.48391   0.18407   0.92536   0.00000  Uiso   1.00
C238   C     0.46522   0.13114   0.88655   0.00000  Uiso   1.00
C239   C     0.45991   0.04038   0.83654   0.00000  Uiso   1.00
C240   C     0.36975   0.28722   0.98416   0.00000  Uiso   1.00
C241   C     0.36195   0.30546   0.05285   0.00000  Uiso   1.00
C242   C     0.28747   0.30805   0.07234   0.00000  Uiso   1.00
C243   C     0.17929   0.31969   0.12986   0.00000  Uiso   1.00
C244   C     0.32731   0.25334   0.86427   0.00000  Uiso   1.00
C245   C     0.38595   0.30087   0.84876   0.00000  Uiso   1.00
C246   C     0.37918   0.32764   0.79427   0.00000  Uiso   1.00
C247   C     0.43907   0.37012   0.78899   0.00000  Uiso   1.00
C248   C     0.37169   0.20614   0.86738   0.00000  Uiso   1.00
C249   C     0.35292   0.15325   0.82854   0.00000  Uiso   1.00
C250   C     0.40079   0.11598   0.83893   0.00000  Uiso   1.00
C251   C     0.30543   0.27209   0.93663   0.00000  Uiso   1.00
C252   C     0.23095   0.27465   0.95603   0.00000  Uiso   1.00
C253   C     0.22304   0.29289   0.02472   0.00000  Uiso   1.00
H254   H     0.49578   0.29296   0.98878   0.00000  Uiso   1.00
H255   H     0.55994   0.37014   0.92788   0.00000  Uiso   1.00
H256   H     0.53367   0.19578   0.96215   0.00000  Uiso   1.00
H257   H     0.41173   0.31716   0.08961   0.00000  Uiso   1.00
H258   H     0.60271   0.44903   0.83938   0.00000  Uiso   1.00
H259   H     0.54732   0.08137   0.91166   0.00000  Uiso   1.00
H260   H     0.29018   0.33732   0.18044   0.00000  Uiso   1.00
H261   H     0.27724   0.24156   0.82727   0.00000  Uiso   1.00
H262   H     0.32941   0.31592   0.75750   0.00000  Uiso   1.00
H263   H     0.30315   0.14156   0.79177   0.00000  Uiso   1.00
H264   H     0.18120   0.26294   0.91923   0.00000  Uiso   1.00
H265   H     0.41561   0.40501   0.70109   0.00000  Uiso   1.00
H266   H     0.36022   0.03736   0.77338   0.00000  Uiso   1.00
H267   H     0.10307   0.29331   0.04215   0.00000  Uiso   1.00
O268   O     0.54743   0.47685   0.72724   0.00000  Uiso   1.00
O269   O     0.47475   0.99451   0.82208   0.00000  Uiso   1.00
O270   O     0.13739   0.33030   0.17471   0.00000  Uiso   1.00
N271   N     0.55151   0.42847   0.81642   0.00000  Uiso   1.00
N272   N     0.49973   0.08474   0.88399   0.00000  Uiso   1.00
N273   N     0.25932   0.32401   0.13528   0.00000  Uiso   1.00
N274   N     0.45083   0.40479   0.74201   0.00000  Uiso   1.00
N275   N     0.39905   0.06106   0.80958   0.00000  Uiso   1.00
N276   N     0.15864   0.30033   0.06086   0.00000  Uiso   1.00
C277   C     0.93466   0.96205   0.70145   0.00000  Uiso   1.00
C278   C     0.89836   0.96426   0.76959   0.00000  Uiso   1.00
C279   C     0.81970   0.95319   0.77828   0.00000  Uiso   1.00
C280   C     0.79817   0.95747   0.84476   0.00000  Uiso   1.00
C281   C     0.73341   0.95863   0.94208   0.00000  Uiso   1.00
C282   C     0.99132   0.92177   0.70049   0.00000  Uiso   1.00
C283   C     0.99083   0.87498   0.65106   0.00000  Uiso   1.00
C284   C     0.04756   0.84349   0.65937   0.00000  Uiso   1.00
C285   C     0.12716   0.77871   0.64938   0.00000  Uiso   1.00
C286   C     0.98394   0.01880   0.70459   0.00000  Uiso   1.00
C287   C     0.97726   0.05359   0.65861   0.00000  Uiso   1.00
C288   C     0.02779   0.10379   0.67036   0.00000  Uiso   1.00
C289   C     0.09593   0.18965   0.66674   0.00000  Uiso   1.00
C290   C     0.03628   0.98933   0.80406   0.00000  Uiso   1.00
C291   C     0.95356   0.97908   0.82532   0.00000  Uiso   1.00
C292   C     0.93214   0.98338   0.89180   0.00000  Uiso   1.00
C293   C     0.85346   0.97232   0.90059   0.00000  Uiso   1.00
C294   C     0.04652   0.93659   0.75622   0.00000  Uiso   1.00
C295   C     0.10326   0.90517   0.76459   0.00000  Uiso   1.00
C296   C     0.10285   0.85834   0.71520   0.00000  Uiso   1.00
C297   C     0.03914   0.03362   0.76032   0.00000  Uiso   1.00
C298   C     0.08969   0.08377   0.77214   0.00000  Uiso   1.00
C299   C     0.08309   0.11863   0.72619   0.00000  Uiso   1.00
H300   H     0.89169   0.95051   0.65806   0.00000  Uiso   1.00
H301   H     0.77701   0.94172   0.73513   0.00000  Uiso   1.00
H302   H     0.94811   0.86353   0.60794   0.00000  Uiso   1.00
H303   H     0.93454   0.04210   0.61549   0.00000  Uiso   1.00
H304   H     0.67420   0.93849   0.84517   0.00000  Uiso   1.00
H305   H     0.03500   0.77363   0.57695   0.00000  Uiso   1.00
H306   H     0.00639   0.15019   0.59287   0.00000  Uiso   1.00
H307   H     0.07926   0.00087   0.84745   0.00000  Uiso   1.00
H308   H     0.97486   0.99485   0.93492   0.00000  Uiso   1.00
H309   H     0.14597   0.91665   0.80772   0.00000  Uiso   1.00
H310   H     0.13240   0.09523   0.81527   0.00000  Uiso   1.00
H311   H     0.83479   0.98161   0.00732   0.00000  Uiso   1.00
H312   H     0.19559   0.81674   0.73910   0.00000  Uiso   1.00
H313   H     0.16698   0.19331   0.75503   0.00000  Uiso   1.00
O314   O     0.68244   0.95516   0.98037   0.00000  Uiso   1.00
O315   O     0.15580   0.73887   0.62847   0.00000  Uiso   1.00
O316   O     0.11826   0.23292   0.64936   0.00000  Uiso   1.00
N317   N     0.72632   0.94948   0.87133   0.00000  Uiso   1.00
N318   N     0.06364   0.79533   0.62057   0.00000  Uiso   1.00
N319   N     0.03691   0.14739   0.63544   0.00000  Uiso   1.00
N320   N     0.81273   0.97268   0.95858   0.00000  Uiso   1.00
N321   N     0.15005   0.81853   0.70782   0.00000  Uiso   1.00
N322   N     0.12332   0.17059   0.72269   0.00000  Uiso   1.00
C323   C     0.38729   0.95225   0.15359   0.00000  Uiso   1.00
C324   C     0.45013   0.92117   0.17313   0.00000  Uiso   1.00
C325   C     0.44143   0.88083   0.21305   0.00000  Uiso   1.00
C326   C     0.50586   0.85732   0.22508   0.00000  Uiso   1.00
C327   C     0.59270   0.80657   0.25948   0.00000  Uiso   1.00
C328   C     0.38080   0.94267   0.07594   0.00000  Uiso   1.00
C329   C     0.31381   0.92042   0.03416   0.00000  Uiso   1.00
C330   C     0.31988   0.91502   0.96438   0.00000  Uiso   1.00
C331   C     0.29906   0.89769   0.84791   0.00000  Uiso   1.00
C332   C     0.41995   0.01345   0.17769   0.00000  Uiso   1.00
C333   C     0.38588   0.05072   0.22144   0.00000  Uiso   1.00
C334   C     0.42491   0.10491   0.23731   0.00000  Uiso   1.00
C335   C     0.46489   0.19747   0.27881   0.00000  Uiso   1.00
C336   C     0.51719   0.98224   0.10395   0.00000  Uiso   1.00
C337   C     0.52068   0.93746   0.14616   0.00000  Uiso   1.00
C338   C     0.58515   0.91401   0.15813   0.00000  Uiso   1.00
C339   C     0.57655   0.87364   0.19807   0.00000  Uiso   1.00
C340   C     0.45135   0.95896   0.04898   0.00000  Uiso   1.00
C341   C     0.45753   0.95360   0.97924   0.00000  Uiso   1.00
C342   C     0.39056   0.93134   0.93737   0.00000  Uiso   1.00
C343   C     0.49051   0.02974   0.15073   0.00000  Uiso   1.00
C344   C     0.52960   0.08389   0.16652   0.00000  Uiso   1.00
C345   C     0.49559   0.12123   0.21030   0.00000  Uiso   1.00
H346   H     0.33236   0.93957   0.17458   0.00000  Uiso   1.00
H347   H     0.38682   0.86823   0.23390   0.00000  Uiso   1.00
H348   H     0.25921   0.90782   0.05504   0.00000  Uiso   1.00
H349   H     0.33128   0.03810   0.24230   0.00000  Uiso   1.00
H350   H     0.47830   0.79631   0.28776   0.00000  Uiso   1.00
H351   H     0.20924   0.87981   0.91063   0.00000  Uiso   1.00
H352   H     0.36119   0.15451   0.30549   0.00000  Uiso   1.00
H353   H     0.57212   0.99492   0.08296   0.00000  Uiso   1.00
H354   H     0.63974   0.92662   0.13726   0.00000  Uiso   1.00
H355   H     0.51214   0.96621   0.95840   0.00000  Uiso   1.00
H356   H     0.58420   0.09648   0.14565   0.00000  Uiso   1.00
H357   H     0.68359   0.84370   0.20932   0.00000  Uiso   1.00
H358   H     0.41452   0.92720   0.83218   0.00000  Uiso   1.00
H359   H     0.56648   0.20190   0.22704   0.00000  Uiso   1.00
O360   O     0.62109   0.77407   0.28589   0.00000  Uiso   1.00
O361   O     0.26809   0.88362   0.79111   0.00000  Uiso   1.00
O362   O     0.46745   0.24402   0.30916   0.00000  Uiso   1.00
N363   N     0.51734   0.81685   0.26186   0.00000  Uiso   1.00
N364   N     0.26578   0.89490   0.90926   0.00000  Uiso   1.00
N365   N     0.40784   0.15173   0.27841   0.00000  Uiso   1.00
N366   N     0.62780   0.84235   0.21965   0.00000  Uiso   1.00
N367   N     0.37625   0.92040   0.86705   0.00000  Uiso   1.00
N368   N     0.51830   0.17723   0.23620   0.00000  Uiso   1.00
C369   C     0.77719   0.51234   0.20096   0.00000  Uiso   1.00
C370   C     0.77639   0.52387   0.12863   0.00000  Uiso   1.00
C371   C     0.75178   0.48515   0.06963   0.00000  Uiso   1.00
C372   C     0.75557   0.50393   0.00839   0.00000  Uiso   1.00
C373   C     0.75011   0.51339   0.89640   0.00000  Uiso   1.00
C374   C     0.72938   0.55139   0.24030   0.00000  Uiso   1.00
C375   C     0.66526   0.53582   0.27519   0.00000  Uiso   1.00
C376   C     0.62950   0.57778   0.30796   0.00000  Uiso   1.00
C377   C     0.55110   0.62998   0.36937   0.00000  Uiso   1.00
C378   C     0.86040   0.53179   0.23135   0.00000  Uiso   1.00
C379   C     0.90645   0.49975   0.25873   0.00000  Uiso   1.00
C380   C     0.98098   0.52520   0.28398   0.00000  Uiso   1.00
C381   C     0.10601   0.54697   0.33149   0.00000  Uiso   1.00
C382   C     0.82768   0.61453   0.19714   0.00000  Uiso   1.00
C383   C     0.80381   0.57938   0.12656   0.00000  Uiso   1.00
C384   C     0.80764   0.59822   0.06540   0.00000  Uiso   1.00
C385   C     0.78305   0.55954   0.00631   0.00000  Uiso   1.00
C386   C     0.75680   0.60690   0.23822   0.00000  Uiso   1.00
C387   C     0.72113   0.64889   0.27096   0.00000  Uiso   1.00
C388   C     0.65697   0.63339   0.30588   0.00000  Uiso   1.00
C389   C     0.88783   0.58730   0.22927   0.00000  Uiso   1.00
C390   C     0.96231   0.61281   0.25449   0.00000  Uiso   1.00
C391   C     0.00846   0.58081   0.28190   0.00000  Uiso   1.00
H392   H     0.75584   0.46913   0.20258   0.00000  Uiso   1.00
H393   H     0.73055   0.44220   0.07125   0.00000  Uiso   1.00
H394   H     0.64406   0.49287   0.27679   0.00000  Uiso   1.00
H395   H     0.88520   0.45679   0.26032   0.00000  Uiso   1.00
H396   H     0.71459   0.43683   0.92474   0.00000  Uiso   1.00
H397   H     0.53223   0.54366   0.35814   0.00000  Uiso   1.00
H398   H     0.04072   0.46760   0.32342   0.00000  Uiso   1.00
H399   H     0.84903   0.65775   0.19553   0.00000  Uiso   1.00
H400   H     0.82887   0.64118   0.06381   0.00000  Uiso   1.00
H401   H     0.74237   0.69184   0.26934   0.00000  Uiso   1.00
H402   H     0.98351   0.65577   0.25288   0.00000  Uiso   1.00
H403   H     0.79438   0.59833   0.91869   0.00000  Uiso   1.00
H404   H     0.61202   0.70516   0.35210   0.00000  Uiso   1.00
H405   H     0.12051   0.62909   0.31738   0.00000  Uiso   1.00
O406   O     0.73951   0.50328   0.83519   0.00000  Uiso   1.00
O407   O     0.50027   0.64343   0.40381   0.00000  Uiso   1.00
O408   O     0.16740   0.54364   0.35826   0.00000  Uiso   1.00
N409   N     0.73615   0.47712   0.94139   0.00000  Uiso   1.00
N410   N     0.56564   0.57699   0.34659   0.00000  Uiso   1.00
N411   N     0.04104   0.50588   0.31415   0.00000  Uiso   1.00
N412   N     0.77909   0.56402   0.93814   0.00000  Uiso   1.00
N413   N     0.60858   0.66389   0.34333   0.00000  Uiso   1.00
N414   N     0.08397   0.59278   0.31090   0.00000  Uiso   1.00
C415   C     0.52982   0.07719   0.49817   0.00000  Uiso   1.00
C416   C     0.53292   0.13875   0.52436   0.00000  Uiso   1.00
C417   C     0.47034   0.16630   0.52551   0.00000  Uiso   1.00
C418   C     0.48516   0.22267   0.55146   0.00000  Uiso   1.00
C419   C     0.47860   0.31404   0.58847   0.00000  Uiso   1.00
C420   C     0.58751   0.07301   0.44338   0.00000  Uiso   1.00
C421   C     0.57083   0.04529   0.37644   0.00000  Uiso   1.00
C422   C     0.63162   0.04631   0.33423   0.00000  Uiso   1.00
C423   C     0.70982   0.03559   0.24552   0.00000  Uiso   1.00
C424   C     0.56335   0.05482   0.55694   0.00000  Uiso   1.00
C425   C     0.52637   0.01180   0.58548   0.00000  Uiso   1.00
C426   C     0.56683   0.99750   0.63887   0.00000  Uiso   1.00
C427   C     0.60753   0.95854   0.72649   0.00000  Uiso   1.00
C428   C     0.66743   0.12829   0.54223   0.00000  Uiso   1.00
C429   C     0.60766   0.16650   0.54829   0.00000  Uiso   1.00
C430   C     0.62258   0.22284   0.57426   0.00000  Uiso   1.00
C431   C     0.56004   0.25047   0.57544   0.00000  Uiso   1.00
C432   C     0.66225   0.10076   0.46731   0.00000  Uiso   1.00
C433   C     0.72308   0.10182   0.42519   0.00000  Uiso   1.00
C434   C     0.70649   0.07411   0.35821   0.00000  Uiso   1.00
C435   C     0.63810   0.08258   0.58088   0.00000  Uiso   1.00
C436   C     0.67862   0.06834   0.63423   0.00000  Uiso   1.00
C437   C     0.64171   0.02530   0.66285   0.00000  Uiso   1.00
H438   H     0.47164   0.05558   0.47953   0.00000  Uiso   1.00
H439   H     0.41250   0.14481   0.50697   0.00000  Uiso   1.00
H440   H     0.51299   0.02381   0.35794   0.00000  Uiso   1.00
H441   H     0.46853   0.99033   0.56694   0.00000  Uiso   1.00
H442   H     0.37991   0.25598   0.54793   0.00000  Uiso   1.00
H443   H     0.59179   0.00083   0.23369   0.00000  Uiso   1.00
H444   H     0.49805   0.93023   0.67442   0.00000  Uiso   1.00
H445   H     0.72563   0.14989   0.56086   0.00000  Uiso   1.00
H446   H     0.68043   0.24431   0.59278   0.00000  Uiso   1.00
H447   H     0.78091   0.12330   0.44373   0.00000  Uiso   1.00
H448   H     0.73646   0.08983   0.65274   0.00000  Uiso   1.00
H449   H     0.59737   0.33674   0.61757   0.00000  Uiso   1.00
H450   H     0.80925   0.08158   0.30332   0.00000  Uiso   1.00
H451   H     0.71551   0.01099   0.74406   0.00000  Uiso   1.00
O452   O     0.45433   0.35677   0.60226   0.00000  Uiso   1.00
O453   O     0.73230   0.02201   0.18998   0.00000  Uiso   1.00
O454   O     0.60932   0.92939   0.76821   0.00000  Uiso   1.00
N455   N     0.43729   0.26203   0.55996   0.00000  Uiso   1.00
N456   N     0.63538   0.02349   0.26615   0.00000  Uiso   1.00
N457   N     0.54775   0.95747   0.67818   0.00000  Uiso   1.00
N458   N     0.55430   0.30548   0.59743   0.00000  Uiso   1.00
N459   N     0.75239   0.06694   0.30362   0.00000  Uiso   1.00
N460   N     0.66476   0.00092   0.71566   0.00000  Uiso   1.00
C461   C     0.24444   0.56068   0.73962   0.00000  Uiso   1.00
C462   C     0.25370   0.57088   0.81725   0.00000  Uiso   1.00
C463   C     0.31402   0.60618   0.85798   0.00000  Uiso   1.00
C464   C     0.31198   0.60974   0.92793   0.00000  Uiso   1.00
C465   C     0.33554   0.63022   0.04419   0.00000  Uiso   1.00
C466   C     0.23832   0.49855   0.71582   0.00000  Uiso   1.00
C467   C     0.28570   0.47303   0.67127   0.00000  Uiso   1.00
C468   C     0.27070   0.41570   0.65583   0.00000  Uiso   1.00
C469   C     0.27035   0.32388   0.61458   0.00000  Uiso   1.00
C470   C     0.16531   0.57395   0.72129   0.00000  Uiso   1.00
C471   C     0.15129   0.61182   0.68132   0.00000  Uiso   1.00
C472   C     0.07482   0.61798   0.67047   0.00000  Uiso   1.00
C473   C     0.96110   0.64323   0.63771   0.00000  Uiso   1.00
C474   C     0.13355   0.50426   0.79142   0.00000  Uiso   1.00
C475   C     0.19347   0.54023   0.84538   0.00000  Uiso   1.00
C476   C     0.19133   0.54375   0.91529   0.00000  Uiso   1.00
C477   C     0.25164   0.57904   0.95612   0.00000  Uiso   1.00
C478   C     0.17809   0.46790   0.74395   0.00000  Uiso   1.00
C479   C     0.16301   0.41060   0.72858   0.00000  Uiso   1.00
C480   C     0.21036   0.38500   0.68402   0.00000  Uiso   1.00
C481   C     0.10507   0.54331   0.74942   0.00000  Uiso   1.00
C482   C     0.02860   0.54940   0.73863   0.00000  Uiso   1.00
C483   C     0.01448   0.58727   0.69865   0.00000  Uiso   1.00
H484   H     0.29133   0.58454   0.71771   0.00000  Uiso   1.00
H485   H     0.36063   0.62988   0.83619   0.00000  Uiso   1.00
H486   H     0.33231   0.49675   0.64950   0.00000  Uiso   1.00
H487   H     0.19792   0.63553   0.65955   0.00000  Uiso   1.00
H488   H     0.41090   0.66662   0.97994   0.00000  Uiso   1.00
H489   H     0.35117   0.38591   0.58628   0.00000  Uiso   1.00
H490   H     0.06779   0.67855   0.60748   0.00000  Uiso   1.00
H491   H     0.08665   0.48040   0.81332   0.00000  Uiso   1.00
H492   H     0.14471   0.52003   0.93705   0.00000  Uiso   1.00
H493   H     0.11640   0.38690   0.75036   0.00000  Uiso   1.00
H494   H     0.98201   0.52568   0.76041   0.00000  Uiso   1.00
H495   H     0.23566   0.57746   0.06180   0.00000  Uiso   1.00
H496   H     0.17593   0.29675   0.66814   0.00000  Uiso   1.00
H497   H     0.89255   0.58939   0.68934   0.00000  Uiso   1.00
O498   O     0.36518   0.64997   0.10054   0.00000  Uiso   1.00
O499   O     0.28681   0.28170   0.58406   0.00000  Uiso   1.00
O500   O     0.91502   0.66563   0.61187   0.00000  Uiso   1.00
N501   N     0.36168   0.64020   0.98223   0.00000  Uiso   1.00
N502   N     0.30585   0.37776   0.61419   0.00000  Uiso   1.00
N503   N     0.04090   0.65134   0.63399   0.00000  Uiso   1.00
N504   N     0.26739   0.59223   0.02628   0.00000  Uiso   1.00
N505   N     0.21155   0.32978   0.65824   0.00000  Uiso   1.00
N506   N     0.94661   0.60337   0.67804   0.00000  Uiso   1.00
C507   C     0.48967   0.46212   0.04183   0.00000  Uiso   1.00
C508   C     0.51077   0.43063   0.09658   0.00000  Uiso   1.00
C509   C     0.55239   0.38753   0.08762   0.00000  Uiso   1.00
C510   C     0.56566   0.36414   0.14402   0.00000  Uiso   1.00
C511   C     0.60256   0.31233   0.21944   0.00000  Uiso   1.00
C512   C     0.40176   0.45691   0.03857   0.00000  Uiso   1.00
C513   C     0.35173   0.43591   0.98082   0.00000  Uiso   1.00
C514   C     0.27324   0.43465   0.98839   0.00000  Uiso   1.00
C515   C     0.14090   0.42368   0.97372   0.00000  Uiso   1.00
C516   C     0.52190   0.52285   0.06991   0.00000  Uiso   1.00
C517   C     0.57288   0.55730   0.03850   0.00000  Uiso   1.00
C518   C     0.59552   0.61156   0.07245   0.00000  Uiso   1.00
C519   C     0.64973   0.70297   0.10644   0.00000  Uiso   1.00
C520   C     0.43922   0.49721   0.15795   0.00000  Uiso   1.00
C521   C     0.48336   0.44969   0.15965   0.00000  Uiso   1.00
C522   C     0.49658   0.42636   0.21609   0.00000  Uiso   1.00
C523   C     0.53822   0.38323   0.20721   0.00000  Uiso   1.00
C524   C     0.37436   0.47597   0.10164   0.00000  Uiso   1.00
C525   C     0.29592   0.47474   0.10929   0.00000  Uiso   1.00
C526   C     0.24579   0.45374   0.05157   0.00000  Uiso   1.00
C527   C     0.49450   0.54191   0.13298   0.00000  Uiso   1.00
C528   C     0.51707   0.59613   0.16698   0.00000  Uiso   1.00
C529   C     0.56807   0.63065   0.13563   0.00000  Uiso   1.00
H530   H     0.51099   0.44728   0.99272   0.00000  Uiso   1.00
H531   H     0.57358   0.37279   0.03880   0.00000  Uiso   1.00
H532   H     0.37295   0.42117   0.93202   0.00000  Uiso   1.00
H533   H     0.59406   0.54254   0.98970   0.00000  Uiso   1.00
H534   H     0.63086   0.29860   0.11768   0.00000  Uiso   1.00
H535   H     0.20783   0.40063   0.89253   0.00000  Uiso   1.00
H536   H     0.67409   0.65656   0.01415   0.00000  Uiso   1.00
H537   H     0.41789   0.51205   0.20705   0.00000  Uiso   1.00
H538   H     0.47537   0.44112   0.26489   0.00000  Uiso   1.00
H539   H     0.27474   0.48950   0.15811   0.00000  Uiso   1.00
H540   H     0.49585   0.61086   0.21578   0.00000  Uiso   1.00
H541   H     0.55114   0.35405   0.30119   0.00000  Uiso   1.00
H542   H     0.12812   0.45609   0.07603   0.00000  Uiso   1.00
H543   H     0.59438   0.71202   0.19765   0.00000  Uiso   1.00
O544   O     0.63047   0.27848   0.24361   0.00000  Uiso   1.00
O545   O     0.07548   0.41236   0.94821   0.00000  Uiso   1.00
O546   O     0.68720   0.74813   0.10778   0.00000  Uiso   1.00
N547   N     0.60422   0.32139   0.15294   0.00000  Uiso   1.00
N548   N     0.20871   0.41678   0.94243   0.00000  Uiso   1.00
N549   N     0.64461   0.65605   0.05613   0.00000  Uiso   1.00
N550   N     0.56133   0.35123   0.25168   0.00000  Uiso   1.00
N551   N     0.16582   0.44662   0.04118   0.00000  Uiso   1.00
N552   N     0.60172   0.68589   0.15487   0.00000  Uiso   1.00
