data_job_07045
_audit_creation_date              2018-12-19
_audit_creation_method            'Materials Studio'
_symmetry_space_group_name_H-M    'P1'
_symmetry_Int_Tables_number       1
_symmetry_cell_setting            triclinic
loop_
_symmetry_equiv_pos_as_xyz
  x,y,z
_cell_length_a                    20.3387
_cell_length_b                    22.4081
_cell_length_c                    20.5154
_cell_angle_alpha                 72.3563
_cell_angle_beta                  77.0210
_cell_angle_gamma                 77.6946
loop_
_atom_site_label
_atom_site_type_symbol
_atom_site_fract_x
_atom_site_fract_y
_atom_site_fract_z
_atom_site_U_iso_or_equiv
_atom_site_adp_type
_atom_site_occupancy
C1     C     0.14847   0.71804   0.91884   0.00000  Uiso   1.00
C2     C     0.11273   0.66265   0.96481   0.00000  Uiso   1.00
C3     C     0.13687   0.61589   0.01983   0.00000  Uiso   1.00
C4     C     0.09662   0.56929   0.05545   0.00000  Uiso   1.00
C5     C     0.05059   0.48324   0.12967   0.00000  Uiso   1.00
C6     C     0.15682   0.71380   0.84454   0.00000  Uiso   1.00
C7     C     0.21804   0.71007   0.79845   0.00000  Uiso   1.00
C8     C     0.21491   0.70653   0.73283   0.00000  Uiso   1.00
C9     C     0.23733   0.69995   0.62032   0.00000  Uiso   1.00
C10    C     0.09747   0.77792   0.92346   0.00000  Uiso   1.00
C11    C     0.10878   0.82810   0.94370   0.00000  Uiso   1.00
C12    C     0.05568   0.87855   0.94450   0.00000  Uiso   1.00
C13    C     0.98594   0.97151   0.95451   0.00000  Uiso   1.00
C14    C     0.03406   0.71842   0.88425   0.00000  Uiso   1.00
C15    C     0.05058   0.66286   0.94602   0.00000  Uiso   1.00
C16    C     0.01029   0.61632   0.98157   0.00000  Uiso   1.00
C17    C     0.03436   0.56950   0.03664   0.00000  Uiso   1.00
C18    C     0.09468   0.71401   0.82576   0.00000  Uiso   1.00
C19    C     0.09146   0.71049   0.76019   0.00000  Uiso   1.00
C20    C     0.15266   0.70675   0.71401   0.00000  Uiso   1.00
C21    C     0.03532   0.77813   0.90467   0.00000  Uiso   1.00
C22    C     0.98220   0.82852   0.90544   0.00000  Uiso   1.00
C23    C     0.99343   0.87876   0.92568   0.00000  Uiso   1.00
H24    H     0.19686   0.71787   0.93346   0.00000  Uiso   1.00
H25    H     0.18497   0.61574   0.03435   0.00000  Uiso   1.00
H26    H     0.26612   0.70991   0.81300   0.00000  Uiso   1.00
H27    H     0.15688   0.82792   0.95823   0.00000  Uiso   1.00
H28    H     0.14439   0.50259   0.13790   0.00000  Uiso   1.00
H29    H     0.31552   0.70117   0.67118   0.00000  Uiso   1.00
H30    H     0.08515   0.95002   0.97742   0.00000  Uiso   1.00
H31    H     0.98568   0.71859   0.86962   0.00000  Uiso   1.00
H32    H     0.96220   0.61649   0.96702   0.00000  Uiso   1.00
H33    H     0.04336   0.71066   0.74567   0.00000  Uiso   1.00
H34    H     0.93411   0.82867   0.89090   0.00000  Uiso   1.00
H35    H     0.96359   0.50320   0.08325   0.00000  Uiso   1.00
H36    H     0.13471   0.70178   0.61652   0.00000  Uiso   1.00
H37    H     0.90434   0.95062   0.92277   0.00000  Uiso   1.00
O38    O     0.04237   0.43571   0.17578   0.00000  Uiso   1.00
O39    O     0.26687   0.69625   0.56345   0.00000  Uiso   1.00
O40    O     0.96464   0.02273   0.96523   0.00000  Uiso   1.00
N41    N     0.10506   0.51675   0.11169   0.00000  Uiso   1.00
N42    N     0.26505   0.70240   0.67533   0.00000  Uiso   1.00
N43    N     0.04968   0.93506   0.96162   0.00000  Uiso   1.00
N44    N     0.00777   0.51708   0.08228   0.00000  Uiso   1.00
N45    N     0.16776   0.70273   0.64592   0.00000  Uiso   1.00
N46    N     0.95239   0.93539   0.93221   0.00000  Uiso   1.00
C47    C     0.76844   0.01538   0.90488   0.00000  Uiso   1.00
C48    C     0.81279   0.98784   0.84710   0.00000  Uiso   1.00
C49    C     0.86319   0.01598   0.79654   0.00000  Uiso   1.00
C50    C     0.89806   0.98319   0.74826   0.00000  Uiso   1.00
C51    C     0.96919   0.94939   0.65818   0.00000  Uiso   1.00
C52    C     0.69464   0.01873   0.89765   0.00000  Uiso   1.00
C53    C     0.64571   0.07284   0.88960   0.00000  Uiso   1.00
C54    C     0.58112   0.06604   0.88389   0.00000  Uiso   1.00
C55    C     0.46882   0.08019   0.87234   0.00000  Uiso   1.00
C56    C     0.77889   0.96536   0.97274   0.00000  Uiso   1.00
C57    C     0.80078   0.97461   0.02784   0.00000  Uiso   1.00
C58    C     0.80711   0.92288   0.08536   0.00000  Uiso   1.00
C59    C     0.82563   0.85417   0.19040   0.00000  Uiso   1.00
C60    C     0.74074   0.90709   0.90906   0.00000  Uiso   1.00
C61    C     0.79774   0.92902   0.84937   0.00000  Uiso   1.00
C62    C     0.83255   0.89617   0.80116   0.00000  Uiso   1.00
C63    C     0.88299   0.92426   0.75053   0.00000  Uiso   1.00
C64    C     0.67960   0.95991   0.89992   0.00000  Uiso   1.00
C65    C     0.61507   0.95303   0.89422   0.00000  Uiso   1.00
C66    C     0.56605   0.00712   0.88616   0.00000  Uiso   1.00
C67    C     0.76385   0.90654   0.97501   0.00000  Uiso   1.00
C68    C     0.77015   0.85480   0.03246   0.00000  Uiso   1.00
C69    C     0.79204   0.86396   0.08763   0.00000  Uiso   1.00
H70    H     0.78014   0.06117   0.90311   0.00000  Uiso   1.00
H71    H     0.87481   0.06151   0.79480   0.00000  Uiso   1.00
H72    H     0.65736   0.11835   0.88786   0.00000  Uiso   1.00
H73    H     0.81242   0.02013   0.02607   0.00000  Uiso   1.00
H74    H     0.97311   0.03595   0.67569   0.00000  Uiso   1.00
H75    H     0.51461   0.15580   0.87193   0.00000  Uiso   1.00
H76    H     0.84157   0.94869   0.16338   0.00000  Uiso   1.00
H77    H     0.72903   0.86129   0.91082   0.00000  Uiso   1.00
H78    H     0.82090   0.85066   0.80293   0.00000  Uiso   1.00
H79    H     0.60345   0.90750   0.89598   0.00000  Uiso   1.00
H80    H     0.75850   0.80929   0.03420   0.00000  Uiso   1.00
H81    H     0.92936   0.86482   0.68229   0.00000  Uiso   1.00
H82    H     0.47085   0.98467   0.87853   0.00000  Uiso   1.00
H83    H     0.79781   0.77756   0.16998   0.00000  Uiso   1.00
O84    O     0.01257   0.94700   0.60786   0.00000  Uiso   1.00
O85    O     0.41103   0.10424   0.86533   0.00000  Uiso   1.00
O86    O     0.84000   0.83252   0.24771   0.00000  Uiso   1.00
N87    N     0.95022   0.99712   0.69206   0.00000  Uiso   1.00
N88    N     0.52154   0.10918   0.87552   0.00000  Uiso   1.00
N89    N     0.82721   0.91556   0.14801   0.00000  Uiso   1.00
N90    N     0.92667   0.90504   0.69561   0.00000  Uiso   1.00
N91    N     0.49800   0.01710   0.87907   0.00000  Uiso   1.00
N92    N     0.80366   0.82347   0.15156   0.00000  Uiso   1.00
C93    C     0.77945   0.66195   0.30660   0.00000  Uiso   1.00
C94    C     0.72094   0.70905   0.27588   0.00000  Uiso   1.00
C95    C     0.67562   0.75205   0.30734   0.00000  Uiso   1.00
C96    C     0.62563   0.79106   0.27075   0.00000  Uiso   1.00
C97    C     0.53543   0.86477   0.23307   0.00000  Uiso   1.00
C98    C     0.76779   0.59666   0.30753   0.00000  Uiso   1.00
C99    C     0.76188   0.54518   0.36560   0.00000  Uiso   1.00
C100   C     0.75133   0.48958   0.35565   0.00000  Uiso   1.00
C101   C     0.73393   0.38879   0.36709   0.00000  Uiso   1.00
C102   C     0.84399   0.67519   0.25351   0.00000  Uiso   1.00
C103   C     0.90216   0.68971   0.26616   0.00000  Uiso   1.00
C104   C     0.95578   0.70021   0.21073   0.00000  Uiso   1.00
C105   C     0.05669   0.72134   0.13830   0.00000  Uiso   1.00
C106   C     0.77124   0.65474   0.18568   0.00000  Uiso   1.00
C107   C     0.71648   0.70513   0.21021   0.00000  Uiso   1.00
C108   C     0.66654   0.74408   0.17356   0.00000  Uiso   1.00
C109   C     0.62116   0.78714   0.20496   0.00000  Uiso   1.00
C110   C     0.76333   0.59275   0.24186   0.00000  Uiso   1.00
C111   C     0.75280   0.53721   0.23182   0.00000  Uiso   1.00
C112   C     0.74687   0.48565   0.28985   0.00000  Uiso   1.00
C113   C     0.83954   0.67127   0.18783   0.00000  Uiso   1.00
C114   C     0.89308   0.68174   0.13238   0.00000  Uiso   1.00
C115   C     0.95131   0.69628   0.14493   0.00000  Uiso   1.00
H116   H     0.78292   0.66499   0.35773   0.00000  Uiso   1.00
H117   H     0.67908   0.75506   0.35817   0.00000  Uiso   1.00
H118   H     0.76534   0.54822   0.41641   0.00000  Uiso   1.00
H119   H     0.90559   0.69274   0.31699   0.00000  Uiso   1.00
H120   H     0.56198   0.85319   0.32970   0.00000  Uiso   1.00
H121   H     0.74387   0.41704   0.45252   0.00000  Uiso   1.00
H122   H     0.03963   0.72177   0.24286   0.00000  Uiso   1.00
H123   H     0.76778   0.65169   0.13455   0.00000  Uiso   1.00
H124   H     0.66311   0.74104   0.12274   0.00000  Uiso   1.00
H125   H     0.74936   0.53419   0.18099   0.00000  Uiso   1.00
H126   H     0.88961   0.67871   0.08156   0.00000  Uiso   1.00
H127   H     0.54902   0.84180   0.13862   0.00000  Uiso   1.00
H128   H     0.73091   0.40565   0.26143   0.00000  Uiso   1.00
H129   H     0.02666   0.71039   0.05177   0.00000  Uiso   1.00
O130   O     0.48691   0.90650   0.23043   0.00000  Uiso   1.00
O131   O     0.72555   0.33428   0.39155   0.00000  Uiso   1.00
O132   O     0.11357   0.73409   0.11649   0.00000  Uiso   1.00
N133   N     0.57330   0.83826   0.28635   0.00000  Uiso   1.00
N134   N     0.74335   0.43048   0.40117   0.00000  Uiso   1.00
N135   N     0.01986   0.71537   0.20516   0.00000  Uiso   1.00
N136   N     0.56633   0.83213   0.18353   0.00000  Uiso   1.00
N137   N     0.73637   0.42436   0.29835   0.00000  Uiso   1.00
N138   N     0.01289   0.70924   0.10234   0.00000  Uiso   1.00
C139   C     0.58935   0.18150   0.42972   0.00000  Uiso   1.00
C140   C     0.55224   0.24087   0.38496   0.00000  Uiso   1.00
C141   C     0.58272   0.28325   0.32730   0.00000  Uiso   1.00
C142   C     0.53991   0.33464   0.29337   0.00000  Uiso   1.00
C143   C     0.49303   0.42549   0.22036   0.00000  Uiso   1.00
C144   C     0.55650   0.12646   0.42942   0.00000  Uiso   1.00
C145   C     0.59057   0.07264   0.40914   0.00000  Uiso   1.00
C146   C     0.55134   0.02771   0.41264   0.00000  Uiso   1.00
C147   C     0.51109   0.94092   0.40870   0.00000  Uiso   1.00
C148   C     0.57008   0.18808   0.50374   0.00000  Uiso   1.00
C149   C     0.61555   0.18604   0.54597   0.00000  Uiso   1.00
C150   C     0.58776   0.19297   0.61205   0.00000  Uiso   1.00
C151   C     0.56859   0.20185   0.72351   0.00000  Uiso   1.00
C152   C     0.45913   0.19741   0.47200   0.00000  Uiso   1.00
C153   C     0.48151   0.24951   0.40793   0.00000  Uiso   1.00
C154   C     0.43864   0.30085   0.37408   0.00000  Uiso   1.00
C155   C     0.46905   0.34330   0.31638   0.00000  Uiso   1.00
C156   C     0.48577   0.13510   0.45238   0.00000  Uiso   1.00
C157   C     0.44649   0.09024   0.45592   0.00000  Uiso   1.00
C158   C     0.48048   0.03637   0.43565   0.00000  Uiso   1.00
C159   C     0.49934   0.19672   0.52671   0.00000  Uiso   1.00
C160   C     0.47147   0.20365   0.59275   0.00000  Uiso   1.00
C161   C     0.51690   0.20163   0.63506   0.00000  Uiso   1.00
H162   H     0.64442   0.17477   0.41183   0.00000  Uiso   1.00
H163   H     0.63746   0.27654   0.30954   0.00000  Uiso   1.00
H164   H     0.64530   0.06596   0.39137   0.00000  Uiso   1.00
H165   H     0.67029   0.17935   0.52818   0.00000  Uiso   1.00
H166   H     0.59854   0.39317   0.20624   0.00000  Uiso   1.00
H167   H     0.61509   0.94914   0.37881   0.00000  Uiso   1.00
H168   H     0.66777   0.18825   0.66729   0.00000  Uiso   1.00
H169   H     0.40406   0.20414   0.48988   0.00000  Uiso   1.00
H170   H     0.38390   0.30753   0.39187   0.00000  Uiso   1.00
H171   H     0.39175   0.09694   0.47370   0.00000  Uiso   1.00
H172   H     0.41673   0.21033   0.61050   0.00000  Uiso   1.00
H173   H     0.39275   0.41832   0.27306   0.00000  Uiso   1.00
H174   H     0.40930   0.97429   0.44564   0.00000  Uiso   1.00
H175   H     0.46198   0.21339   0.73411   0.00000  Uiso   1.00
O176   O     0.48672   0.47321   0.17375   0.00000  Uiso   1.00
O177   O     0.50844   0.89066   0.40018   0.00000  Uiso   1.00
O178   O     0.57755   0.20436   0.77864   0.00000  Uiso   1.00
N179   N     0.55287   0.38491   0.23542   0.00000  Uiso   1.00
N180   N     0.56835   0.96977   0.39676   0.00000  Uiso   1.00
N181   N     0.61760   0.19330   0.66647   0.00000  Uiso   1.00
N182   N     0.44214   0.39844   0.27138   0.00000  Uiso   1.00
N183   N     0.45761   0.98330   0.43272   0.00000  Uiso   1.00
N184   N     0.50686   0.20683   0.70242   0.00000  Uiso   1.00
C185   C     0.25982   0.12341   0.81130   0.00000  Uiso   1.00
C186   C     0.31066   0.09033   0.76137   0.00000  Uiso   1.00
C187   C     0.34801   0.03003   0.77949   0.00000  Uiso   1.00
C188   C     0.39181   0.00827   0.72619   0.00000  Uiso   1.00
C189   C     0.46977   0.95123   0.65914   0.00000  Uiso   1.00
C190   C     0.19249   0.14100   0.78398   0.00000  Uiso   1.00
C191   C     0.13050   0.12331   0.82112   0.00000  Uiso   1.00
C192   C     0.07482   0.14421   0.78685   0.00000  Uiso   1.00
C193   C     0.96933   0.16587   0.75492   0.00000  Uiso   1.00
C194   C     0.28410   0.18589   0.80159   0.00000  Uiso   1.00
C195   C     0.29910   0.20596   0.85353   0.00000  Uiso   1.00
C196   C     0.32054   0.26467   0.83409   0.00000  Uiso   1.00
C197   C     0.35727   0.35603   0.82950   0.00000  Uiso   1.00
C198   C     0.27119   0.19199   0.68441   0.00000  Uiso   1.00
C199   C     0.31683   0.12758   0.69245   0.00000  Uiso   1.00
C200   C     0.36058   0.10591   0.63910   0.00000  Uiso   1.00
C201   C     0.39799   0.04559   0.65715   0.00000  Uiso   1.00
C202   C     0.19866   0.17825   0.71506   0.00000  Uiso   1.00
C203   C     0.14307   0.19918   0.68073   0.00000  Uiso   1.00
C204   C     0.08100   0.18153   0.71780   0.00000  Uiso   1.00
C205   C     0.29027   0.22315   0.73267   0.00000  Uiso   1.00
C206   C     0.31168   0.28183   0.71314   0.00000  Uiso   1.00
C207   C     0.32672   0.30198   0.76505   0.00000  Uiso   1.00
H208   H     0.25501   0.09441   0.86495   0.00000  Uiso   1.00
H209   H     0.34321   0.00122   0.83283   0.00000  Uiso   1.00
H210   H     0.12573   0.09449   0.87445   0.00000  Uiso   1.00
H211   H     0.29432   0.17712   0.90686   0.00000  Uiso   1.00
H212   H     0.44370   0.91431   0.76683   0.00000  Uiso   1.00
H213   H     0.98513   0.11099   0.85459   0.00000  Uiso   1.00
H214   H     0.34062   0.28525   0.92293   0.00000  Uiso   1.00
H215   H     0.27599   0.22099   0.63075   0.00000  Uiso   1.00
H216   H     0.36535   0.13474   0.58577   0.00000  Uiso   1.00
H217   H     0.14786   0.22801   0.62739   0.00000  Uiso   1.00
H218   H     0.31645   0.31065   0.65980   0.00000  Uiso   1.00
H219   H     0.46166   0.02269   0.56630   0.00000  Uiso   1.00
H220   H     0.00309   0.21937   0.65406   0.00000  Uiso   1.00
H221   H     0.35859   0.39362   0.72241   0.00000  Uiso   1.00
O222   O     0.51107   0.90947   0.64120   0.00000  Uiso   1.00
O223   O     0.90944   0.16752   0.75635   0.00000  Uiso   1.00
O224   O     0.37584   0.39613   0.84601   0.00000  Uiso   1.00
N225   N     0.43568   0.95166   0.72581   0.00000  Uiso   1.00
N226   N     0.00694   0.13554   0.80785   0.00000  Uiso   1.00
N227   N     0.33928   0.29846   0.87175   0.00000  Uiso   1.00
N228   N     0.44534   0.00998   0.61791   0.00000  Uiso   1.00
N229   N     0.01661   0.19385   0.69995   0.00000  Uiso   1.00
N230   N     0.34895   0.35677   0.76385   0.00000  Uiso   1.00
C231   C     0.30750   0.52273   0.49491   0.00000  Uiso   1.00
C232   C     0.25510   0.50384   0.56042   0.00000  Uiso   1.00
C233   C     0.21592   0.54418   0.59911   0.00000  Uiso   1.00
C234   C     0.17087   0.51774   0.65732   0.00000  Uiso   1.00
C235   C     0.09032   0.49823   0.75616   0.00000  Uiso   1.00
C236   C     0.28578   0.50336   0.43873   0.00000  Uiso   1.00
C237   C     0.27242   0.54330   0.37511   0.00000  Uiso   1.00
C238   C     0.25321   0.51645   0.33088   0.00000  Uiso   1.00
C239   C     0.22036   0.49618   0.24078   0.00000  Uiso   1.00
C240   C     0.37455   0.47965   0.50928   0.00000  Uiso   1.00
C241   C     0.43583   0.49965   0.50495   0.00000  Uiso   1.00
C242   C     0.49137   0.45284   0.52010   0.00000  Uiso   1.00
C243   C     0.59634   0.39575   0.53954   0.00000  Uiso   1.00
C244   C     0.29718   0.40404   0.52950   0.00000  Uiso   1.00
C245   C     0.24949   0.43938   0.57920   0.00000  Uiso   1.00
C246   C     0.20449   0.41287   0.63738   0.00000  Uiso   1.00
C247   C     0.16525   0.45316   0.67615   0.00000  Uiso   1.00
C248   C     0.28018   0.43890   0.45752   0.00000  Uiso   1.00
C249   C     0.26099   0.41199   0.41337   0.00000  Uiso   1.00
C250   C     0.24759   0.45187   0.34970   0.00000  Uiso   1.00
C251   C     0.36895   0.41519   0.52807   0.00000  Uiso   1.00
C252   C     0.42440   0.36834   0.54322   0.00000  Uiso   1.00
C253   C     0.48575   0.38826   0.53892   0.00000  Uiso   1.00
H254   H     0.31187   0.57292   0.48028   0.00000  Uiso   1.00
H255   H     0.22027   0.59407   0.58455   0.00000  Uiso   1.00
H256   H     0.27677   0.59318   0.36058   0.00000  Uiso   1.00
H257   H     0.44015   0.54954   0.49041   0.00000  Uiso   1.00
H258   H     0.11622   0.58909   0.70842   0.00000  Uiso   1.00
H259   H     0.23537   0.58722   0.23616   0.00000  Uiso   1.00
H260   H     0.57990   0.49519   0.50993   0.00000  Uiso   1.00
H261   H     0.29281   0.35385   0.54412   0.00000  Uiso   1.00
H262   H     0.20017   0.36298   0.65190   0.00000  Uiso   1.00
H263   H     0.25666   0.36210   0.42793   0.00000  Uiso   1.00
H264   H     0.42004   0.31845   0.55776   0.00000  Uiso   1.00
H265   H     0.09990   0.40154   0.76308   0.00000  Uiso   1.00
H266   H     0.21905   0.39966   0.29082   0.00000  Uiso   1.00
H267   H     0.56358   0.30763   0.56459   0.00000  Uiso   1.00
O268   O     0.04744   0.50528   0.80549   0.00000  Uiso   1.00
O269   O     0.20377   0.50282   0.18590   0.00000  Uiso   1.00
O270   O     0.65578   0.38207   0.54507   0.00000  Uiso   1.00
N271   N     0.12510   0.54370   0.70650   0.00000  Uiso   1.00
N272   N     0.23649   0.54195   0.26497   0.00000  Uiso   1.00
N273   N     0.55860   0.45590   0.52090   0.00000  Uiso   1.00
N274   N     0.11632   0.44277   0.73592   0.00000  Uiso   1.00
N275   N     0.22771   0.44102   0.29439   0.00000  Uiso   1.00
N276   N     0.54982   0.35498   0.55032   0.00000  Uiso   1.00
C277   C     0.77463   0.99407   0.39783   0.00000  Uiso   1.00
C278   C     0.79024   0.06172   0.36923   0.00000  Uiso   1.00
C279   C     0.75881   0.10948   0.31974   0.00000  Uiso   1.00
C280   C     0.78030   0.16814   0.30044   0.00000  Uiso   1.00
C281   C     0.79675   0.27160   0.25161   0.00000  Uiso   1.00
C282   C     0.75579   0.98274   0.47640   0.00000  Uiso   1.00
C283   C     0.69539   0.96408   0.51703   0.00000  Uiso   1.00
C284   C     0.68788   0.95625   0.58795   0.00000  Uiso   1.00
C285   C     0.65087   0.93704   0.70551   0.00000  Uiso   1.00
C286   C     0.84230   0.95095   0.38468   0.00000  Uiso   1.00
C287   C     0.85465   0.90556   0.34820   0.00000  Uiso   1.00
C288   C     0.91998   0.87096   0.34191   0.00000  Uiso   1.00
C289   C     0.01730   0.80241   0.31707   0.00000  Uiso   1.00
C290   C     0.86869   0.01333   0.45155   0.00000  Uiso   1.00
C291   C     0.84133   0.07218   0.39841   0.00000  Uiso   1.00
C292   C     0.86287   0.13079   0.37917   0.00000  Uiso   1.00
C293   C     0.83148   0.17863   0.32967   0.00000  Uiso   1.00
C294   C     0.80687   0.99320   0.50558   0.00000  Uiso   1.00
C295   C     0.79946   0.98539   0.57646   0.00000  Uiso   1.00
C296   C     0.73907   0.96673   0.61718   0.00000  Uiso   1.00
C297   C     0.89340   0.96142   0.41386   0.00000  Uiso   1.00
C298   C     0.95872   0.92688   0.40763   0.00000  Uiso   1.00
C299   C     0.97116   0.88144   0.37114   0.00000  Uiso   1.00
H300   H     0.73485   0.98592   0.37512   0.00000  Uiso   1.00
H301   H     0.71927   0.10136   0.29718   0.00000  Uiso   1.00
H302   H     0.65587   0.95598   0.49444   0.00000  Uiso   1.00
H303   H     0.81510   0.89748   0.32563   0.00000  Uiso   1.00
H304   H     0.72451   0.23397   0.22366   0.00000  Uiso   1.00
H305   H     0.59083   0.92740   0.63958   0.00000  Uiso   1.00
H306   H     0.92661   0.80403   0.28363   0.00000  Uiso   1.00
H307   H     0.90846   0.02148   0.47426   0.00000  Uiso   1.00
H308   H     0.90241   0.13887   0.40176   0.00000  Uiso   1.00
H309   H     0.83901   0.99349   0.59901   0.00000  Uiso   1.00
H310   H     0.99824   0.93498   0.43021   0.00000  Uiso   1.00
H311   H     0.87315   0.26442   0.30854   0.00000  Uiso   1.00
H312   H     0.73947   0.95784   0.72446   0.00000  Uiso   1.00
H313   H     0.07525   0.83448   0.36851   0.00000  Uiso   1.00
O314   O     0.79170   0.32578   0.21663   0.00000  Uiso   1.00
O315   O     0.61633   0.92356   0.76230   0.00000  Uiso   1.00
O316   O     0.05686   0.76171   0.29530   0.00000  Uiso   1.00
N317   N     0.76033   0.22502   0.25357   0.00000  Uiso   1.00
N318   N     0.63535   0.93840   0.64243   0.00000  Uiso   1.00
N319   N     0.94927   0.82305   0.30967   0.00000  Uiso   1.00
N320   N     0.84031   0.24140   0.29925   0.00000  Uiso   1.00
N321   N     0.71533   0.95479   0.68811   0.00000  Uiso   1.00
N322   N     0.02925   0.83944   0.35534   0.00000  Uiso   1.00
C323   C     0.22222   0.74356   0.36922   0.00000  Uiso   1.00
C324   C     0.16985   0.76791   0.42501   0.00000  Uiso   1.00
C325   C     0.12063   0.73502   0.47207   0.00000  Uiso   1.00
C326   C     0.07752   0.76551   0.51902   0.00000  Uiso   1.00
C327   C     0.99531   0.79399   0.60569   0.00000  Uiso   1.00
C328   C     0.29200   0.74756   0.38197   0.00000  Uiso   1.00
C329   C     0.34549   0.69757   0.39283   0.00000  Uiso   1.00
C330   C     0.40520   0.71094   0.40354   0.00000  Uiso   1.00
C331   C     0.51265   0.70785   0.42334   0.00000  Uiso   1.00
C332   C     0.21233   0.79240   0.30047   0.00000  Uiso   1.00
C333   C     0.19885   0.78011   0.24280   0.00000  Uiso   1.00
C334   C     0.19150   0.83123   0.18489   0.00000  Uiso   1.00
C335   C     0.17525   0.89775   0.07816   0.00000  Uiso   1.00
C336   C     0.23316   0.85619   0.36891   0.00000  Uiso   1.00
C337   C     0.17579   0.82908   0.42484   0.00000  Uiso   1.00
C338   C     0.13273   0.85963   0.47173   0.00000  Uiso   1.00
C339   C     0.08347   0.82680   0.51885   0.00000  Uiso   1.00
C340   C     0.29794   0.80873   0.38180   0.00000  Uiso   1.00
C341   C     0.35759   0.82218   0.39249   0.00000  Uiso   1.00
C342   C     0.41115   0.77223   0.40337   0.00000  Uiso   1.00
C343   C     0.21826   0.85357   0.30030   0.00000  Uiso   1.00
C344   C     0.21094   0.90472   0.24246   0.00000  Uiso   1.00
C345   C     0.19745   0.89251   0.18472   0.00000  Uiso   1.00
H346   H     0.21760   0.69594   0.36935   0.00000  Uiso   1.00
H347   H     0.11606   0.68768   0.47219   0.00000  Uiso   1.00
H348   H     0.34088   0.65024   0.39295   0.00000  Uiso   1.00
H349   H     0.19426   0.73277   0.24295   0.00000  Uiso   1.00
H350   H     0.00611   0.70549   0.58614   0.00000  Uiso   1.00
H351   H     0.48016   0.62656   0.41905   0.00000  Uiso   1.00
H352   H     0.17099   0.80057   0.10274   0.00000  Uiso   1.00
H353   H     0.23779   0.90382   0.36878   0.00000  Uiso   1.00
H354   H     0.13734   0.90697   0.47158   0.00000  Uiso   1.00
H355   H     0.36217   0.86953   0.39235   0.00000  Uiso   1.00
H356   H     0.21554   0.95205   0.24235   0.00000  Uiso   1.00
H357   H     0.02339   0.88348   0.58565   0.00000  Uiso   1.00
H358   H     0.49745   0.80454   0.41856   0.00000  Uiso   1.00
H359   H     0.18827   0.97856   0.10225   0.00000  Uiso   1.00
O360   O     0.94833   0.79280   0.65355   0.00000  Uiso   1.00
O361   O     0.57027   0.68924   0.43432   0.00000  Uiso   1.00
O362   O     0.16463   0.91755   0.01933   0.00000  Uiso   1.00
N363   N     0.02396   0.74696   0.57191   0.00000  Uiso   1.00
N364   N     0.46716   0.67315   0.41570   0.00000  Uiso   1.00
N365   N     0.17812   0.83584   0.11997   0.00000  Uiso   1.00
N366   N     0.03325   0.84273   0.57165   0.00000  Uiso   1.00
N367   N     0.47646   0.76892   0.41544   0.00000  Uiso   1.00
N368   N     0.18742   0.93161   0.11971   0.00000  Uiso   1.00
C369   C     0.18157   0.11755   0.02602   0.00000  Uiso   1.00
C370   C     0.24394   0.07294   0.05165   0.00000  Uiso   1.00
C371   C     0.29471   0.03943   0.01286   0.00000  Uiso   1.00
C372   C     0.34754   0.00113   0.04574   0.00000  Uiso   1.00
C373   C     0.44410   0.93257   0.07499   0.00000  Uiso   1.00
C374   C     0.18364   0.18116   0.03761   0.00000  Uiso   1.00
C375   C     0.18371   0.23865   0.98702   0.00000  Uiso   1.00
C376   C     0.18578   0.29145   0.00810   0.00000  Uiso   1.00
C377   C     0.18869   0.39092   0.01557   0.00000  Uiso   1.00
C378   C     0.11954   0.09279   0.07609   0.00000  Uiso   1.00
C379   C     0.06570   0.07598   0.05785   0.00000  Uiso   1.00
C380   C     0.01379   0.05439   0.11131   0.00000  Uiso   1.00
C381   C     0.91718   0.01664   0.17852   0.00000  Uiso   1.00
C382   C     0.18510   0.10911   0.15339   0.00000  Uiso   1.00
C383   C     0.24585   0.06835   0.12083   0.00000  Uiso   1.00
C384   C     0.29861   0.03009   0.15378   0.00000  Uiso   1.00
C385   C     0.34946   0.99653   0.11505   0.00000  Uiso   1.00
C386   C     0.18556   0.17658   0.10679   0.00000  Uiso   1.00
C387   C     0.18762   0.22930   0.12794   0.00000  Uiso   1.00
C388   C     0.18770   0.28685   0.07740   0.00000  Uiso   1.00
C389   C     0.12146   0.08820   0.14527   0.00000  Uiso   1.00
C390   C     0.06961   0.06663   0.19877   0.00000  Uiso   1.00
C391   C     0.01571   0.04979   0.18062   0.00000  Uiso   1.00
H392   H     0.18008   0.12113   0.97216   0.00000  Uiso   1.00
H393   H     0.29321   0.04300   0.95932   0.00000  Uiso   1.00
H394   H     0.18222   0.24218   0.93349   0.00000  Uiso   1.00
H395   H     0.06424   0.07954   0.00431   0.00000  Uiso   1.00
H396   H     0.41950   0.95437   0.97558   0.00000  Uiso   1.00
H397   H     0.18546   0.37436   0.92113   0.00000  Uiso   1.00
H398   H     0.93666   0.03140   0.07046   0.00000  Uiso   1.00
H399   H     0.18659   0.10554   0.20725   0.00000  Uiso   1.00
H400   H     0.30008   0.02655   0.20732   0.00000  Uiso   1.00
H401   H     0.18910   0.22574   0.18149   0.00000  Uiso   1.00
H402   H     0.07111   0.06309   0.25230   0.00000  Uiso   1.00
H403   H     0.42508   0.94102   0.17687   0.00000  Uiso   1.00
H404   H     0.19104   0.36102   0.12241   0.00000  Uiso   1.00
H405   H     0.94224   0.01805   0.27174   0.00000  Uiso   1.00
O406   O     0.49685   0.89603   0.07202   0.00000  Uiso   1.00
O407   O     0.18978   0.44705   0.00058   0.00000  Uiso   1.00
O408   O     0.86336   0.99708   0.19649   0.00000  Uiso   1.00
N409   N     0.40523   0.96206   0.02295   0.00000  Uiso   1.00
N410   N     0.18643   0.35473   0.97204   0.00000  Uiso   1.00
N411   N     0.95381   0.03410   0.11164   0.00000  Uiso   1.00
N412   N     0.40823   0.95487   0.13126   0.00000  Uiso   1.00
N413   N     0.18943   0.34754   0.08035   0.00000  Uiso   1.00
N414   N     0.95681   0.02691   0.21995   0.00000  Uiso   1.00
C415   C     0.39829   0.62643   0.84739   0.00000  Uiso   1.00
C416   C     0.39368   0.57259   0.91406   0.00000  Uiso   1.00
C417   C     0.33686   0.54312   0.94632   0.00000  Uiso   1.00
C418   C     0.34290   0.49484   0.00692   0.00000  Uiso   1.00
C419   C     0.32650   0.41402   0.10631   0.00000  Uiso   1.00
C420   C     0.41880   0.68045   0.86521   0.00000  Uiso   1.00
C421   C     0.38311   0.74168   0.85640   0.00000  Uiso   1.00
C422   C     0.41030   0.78420   0.87587   0.00000  Uiso   1.00
C423   C     0.43291   0.87086   0.89938   0.00000  Uiso   1.00
C424   C     0.45897   0.60339   0.79732   0.00000  Uiso   1.00
C425   C     0.45707   0.59984   0.73141   0.00000  Uiso   1.00
C426   C     0.51809   0.57749   0.69371   0.00000  Uiso   1.00
C427   C     0.60308   0.54449   0.61180   0.00000  Uiso   1.00
C428   C     0.51004   0.59307   0.89762   0.00000  Uiso   1.00
C429   C     0.45438   0.55447   0.94134   0.00000  Uiso   1.00
C430   C     0.46050   0.50622   0.00190   0.00000  Uiso   1.00
C431   C     0.40371   0.47669   0.03425   0.00000  Uiso   1.00
C432   C     0.47949   0.66234   0.89250   0.00000  Uiso   1.00
C433   C     0.50674   0.70478   0.91198   0.00000  Uiso   1.00
C434   C     0.47110   0.76606   0.90321   0.00000  Uiso   1.00
C435   C     0.51967   0.58527   0.82460   0.00000  Uiso   1.00
C436   C     0.58070   0.56293   0.78699   0.00000  Uiso   1.00
C437   C     0.57889   0.55935   0.72104   0.00000  Uiso   1.00
H438   H     0.35103   0.64053   0.82614   0.00000  Uiso   1.00
H439   H     0.28990   0.55716   0.92520   0.00000  Uiso   1.00
H440   H     0.33614   0.75569   0.83528   0.00000  Uiso   1.00
H441   H     0.41009   0.61386   0.71031   0.00000  Uiso   1.00
H442   H     0.24888   0.45675   0.04706   0.00000  Uiso   1.00
H443   H     0.34639   0.87536   0.85745   0.00000  Uiso   1.00
H444   H     0.50233   0.57630   0.59392   0.00000  Uiso   1.00
H445   H     0.55730   0.57897   0.91886   0.00000  Uiso   1.00
H446   H     0.50748   0.49221   0.02301   0.00000  Uiso   1.00
H447   H     0.55372   0.69074   0.93309   0.00000  Uiso   1.00
H448   H     0.62767   0.54892   0.80812   0.00000  Uiso   1.00
H449   H     0.42547   0.40404   0.12645   0.00000  Uiso   1.00
H450   H     0.52299   0.82266   0.93683   0.00000  Uiso   1.00
H451   H     0.67892   0.52359   0.67331   0.00000  Uiso   1.00
O452   O     0.30068   0.37445   0.15360   0.00000  Uiso   1.00
O453   O     0.42861   0.92366   0.90482   0.00000  Uiso   1.00
O454   O     0.63320   0.53129   0.55909   0.00000  Uiso   1.00
N455   N     0.29728   0.45624   0.05144   0.00000  Uiso   1.00
N456   N     0.38844   0.84762   0.87418   0.00000  Uiso   1.00
N457   N     0.53424   0.56804   0.62780   0.00000  Uiso   1.00
N458   N     0.39231   0.42788   0.09416   0.00000  Uiso   1.00
N459   N     0.48347   0.81925   0.91690   0.00000  Uiso   1.00
N460   N     0.62926   0.53967   0.67052   0.00000  Uiso   1.00
C461   C     0.82326   0.53141   0.60293   0.00000  Uiso   1.00
C462   C     0.81500   0.55008   0.67022   0.00000  Uiso   1.00
C463   C     0.76487   0.59626   0.69154   0.00000  Uiso   1.00
C464   C     0.76602   0.60628   0.75480   0.00000  Uiso   1.00
C465   C     0.74568   0.64061   0.85313   0.00000  Uiso   1.00
C466   C     0.89581   0.53975   0.56535   0.00000  Uiso   1.00
C467   C     0.91361   0.57722   0.49848   0.00000  Uiso   1.00
C468   C     0.98278   0.57853   0.47346   0.00000  Uiso   1.00
C469   C     0.08789   0.59677   0.40894   0.00000  Uiso   1.00
C470   C     0.82148   0.46032   0.62422   0.00000  Uiso   1.00
C471   C     0.77680   0.43101   0.60684   0.00000  Uiso   1.00
C472   C     0.78340   0.36545   0.63137   0.00000  Uiso   1.00
C473   C     0.77310   0.26038   0.65826   0.00000  Uiso   1.00
C474   C     0.91445   0.46709   0.67736   0.00000  Uiso   1.00
C475   C     0.86454   0.51515   0.71065   0.00000  Uiso   1.00
C476   C     0.86576   0.52509   0.77390   0.00000  Uiso   1.00
C477   C     0.81564   0.57127   0.79531   0.00000  Uiso   1.00
C478   C     0.94534   0.50481   0.60577   0.00000  Uiso   1.00
C479   C     0.01450   0.50606   0.58084   0.00000  Uiso   1.00
C480   C     0.03240   0.54353   0.51396   0.00000  Uiso   1.00
C481   C     0.87101   0.42538   0.66465   0.00000  Uiso   1.00
C482   C     0.87769   0.35985   0.68920   0.00000  Uiso   1.00
C483   C     0.83302   0.33045   0.67187   0.00000  Uiso   1.00
H484   H     0.78471   0.55861   0.57145   0.00000  Uiso   1.00
H485   H     0.72655   0.62329   0.66024   0.00000  Uiso   1.00
H486   H     0.87527   0.60425   0.46721   0.00000  Uiso   1.00
H487   H     0.73847   0.45807   0.57555   0.00000  Uiso   1.00
H488   H     0.68393   0.67961   0.77650   0.00000  Uiso   1.00
H489   H     0.99751   0.63944   0.36947   0.00000  Uiso   1.00
H490   H     0.70906   0.33119   0.59794   0.00000  Uiso   1.00
H491   H     0.95302   0.43988   0.70884   0.00000  Uiso   1.00
H492   H     0.90410   0.49805   0.80517   0.00000  Uiso   1.00
H493   H     0.05281   0.47901   0.61214   0.00000  Uiso   1.00
H494   H     0.91602   0.33283   0.72048   0.00000  Uiso   1.00
H495   H     0.82804   0.57796   0.89413   0.00000  Uiso   1.00
H496   H     0.14162   0.53779   0.48710   0.00000  Uiso   1.00
H497   H     0.85316   0.22954   0.71557   0.00000  Uiso   1.00
O498   O     0.72078   0.66921   0.89619   0.00000  Uiso   1.00
O499   O     0.13218   0.61650   0.36219   0.00000  Uiso   1.00
O500   O     0.75374   0.21208   0.66193   0.00000  Uiso   1.00
N501   N     0.72455   0.64770   0.79097   0.00000  Uiso   1.00
N502   N     0.01773   0.61015   0.41043   0.00000  Uiso   1.00
N503   N     0.74806   0.32196   0.62401   0.00000  Uiso   1.00
N504   N     0.80210   0.59300   0.85426   0.00000  Uiso   1.00
N505   N     0.09527   0.55545   0.47372   0.00000  Uiso   1.00
N506   N     0.82560   0.26726   0.68730   0.00000  Uiso   1.00
C507   C     0.74022   0.23374   0.90788   0.00000  Uiso   1.00
C508   C     0.79800   0.26890   0.90412   0.00000  Uiso   1.00
C509   C     0.86525   0.25570   0.87240   0.00000  Uiso   1.00
C510   C     0.91040   0.29331   0.87460   0.00000  Uiso   1.00
C511   C     0.00339   0.34043   0.86381   0.00000  Uiso   1.00
C512   C     0.71129   0.21026   0.98481   0.00000  Uiso   1.00
C513   C     0.70562   0.14774   0.02093   0.00000  Uiso   1.00
C514   C     0.67777   0.13599   0.09106   0.00000  Uiso   1.00
C515   C     0.63610   0.09206   0.20553   0.00000  Uiso   1.00
C516   C     0.68437   0.28393   0.87604   0.00000  Uiso   1.00
C517   C     0.65604   0.28335   0.82072   0.00000  Uiso   1.00
C518   C     0.60551   0.33362   0.79928   0.00000  Uiso   1.00
C519   C     0.52202   0.40409   0.74487   0.00000  Uiso   1.00
C520   C     0.70083   0.32403   0.96819   0.00000  Uiso   1.00
C521   C     0.77661   0.31795   0.93688   0.00000  Uiso   1.00
C522   C     0.82168   0.35559   0.93913   0.00000  Uiso   1.00
C523   C     0.88897   0.34244   0.90741   0.00000  Uiso   1.00
C524   C     0.68990   0.25930   0.01757   0.00000  Uiso   1.00
C525   C     0.66205   0.24764   0.08766   0.00000  Uiso   1.00
C526   C     0.65635   0.18512   0.12387   0.00000  Uiso   1.00
C527   C     0.66297   0.33298   0.90880   0.00000  Uiso   1.00
C528   C     0.61247   0.38325   0.88744   0.00000  Uiso   1.00
C529   C     0.58408   0.38275   0.83210   0.00000  Uiso   1.00
H530   H     0.75687   0.19556   0.88238   0.00000  Uiso   1.00
H531   H     0.88178   0.21773   0.84706   0.00000  Uiso   1.00
H532   H     0.72217   0.10980   0.99557   0.00000  Uiso   1.00
H533   H     0.67260   0.24539   0.79538   0.00000  Uiso   1.00
H534   H     0.01084   0.26394   0.82237   0.00000  Uiso   1.00
H535   H     0.67428   0.03635   0.13550   0.00000  Uiso   1.00
H536   H     0.56975   0.32227   0.71337   0.00000  Uiso   1.00
H537   H     0.68418   0.36222   0.99369   0.00000  Uiso   1.00
H538   H     0.80511   0.39354   0.96448   0.00000  Uiso   1.00
H539   H     0.64550   0.28560   0.11299   0.00000  Uiso   1.00
H540   H     0.59593   0.42120   0.91280   0.00000  Uiso   1.00
H541   H     0.94861   0.40663   0.91768   0.00000  Uiso   1.00
H542   H     0.61205   0.17904   0.23080   0.00000  Uiso   1.00
H543   H     0.50752   0.46496   0.80868   0.00000  Uiso   1.00
O544   O     0.06059   0.35287   0.84882   0.00000  Uiso   1.00
O545   O     0.61903   0.05428   0.25962   0.00000  Uiso   1.00
O546   O     0.48189   0.42941   0.70580   0.00000  Uiso   1.00
N547   N     0.97960   0.29323   0.84880   0.00000  Uiso   1.00
N548   N     0.66494   0.08044   0.14156   0.00000  Uiso   1.00
N549   N     0.56720   0.34775   0.74692   0.00000  Uiso   1.00
N550   N     0.94611   0.37001   0.90008   0.00000  Uiso   1.00
N551   N     0.63146   0.15722   0.19284   0.00000  Uiso   1.00
N552   N     0.53372   0.42453   0.79820   0.00000  Uiso   1.00
