data_job_03783
_audit_creation_date              2018-12-19
_audit_creation_method            'Materials Studio'
_symmetry_space_group_name_H-M    'P1'
_symmetry_Int_Tables_number       1
_symmetry_cell_setting            triclinic
loop_
_symmetry_equiv_pos_as_xyz
  x,y,z
_cell_length_a                    16.9533
_cell_length_b                    18.6461
_cell_length_c                    22.9296
_cell_angle_alpha                 90.0000
_cell_angle_beta                  90.0000
_cell_angle_gamma                 90.0000
loop_
_atom_site_label
_atom_site_type_symbol
_atom_site_fract_x
_atom_site_fract_y
_atom_site_fract_z
_atom_site_U_iso_or_equiv
_atom_site_adp_type
_atom_site_occupancy
C1     C     0.20066   0.83040   0.67711   0.00000  Uiso   1.00
C2     C     0.15567   0.76195   0.66236   0.00000  Uiso   1.00
C3     C     0.18929   0.69601   0.64932   0.00000  Uiso   1.00
C4     C     0.13802   0.63995   0.63701   0.00000  Uiso   1.00
C5     C     0.08063   0.53220   0.61397   0.00000  Uiso   1.00
C6     C     0.17291   0.88669   0.63344   0.00000  Uiso   1.00
C7     C     0.22103   0.92564   0.59609   0.00000  Uiso   1.00
C8     C     0.18428   0.97460   0.55944   0.00000  Uiso   1.00
C9     C     0.15366   0.06055   0.49153   0.00000  Uiso   1.00
C10    C     0.17003   0.85471   0.73643   0.00000  Uiso   1.00
C11    C     0.21573   0.86679   0.78568   0.00000  Uiso   1.00
C12    C     0.17655   0.88884   0.83574   0.00000  Uiso   1.00
C13    C     0.14146   0.92513   0.92774   0.00000  Uiso   1.00
C14    C     0.04984   0.84811   0.67843   0.00000  Uiso   1.00
C15    C     0.07375   0.77156   0.66308   0.00000  Uiso   1.00
C16    C     0.02242   0.71559   0.65079   0.00000  Uiso   1.00
C17    C     0.05595   0.64958   0.63773   0.00000  Uiso   1.00
C18    C     0.09100   0.89631   0.63416   0.00000  Uiso   1.00
C19    C     0.05417   0.94522   0.59756   0.00000  Uiso   1.00
C20    C     0.10221   0.98423   0.56016   0.00000  Uiso   1.00
C21    C     0.08811   0.86432   0.73715   0.00000  Uiso   1.00
C22    C     0.04886   0.88637   0.78715   0.00000  Uiso   1.00
C23    C     0.09448   0.89847   0.83646   0.00000  Uiso   1.00
H24    H     0.26444   0.82292   0.67654   0.00000  Uiso   1.00
H25    H     0.25269   0.68859   0.64876   0.00000  Uiso   1.00
H26    H     0.28442   0.91819   0.59555   0.00000  Uiso   1.00
H27    H     0.27912   0.85934   0.78511   0.00000  Uiso   1.00
H28    H     0.20353   0.54390   0.61825   0.00000  Uiso   1.00
H29    H     0.27046   0.02805   0.50606   0.00000  Uiso   1.00
H30    H     0.25927   0.90395   0.90579   0.00000  Uiso   1.00
H31    H     0.98606   0.85559   0.67899   0.00000  Uiso   1.00
H32    H     0.95903   0.72305   0.65135   0.00000  Uiso   1.00
H33    H     0.99077   0.95265   0.59813   0.00000  Uiso   1.00
H34    H     0.98547   0.89380   0.78769   0.00000  Uiso   1.00
H35    H     0.96519   0.57187   0.62035   0.00000  Uiso   1.00
H36    H     0.03212   0.05602   0.50816   0.00000  Uiso   1.00
H37    H     0.02093   0.93192   0.90788   0.00000  Uiso   1.00
O38    O     0.07161   0.47011   0.60105   0.00000  Uiso   1.00
O39    O     0.15941   0.10530   0.45387   0.00000  Uiso   1.00
O40    O     0.14474   0.94249   0.97829   0.00000  Uiso   1.00
N41    N     0.15115   0.56867   0.62255   0.00000  Uiso   1.00
N42    N     0.21372   0.02131   0.51766   0.00000  Uiso   1.00
N43    N     0.20326   0.90531   0.89136   0.00000  Uiso   1.00
N44    N     0.02290   0.58372   0.62368   0.00000  Uiso   1.00
N45    N     0.08547   0.03636   0.51878   0.00000  Uiso   1.00
N46    N     0.07501   0.92036   0.89249   0.00000  Uiso   1.00
C47    C     0.29934   0.16960   0.17711   0.00000  Uiso   1.00
C48    C     0.34433   0.23805   0.16236   0.00000  Uiso   1.00
C49    C     0.31071   0.30399   0.14932   0.00000  Uiso   1.00
C50    C     0.36198   0.36005   0.13701   0.00000  Uiso   1.00
C51    C     0.41937   0.46780   0.11397   0.00000  Uiso   1.00
C52    C     0.32709   0.11331   0.13344   0.00000  Uiso   1.00
C53    C     0.27897   0.07436   0.09609   0.00000  Uiso   1.00
C54    C     0.31572   0.02540   0.05944   0.00000  Uiso   1.00
C55    C     0.34634   0.93945   0.99153   0.00000  Uiso   1.00
C56    C     0.32997   0.14529   0.23643   0.00000  Uiso   1.00
C57    C     0.28427   0.13321   0.28568   0.00000  Uiso   1.00
C58    C     0.32345   0.11116   0.33574   0.00000  Uiso   1.00
C59    C     0.35854   0.07487   0.42774   0.00000  Uiso   1.00
C60    C     0.45016   0.15189   0.17843   0.00000  Uiso   1.00
C61    C     0.42625   0.22844   0.16308   0.00000  Uiso   1.00
C62    C     0.47758   0.28441   0.15079   0.00000  Uiso   1.00
C63    C     0.44405   0.35042   0.13773   0.00000  Uiso   1.00
C64    C     0.40900   0.10369   0.13416   0.00000  Uiso   1.00
C65    C     0.44583   0.05478   0.09756   0.00000  Uiso   1.00
C66    C     0.39779   0.01577   0.06016   0.00000  Uiso   1.00
C67    C     0.41189   0.13568   0.23715   0.00000  Uiso   1.00
C68    C     0.45114   0.11363   0.28715   0.00000  Uiso   1.00
C69    C     0.40552   0.10153   0.33646   0.00000  Uiso   1.00
H70    H     0.23556   0.17708   0.17654   0.00000  Uiso   1.00
H71    H     0.24731   0.31141   0.14876   0.00000  Uiso   1.00
H72    H     0.21558   0.08181   0.09555   0.00000  Uiso   1.00
H73    H     0.22088   0.14066   0.28511   0.00000  Uiso   1.00
H74    H     0.29647   0.45610   0.11825   0.00000  Uiso   1.00
H75    H     0.22954   0.97195   0.00606   0.00000  Uiso   1.00
H76    H     0.24073   0.09605   0.40579   0.00000  Uiso   1.00
H77    H     0.51394   0.14441   0.17899   0.00000  Uiso   1.00
H78    H     0.54097   0.27695   0.15135   0.00000  Uiso   1.00
H79    H     0.50923   0.04735   0.09813   0.00000  Uiso   1.00
H80    H     0.51453   0.10620   0.28769   0.00000  Uiso   1.00
H81    H     0.53481   0.42813   0.12035   0.00000  Uiso   1.00
H82    H     0.46788   0.94398   0.00816   0.00000  Uiso   1.00
H83    H     0.47907   0.06808   0.40788   0.00000  Uiso   1.00
O84    O     0.42839   0.52989   0.10105   0.00000  Uiso   1.00
O85    O     0.34059   0.89470   0.95387   0.00000  Uiso   1.00
O86    O     0.35526   0.05751   0.47829   0.00000  Uiso   1.00
N87    N     0.34885   0.43133   0.12255   0.00000  Uiso   1.00
N88    N     0.28628   0.97869   0.01766   0.00000  Uiso   1.00
N89    N     0.29674   0.09469   0.39136   0.00000  Uiso   1.00
N90    N     0.47710   0.41628   0.12368   0.00000  Uiso   1.00
N91    N     0.41453   0.96364   0.01878   0.00000  Uiso   1.00
N92    N     0.42499   0.07964   0.39249   0.00000  Uiso   1.00
C93    C     0.79934   0.33040   0.82289   0.00000  Uiso   1.00
C94    C     0.84433   0.26195   0.83764   0.00000  Uiso   1.00
C95    C     0.81071   0.19601   0.85068   0.00000  Uiso   1.00
C96    C     0.86198   0.13995   0.86299   0.00000  Uiso   1.00
C97    C     0.91937   0.03220   0.88603   0.00000  Uiso   1.00
C98    C     0.82709   0.38669   0.86656   0.00000  Uiso   1.00
C99    C     0.77897   0.42564   0.90391   0.00000  Uiso   1.00
C100   C     0.81572   0.47460   0.94056   0.00000  Uiso   1.00
C101   C     0.84634   0.56055   0.00847   0.00000  Uiso   1.00
C102   C     0.82997   0.35471   0.76357   0.00000  Uiso   1.00
C103   C     0.78427   0.36679   0.71432   0.00000  Uiso   1.00
C104   C     0.82345   0.38884   0.66426   0.00000  Uiso   1.00
C105   C     0.85854   0.42513   0.57226   0.00000  Uiso   1.00
C106   C     0.95016   0.34811   0.82157   0.00000  Uiso   1.00
C107   C     0.92625   0.27156   0.83692   0.00000  Uiso   1.00
C108   C     0.97758   0.21559   0.84921   0.00000  Uiso   1.00
C109   C     0.94405   0.14958   0.86227   0.00000  Uiso   1.00
C110   C     0.90900   0.39631   0.86584   0.00000  Uiso   1.00
C111   C     0.94583   0.44522   0.90244   0.00000  Uiso   1.00
C112   C     0.89779   0.48423   0.93984   0.00000  Uiso   1.00
C113   C     0.91189   0.36432   0.76285   0.00000  Uiso   1.00
C114   C     0.95114   0.38637   0.71285   0.00000  Uiso   1.00
C115   C     0.90552   0.39847   0.66354   0.00000  Uiso   1.00
H116   H     0.73556   0.32292   0.82346   0.00000  Uiso   1.00
H117   H     0.74731   0.18859   0.85124   0.00000  Uiso   1.00
H118   H     0.71558   0.41819   0.90445   0.00000  Uiso   1.00
H119   H     0.72088   0.35934   0.71489   0.00000  Uiso   1.00
H120   H     0.79647   0.04390   0.88175   0.00000  Uiso   1.00
H121   H     0.72954   0.52805   0.99394   0.00000  Uiso   1.00
H122   H     0.74073   0.40395   0.59421   0.00000  Uiso   1.00
H123   H     0.01394   0.35559   0.82101   0.00000  Uiso   1.00
H124   H     0.04097   0.22305   0.84865   0.00000  Uiso   1.00
H125   H     0.00923   0.45265   0.90187   0.00000  Uiso   1.00
H126   H     0.01453   0.39380   0.71231   0.00000  Uiso   1.00
H127   H     0.03481   0.07187   0.87965   0.00000  Uiso   1.00
H128   H     0.96788   0.55602   0.99184   0.00000  Uiso   1.00
H129   H     0.97907   0.43192   0.59212   0.00000  Uiso   1.00
O130   O     0.92839   0.97011   0.89895   0.00000  Uiso   1.00
O131   O     0.84059   0.60530   0.04613   0.00000  Uiso   1.00
O132   O     0.85526   0.44249   0.52171   0.00000  Uiso   1.00
N133   N     0.84885   0.06867   0.87745   0.00000  Uiso   1.00
N134   N     0.78628   0.52131   0.98234   0.00000  Uiso   1.00
N135   N     0.79674   0.40531   0.60864   0.00000  Uiso   1.00
N136   N     0.97710   0.08372   0.87632   0.00000  Uiso   1.00
N137   N     0.91453   0.53636   0.98122   0.00000  Uiso   1.00
N138   N     0.92499   0.42036   0.60751   0.00000  Uiso   1.00
C139   C     0.70066   0.66960   0.32289   0.00000  Uiso   1.00
C140   C     0.65567   0.73805   0.33764   0.00000  Uiso   1.00
C141   C     0.68929   0.80399   0.35068   0.00000  Uiso   1.00
C142   C     0.63802   0.86005   0.36299   0.00000  Uiso   1.00
C143   C     0.58063   0.96780   0.38603   0.00000  Uiso   1.00
C144   C     0.67291   0.61331   0.36656   0.00000  Uiso   1.00
C145   C     0.72103   0.57436   0.40391   0.00000  Uiso   1.00
C146   C     0.68428   0.52540   0.44056   0.00000  Uiso   1.00
C147   C     0.65366   0.43945   0.50847   0.00000  Uiso   1.00
C148   C     0.67003   0.64529   0.26357   0.00000  Uiso   1.00
C149   C     0.71573   0.63321   0.21432   0.00000  Uiso   1.00
C150   C     0.67655   0.61116   0.16426   0.00000  Uiso   1.00
C151   C     0.64146   0.57487   0.07226   0.00000  Uiso   1.00
C152   C     0.54984   0.65189   0.32157   0.00000  Uiso   1.00
C153   C     0.57375   0.72844   0.33692   0.00000  Uiso   1.00
C154   C     0.52242   0.78441   0.34921   0.00000  Uiso   1.00
C155   C     0.55595   0.85042   0.36227   0.00000  Uiso   1.00
C156   C     0.59100   0.60369   0.36584   0.00000  Uiso   1.00
C157   C     0.55417   0.55478   0.40244   0.00000  Uiso   1.00
C158   C     0.60221   0.51577   0.43984   0.00000  Uiso   1.00
C159   C     0.58811   0.63568   0.26285   0.00000  Uiso   1.00
C160   C     0.54886   0.61363   0.21285   0.00000  Uiso   1.00
C161   C     0.59448   0.60153   0.16354   0.00000  Uiso   1.00
H162   H     0.76444   0.67708   0.32346   0.00000  Uiso   1.00
H163   H     0.75269   0.81141   0.35124   0.00000  Uiso   1.00
H164   H     0.78442   0.58181   0.40445   0.00000  Uiso   1.00
H165   H     0.77912   0.64066   0.21489   0.00000  Uiso   1.00
H166   H     0.70353   0.95610   0.38175   0.00000  Uiso   1.00
H167   H     0.77046   0.47195   0.49394   0.00000  Uiso   1.00
H168   H     0.75927   0.59605   0.09421   0.00000  Uiso   1.00
H169   H     0.48606   0.64441   0.32101   0.00000  Uiso   1.00
H170   H     0.45903   0.77695   0.34865   0.00000  Uiso   1.00
H171   H     0.49077   0.54735   0.40187   0.00000  Uiso   1.00
H172   H     0.48547   0.60620   0.21231   0.00000  Uiso   1.00
H173   H     0.46519   0.92813   0.37965   0.00000  Uiso   1.00
H174   H     0.53212   0.44398   0.49184   0.00000  Uiso   1.00
H175   H     0.52093   0.56808   0.09212   0.00000  Uiso   1.00
O176   O     0.57161   0.02989   0.39895   0.00000  Uiso   1.00
O177   O     0.65941   0.39470   0.54613   0.00000  Uiso   1.00
O178   O     0.64474   0.55751   0.02171   0.00000  Uiso   1.00
N179   N     0.65115   0.93133   0.37745   0.00000  Uiso   1.00
N180   N     0.71372   0.47869   0.48234   0.00000  Uiso   1.00
N181   N     0.70326   0.59469   0.10864   0.00000  Uiso   1.00
N182   N     0.52290   0.91628   0.37632   0.00000  Uiso   1.00
N183   N     0.58547   0.46364   0.48122   0.00000  Uiso   1.00
N184   N     0.57501   0.57964   0.10751   0.00000  Uiso   1.00
C185   C     0.79934   0.16960   0.32289   0.00000  Uiso   1.00
C186   C     0.84433   0.23805   0.33764   0.00000  Uiso   1.00
C187   C     0.81071   0.30399   0.35068   0.00000  Uiso   1.00
C188   C     0.86198   0.36005   0.36299   0.00000  Uiso   1.00
C189   C     0.91937   0.46780   0.38603   0.00000  Uiso   1.00
C190   C     0.82709   0.11331   0.36656   0.00000  Uiso   1.00
C191   C     0.77897   0.07436   0.40391   0.00000  Uiso   1.00
C192   C     0.81572   0.02540   0.44056   0.00000  Uiso   1.00
C193   C     0.84634   0.93945   0.50847   0.00000  Uiso   1.00
C194   C     0.82997   0.14529   0.26357   0.00000  Uiso   1.00
C195   C     0.78427   0.13321   0.21432   0.00000  Uiso   1.00
C196   C     0.82345   0.11116   0.16426   0.00000  Uiso   1.00
C197   C     0.85854   0.07487   0.07226   0.00000  Uiso   1.00
C198   C     0.95016   0.15189   0.32157   0.00000  Uiso   1.00
C199   C     0.92625   0.22844   0.33692   0.00000  Uiso   1.00
C200   C     0.97758   0.28441   0.34921   0.00000  Uiso   1.00
C201   C     0.94405   0.35042   0.36227   0.00000  Uiso   1.00
C202   C     0.90900   0.10369   0.36584   0.00000  Uiso   1.00
C203   C     0.94583   0.05478   0.40244   0.00000  Uiso   1.00
C204   C     0.89779   0.01577   0.43984   0.00000  Uiso   1.00
C205   C     0.91189   0.13568   0.26285   0.00000  Uiso   1.00
C206   C     0.95114   0.11363   0.21285   0.00000  Uiso   1.00
C207   C     0.90552   0.10153   0.16354   0.00000  Uiso   1.00
H208   H     0.73556   0.17708   0.32346   0.00000  Uiso   1.00
H209   H     0.74731   0.31141   0.35124   0.00000  Uiso   1.00
H210   H     0.71558   0.08181   0.40445   0.00000  Uiso   1.00
H211   H     0.72088   0.14066   0.21489   0.00000  Uiso   1.00
H212   H     0.79647   0.45610   0.38175   0.00000  Uiso   1.00
H213   H     0.72954   0.97195   0.49394   0.00000  Uiso   1.00
H214   H     0.74073   0.09605   0.09421   0.00000  Uiso   1.00
H215   H     0.01394   0.14441   0.32101   0.00000  Uiso   1.00
H216   H     0.04097   0.27695   0.34865   0.00000  Uiso   1.00
H217   H     0.00923   0.04735   0.40187   0.00000  Uiso   1.00
H218   H     0.01453   0.10620   0.21231   0.00000  Uiso   1.00
H219   H     0.03481   0.42813   0.37965   0.00000  Uiso   1.00
H220   H     0.96788   0.94398   0.49184   0.00000  Uiso   1.00
H221   H     0.97907   0.06808   0.09212   0.00000  Uiso   1.00
O222   O     0.92839   0.52989   0.39895   0.00000  Uiso   1.00
O223   O     0.84059   0.89470   0.54613   0.00000  Uiso   1.00
O224   O     0.85526   0.05751   0.02171   0.00000  Uiso   1.00
N225   N     0.84885   0.43133   0.37745   0.00000  Uiso   1.00
N226   N     0.78628   0.97869   0.48234   0.00000  Uiso   1.00
N227   N     0.79674   0.09469   0.10864   0.00000  Uiso   1.00
N228   N     0.97710   0.41628   0.37632   0.00000  Uiso   1.00
N229   N     0.91453   0.96364   0.48122   0.00000  Uiso   1.00
N230   N     0.92499   0.07964   0.10751   0.00000  Uiso   1.00
C231   C     0.70066   0.83040   0.82289   0.00000  Uiso   1.00
C232   C     0.65567   0.76195   0.83764   0.00000  Uiso   1.00
C233   C     0.68929   0.69601   0.85068   0.00000  Uiso   1.00
C234   C     0.63802   0.63995   0.86299   0.00000  Uiso   1.00
C235   C     0.58063   0.53220   0.88603   0.00000  Uiso   1.00
C236   C     0.67291   0.88669   0.86656   0.00000  Uiso   1.00
C237   C     0.72103   0.92564   0.90391   0.00000  Uiso   1.00
C238   C     0.68428   0.97460   0.94056   0.00000  Uiso   1.00
C239   C     0.65366   0.06055   0.00847   0.00000  Uiso   1.00
C240   C     0.67003   0.85471   0.76357   0.00000  Uiso   1.00
C241   C     0.71573   0.86679   0.71432   0.00000  Uiso   1.00
C242   C     0.67655   0.88884   0.66426   0.00000  Uiso   1.00
C243   C     0.64146   0.92513   0.57226   0.00000  Uiso   1.00
C244   C     0.54984   0.84811   0.82157   0.00000  Uiso   1.00
C245   C     0.57375   0.77156   0.83692   0.00000  Uiso   1.00
C246   C     0.52242   0.71559   0.84921   0.00000  Uiso   1.00
C247   C     0.55595   0.64958   0.86227   0.00000  Uiso   1.00
C248   C     0.59100   0.89631   0.86584   0.00000  Uiso   1.00
C249   C     0.55417   0.94522   0.90244   0.00000  Uiso   1.00
C250   C     0.60221   0.98423   0.93984   0.00000  Uiso   1.00
C251   C     0.58811   0.86432   0.76285   0.00000  Uiso   1.00
C252   C     0.54886   0.88637   0.71285   0.00000  Uiso   1.00
C253   C     0.59448   0.89847   0.66354   0.00000  Uiso   1.00
H254   H     0.76444   0.82292   0.82346   0.00000  Uiso   1.00
H255   H     0.75269   0.68859   0.85124   0.00000  Uiso   1.00
H256   H     0.78442   0.91819   0.90445   0.00000  Uiso   1.00
H257   H     0.77912   0.85934   0.71489   0.00000  Uiso   1.00
H258   H     0.70353   0.54390   0.88175   0.00000  Uiso   1.00
H259   H     0.77046   0.02805   0.99394   0.00000  Uiso   1.00
H260   H     0.75927   0.90395   0.59421   0.00000  Uiso   1.00
H261   H     0.48606   0.85559   0.82101   0.00000  Uiso   1.00
H262   H     0.45903   0.72305   0.84865   0.00000  Uiso   1.00
H263   H     0.49077   0.95265   0.90187   0.00000  Uiso   1.00
H264   H     0.48547   0.89380   0.71231   0.00000  Uiso   1.00
H265   H     0.46519   0.57187   0.87965   0.00000  Uiso   1.00
H266   H     0.53212   0.05602   0.99184   0.00000  Uiso   1.00
H267   H     0.52093   0.93192   0.59212   0.00000  Uiso   1.00
O268   O     0.57161   0.47011   0.89895   0.00000  Uiso   1.00
O269   O     0.65941   0.10530   0.04613   0.00000  Uiso   1.00
O270   O     0.64474   0.94249   0.52171   0.00000  Uiso   1.00
N271   N     0.65115   0.56867   0.87745   0.00000  Uiso   1.00
N272   N     0.71372   0.02131   0.98234   0.00000  Uiso   1.00
N273   N     0.70326   0.90531   0.60864   0.00000  Uiso   1.00
N274   N     0.52290   0.58372   0.87632   0.00000  Uiso   1.00
N275   N     0.58547   0.03636   0.98122   0.00000  Uiso   1.00
N276   N     0.57501   0.92036   0.60751   0.00000  Uiso   1.00
C277   C     0.20066   0.66960   0.17711   0.00000  Uiso   1.00
C278   C     0.15567   0.73805   0.16236   0.00000  Uiso   1.00
C279   C     0.18929   0.80399   0.14932   0.00000  Uiso   1.00
C280   C     0.13802   0.86005   0.13701   0.00000  Uiso   1.00
C281   C     0.08063   0.96780   0.11397   0.00000  Uiso   1.00
C282   C     0.17291   0.61331   0.13344   0.00000  Uiso   1.00
C283   C     0.22103   0.57436   0.09609   0.00000  Uiso   1.00
C284   C     0.18428   0.52540   0.05944   0.00000  Uiso   1.00
C285   C     0.15366   0.43945   0.99153   0.00000  Uiso   1.00
C286   C     0.17003   0.64529   0.23643   0.00000  Uiso   1.00
C287   C     0.21573   0.63321   0.28568   0.00000  Uiso   1.00
C288   C     0.17655   0.61116   0.33574   0.00000  Uiso   1.00
C289   C     0.14146   0.57487   0.42774   0.00000  Uiso   1.00
C290   C     0.04984   0.65189   0.17843   0.00000  Uiso   1.00
C291   C     0.07375   0.72844   0.16308   0.00000  Uiso   1.00
C292   C     0.02242   0.78441   0.15079   0.00000  Uiso   1.00
C293   C     0.05595   0.85042   0.13773   0.00000  Uiso   1.00
C294   C     0.09100   0.60369   0.13416   0.00000  Uiso   1.00
C295   C     0.05417   0.55478   0.09756   0.00000  Uiso   1.00
C296   C     0.10221   0.51577   0.06016   0.00000  Uiso   1.00
C297   C     0.08811   0.63568   0.23715   0.00000  Uiso   1.00
C298   C     0.04886   0.61363   0.28715   0.00000  Uiso   1.00
C299   C     0.09448   0.60153   0.33646   0.00000  Uiso   1.00
H300   H     0.26444   0.67708   0.17654   0.00000  Uiso   1.00
H301   H     0.25269   0.81141   0.14876   0.00000  Uiso   1.00
H302   H     0.28442   0.58181   0.09555   0.00000  Uiso   1.00
H303   H     0.27912   0.64066   0.28511   0.00000  Uiso   1.00
H304   H     0.20353   0.95610   0.11825   0.00000  Uiso   1.00
H305   H     0.27046   0.47195   0.00606   0.00000  Uiso   1.00
H306   H     0.25927   0.59605   0.40579   0.00000  Uiso   1.00
H307   H     0.98606   0.64441   0.17899   0.00000  Uiso   1.00
H308   H     0.95903   0.77695   0.15135   0.00000  Uiso   1.00
H309   H     0.99077   0.54735   0.09813   0.00000  Uiso   1.00
H310   H     0.98547   0.60620   0.28769   0.00000  Uiso   1.00
H311   H     0.96519   0.92813   0.12035   0.00000  Uiso   1.00
H312   H     0.03212   0.44398   0.00816   0.00000  Uiso   1.00
H313   H     0.02093   0.56808   0.40788   0.00000  Uiso   1.00
O314   O     0.07161   0.02989   0.10105   0.00000  Uiso   1.00
O315   O     0.15941   0.39470   0.95387   0.00000  Uiso   1.00
O316   O     0.14474   0.55751   0.47829   0.00000  Uiso   1.00
N317   N     0.15115   0.93133   0.12255   0.00000  Uiso   1.00
N318   N     0.21372   0.47869   0.01766   0.00000  Uiso   1.00
N319   N     0.20326   0.59469   0.39136   0.00000  Uiso   1.00
N320   N     0.02290   0.91628   0.12368   0.00000  Uiso   1.00
N321   N     0.08547   0.46364   0.01878   0.00000  Uiso   1.00
N322   N     0.07501   0.57964   0.39249   0.00000  Uiso   1.00
C323   C     0.29934   0.33040   0.67711   0.00000  Uiso   1.00
C324   C     0.34433   0.26195   0.66236   0.00000  Uiso   1.00
C325   C     0.31071   0.19601   0.64932   0.00000  Uiso   1.00
C326   C     0.36198   0.13995   0.63701   0.00000  Uiso   1.00
C327   C     0.41937   0.03220   0.61397   0.00000  Uiso   1.00
C328   C     0.32709   0.38669   0.63344   0.00000  Uiso   1.00
C329   C     0.27897   0.42564   0.59609   0.00000  Uiso   1.00
C330   C     0.31572   0.47460   0.55944   0.00000  Uiso   1.00
C331   C     0.34634   0.56055   0.49153   0.00000  Uiso   1.00
C332   C     0.32997   0.35471   0.73643   0.00000  Uiso   1.00
C333   C     0.28427   0.36679   0.78568   0.00000  Uiso   1.00
C334   C     0.32345   0.38884   0.83574   0.00000  Uiso   1.00
C335   C     0.35854   0.42513   0.92774   0.00000  Uiso   1.00
C336   C     0.45016   0.34811   0.67843   0.00000  Uiso   1.00
C337   C     0.42625   0.27156   0.66308   0.00000  Uiso   1.00
C338   C     0.47758   0.21559   0.65079   0.00000  Uiso   1.00
C339   C     0.44405   0.14958   0.63773   0.00000  Uiso   1.00
C340   C     0.40900   0.39631   0.63416   0.00000  Uiso   1.00
C341   C     0.44583   0.44522   0.59756   0.00000  Uiso   1.00
C342   C     0.39779   0.48423   0.56016   0.00000  Uiso   1.00
C343   C     0.41189   0.36432   0.73715   0.00000  Uiso   1.00
C344   C     0.45114   0.38637   0.78715   0.00000  Uiso   1.00
C345   C     0.40552   0.39847   0.83646   0.00000  Uiso   1.00
H346   H     0.23556   0.32292   0.67654   0.00000  Uiso   1.00
H347   H     0.24731   0.18859   0.64876   0.00000  Uiso   1.00
H348   H     0.21558   0.41819   0.59555   0.00000  Uiso   1.00
H349   H     0.22088   0.35934   0.78511   0.00000  Uiso   1.00
H350   H     0.29647   0.04390   0.61825   0.00000  Uiso   1.00
H351   H     0.22954   0.52805   0.50606   0.00000  Uiso   1.00
H352   H     0.24073   0.40395   0.90579   0.00000  Uiso   1.00
H353   H     0.51394   0.35559   0.67899   0.00000  Uiso   1.00
H354   H     0.54097   0.22305   0.65135   0.00000  Uiso   1.00
H355   H     0.50923   0.45265   0.59813   0.00000  Uiso   1.00
H356   H     0.51453   0.39380   0.78769   0.00000  Uiso   1.00
H357   H     0.53481   0.07187   0.62035   0.00000  Uiso   1.00
H358   H     0.46788   0.55602   0.50816   0.00000  Uiso   1.00
H359   H     0.47907   0.43192   0.90788   0.00000  Uiso   1.00
O360   O     0.42839   0.97011   0.60105   0.00000  Uiso   1.00
O361   O     0.34059   0.60530   0.45387   0.00000  Uiso   1.00
O362   O     0.35526   0.44249   0.97829   0.00000  Uiso   1.00
N363   N     0.34885   0.06867   0.62255   0.00000  Uiso   1.00
N364   N     0.28628   0.52131   0.51766   0.00000  Uiso   1.00
N365   N     0.29674   0.40531   0.89136   0.00000  Uiso   1.00
N366   N     0.47710   0.08372   0.62368   0.00000  Uiso   1.00
N367   N     0.41453   0.53636   0.51878   0.00000  Uiso   1.00
N368   N     0.42499   0.42036   0.89249   0.00000  Uiso   1.00
