data_job_06543
_audit_creation_date              2018-12-19
_audit_creation_method            'Materials Studio'
_symmetry_space_group_name_H-M    'P1'
_symmetry_Int_Tables_number       1
_symmetry_cell_setting            triclinic
loop_
_symmetry_equiv_pos_as_xyz
  x,y,z
_cell_length_a                    18.8671
_cell_length_b                    20.9617
_cell_length_c                    23.1068
_cell_angle_alpha                 79.9955
_cell_angle_beta                  109.9573
_cell_angle_gamma                 114.1383
loop_
_atom_site_label
_atom_site_type_symbol
_atom_site_fract_x
_atom_site_fract_y
_atom_site_fract_z
_atom_site_U_iso_or_equiv
_atom_site_adp_type
_atom_site_occupancy
C1     C     0.64148   0.48691   0.54545   0.00000  Uiso   1.00
C2     C     0.65493   0.56039   0.55886   0.00000  Uiso   1.00
C3     C     0.59420   0.58512   0.55104   0.00000  Uiso   1.00
C4     C     0.61903   0.65393   0.56589   0.00000  Uiso   1.00
C5     C     0.62734   0.76158   0.58335   0.00000  Uiso   1.00
C6     C     0.68778   0.49637   0.49987   0.00000  Uiso   1.00
C7     C     0.65467   0.46726   0.44246   0.00000  Uiso   1.00
C8     C     0.70716   0.48217   0.40766   0.00000  Uiso   1.00
C9     C     0.76649   0.49038   0.33356   0.00000  Uiso   1.00
C10    C     0.68596   0.45759   0.60522   0.00000  Uiso   1.00
C11    C     0.65133   0.39586   0.63639   0.00000  Uiso   1.00
C12    C     0.70228   0.37811   0.69029   0.00000  Uiso   1.00
C13    C     0.75878   0.32610   0.77977   0.00000  Uiso   1.00
C14    C     0.79356   0.56515   0.58573   0.00000  Uiso   1.00
C15    C     0.73754   0.60289   0.58073   0.00000  Uiso   1.00
C16    C     0.76246   0.67169   0.59561   0.00000  Uiso   1.00
C17    C     0.70178   0.69651   0.58781   0.00000  Uiso   1.00
C18    C     0.77038   0.53887   0.52175   0.00000  Uiso   1.00
C19    C     0.82293   0.55383   0.48703   0.00000  Uiso   1.00
C20    C     0.78991   0.52475   0.42958   0.00000  Uiso   1.00
C21    C     0.76856   0.50009   0.62711   0.00000  Uiso   1.00
C22    C     0.81958   0.48243   0.68096   0.00000  Uiso   1.00
C23    C     0.78503   0.42069   0.71221   0.00000  Uiso   1.00
H24    H     0.57718   0.45382   0.52841   0.00000  Uiso   1.00
H25    H     0.53028   0.55221   0.53410   0.00000  Uiso   1.00
H26    H     0.59075   0.43437   0.42554   0.00000  Uiso   1.00
H27    H     0.58740   0.36298   0.61945   0.00000  Uiso   1.00
H28    H     0.51472   0.68005   0.55003   0.00000  Uiso   1.00
H29    H     0.64222   0.43154   0.32114   0.00000  Uiso   1.00
H30    H     0.63516   0.28101   0.73003   0.00000  Uiso   1.00
H31    H     0.85788   0.59824   0.60277   0.00000  Uiso   1.00
H32    H     0.82639   0.70456   0.61254   0.00000  Uiso   1.00
H33    H     0.88685   0.58671   0.50398   0.00000  Uiso   1.00
H34    H     0.88350   0.51533   0.69788   0.00000  Uiso   1.00
H35    H     0.75505   0.80370   0.61369   0.00000  Uiso   1.00
H36    H     0.88255   0.55519   0.38480   0.00000  Uiso   1.00
H37    H     0.87549   0.40466   0.79369   0.00000  Uiso   1.00
O38    O     0.60911   0.80921   0.58693   0.00000  Uiso   1.00
O39    O     0.77639   0.48317   0.28664   0.00000  Uiso   1.00
O40    O     0.76712   0.28568   0.82308   0.00000  Uiso   1.00
N41    N     0.57560   0.69455   0.56368   0.00000  Uiso   1.00
N42    N     0.69481   0.46222   0.34968   0.00000  Uiso   1.00
N43    N     0.68821   0.32148   0.73195   0.00000  Uiso   1.00
N44    N     0.70492   0.76109   0.59794   0.00000  Uiso   1.00
N45    N     0.82413   0.52876   0.38394   0.00000  Uiso   1.00
N46    N     0.81753   0.38802   0.76620   0.00000  Uiso   1.00
C47    C     0.32970   0.87769   0.57049   0.00000  Uiso   1.00
C48    C     0.41667   0.88199   0.60295   0.00000  Uiso   1.00
C49    C     0.48674   0.93601   0.59535   0.00000  Uiso   1.00
C50    C     0.56053   0.93017   0.62921   0.00000  Uiso   1.00
C51    C     0.69504   0.94563   0.67351   0.00000  Uiso   1.00
C52    C     0.28499   0.80874   0.53757   0.00000  Uiso   1.00
C53    C     0.24435   0.80119   0.47501   0.00000  Uiso   1.00
C54    C     0.20728   0.73369   0.45384   0.00000  Uiso   1.00
C55    C     0.13731   0.63543   0.39664   0.00000  Uiso   1.00
C56    C     0.29184   0.86939   0.62140   0.00000  Uiso   1.00
C57    C     0.25693   0.91282   0.62931   0.00000  Uiso   1.00
C58    C     0.22562   0.89637   0.67871   0.00000  Uiso   1.00
C59    C     0.16628   0.89228   0.75167   0.00000  Uiso   1.00
C60    C     0.33613   0.77126   0.64412   0.00000  Uiso   1.00
C61    C     0.42016   0.82418   0.64294   0.00000  Uiso   1.00
C62    C     0.49386   0.81826   0.67682   0.00000  Uiso   1.00
C63    C     0.56403   0.87227   0.66928   0.00000  Uiso   1.00
C64    C     0.28848   0.75094   0.57756   0.00000  Uiso   1.00
C65    C     0.25146   0.68344   0.55648   0.00000  Uiso   1.00
C66    C     0.21078   0.67578   0.49390   0.00000  Uiso   1.00
C67    C     0.29533   0.81159   0.66139   0.00000  Uiso   1.00
C68    C     0.26405   0.79507   0.71078   0.00000  Uiso   1.00
C69    C     0.22911   0.83846   0.71877   0.00000  Uiso   1.00
H70    H     0.32698   0.92269   0.53935   0.00000  Uiso   1.00
H71    H     0.48402   0.98073   0.56439   0.00000  Uiso   1.00
H72    H     0.24165   0.84593   0.44408   0.00000  Uiso   1.00
H73    H     0.25424   0.95754   0.59835   0.00000  Uiso   1.00
H74    H     0.65966   0.01958   0.60978   0.00000  Uiso   1.00
H75    H     0.14860   0.73534   0.35609   0.00000  Uiso   1.00
H76    H     0.17515   0.97070   0.68141   0.00000  Uiso   1.00
H77    H     0.33884   0.72626   0.67525   0.00000  Uiso   1.00
H78    H     0.49654   0.77352   0.70776   0.00000  Uiso   1.00
H79    H     0.25417   0.63872   0.58744   0.00000  Uiso   1.00
H80    H     0.26676   0.75034   0.74172   0.00000  Uiso   1.00
H81    H     0.66982   0.85140   0.72615   0.00000  Uiso   1.00
H82    H     0.15876   0.56716   0.47245   0.00000  Uiso   1.00
H83    H     0.18531   0.80252   0.79778   0.00000  Uiso   1.00
O84    O     0.76826   0.97012   0.68688   0.00000  Uiso   1.00
O85    O     0.09776   0.59720   0.35404   0.00000  Uiso   1.00
O86    O     0.13259   0.90600   0.78087   0.00000  Uiso   1.00
N87    N     0.64041   0.97352   0.63272   0.00000  Uiso   1.00
N88    N     0.16261   0.70777   0.39552   0.00000  Uiso   1.00
N89    N     0.18741   0.92780   0.69967   0.00000  Uiso   1.00
N90    N     0.64588   0.88302   0.69533   0.00000  Uiso   1.00
N91    N     0.16808   0.61727   0.45814   0.00000  Uiso   1.00
N92    N     0.19288   0.83731   0.76228   0.00000  Uiso   1.00
C93    C     0.10331   0.18999   0.53422   0.00000  Uiso   1.00
C94    C     0.04625   0.12807   0.56282   0.00000  Uiso   1.00
C95    C     0.03681   0.05871   0.56381   0.00000  Uiso   1.00
C96    C     0.98154   0.00981   0.59220   0.00000  Uiso   1.00
C97    C     0.89964   0.91064   0.63257   0.00000  Uiso   1.00
C98    C     0.04996   0.22565   0.48768   0.00000  Uiso   1.00
C99    C     0.04365   0.23834   0.42549   0.00000  Uiso   1.00
C100   C     0.99150   0.27160   0.39064   0.00000  Uiso   1.00
C101   C     0.91540   0.32397   0.31436   0.00000  Uiso   1.00
C102   C     0.15795   0.24129   0.58550   0.00000  Uiso   1.00
C103   C     0.24244   0.26714   0.60555   0.00000  Uiso   1.00
C104   C     0.28122   0.31358   0.65304   0.00000  Uiso   1.00
C105   C     0.37279   0.39023   0.72864   0.00000  Uiso   1.00
C106   C     0.02194   0.22652   0.58289   0.00000  Uiso   1.00
C107   C     0.00205   0.14791   0.58926   0.00000  Uiso   1.00
C108   C     0.94678   0.09911   0.61766   0.00000  Uiso   1.00
C109   C     0.93727   0.02969   0.61869   0.00000  Uiso   1.00
C110   C     0.00576   0.24549   0.51412   0.00000  Uiso   1.00
C111   C     0.95362   0.27875   0.47935   0.00000  Uiso   1.00
C112   C     0.94722   0.29148   0.41712   0.00000  Uiso   1.00
C113   C     0.11375   0.26113   0.61194   0.00000  Uiso   1.00
C114   C     0.15241   0.30755   0.65941   0.00000  Uiso   1.00
C115   C     0.23694   0.33346   0.67953   0.00000  Uiso   1.00
H116   H     0.13772   0.17455   0.51363   0.00000  Uiso   1.00
H117   H     0.07102   0.04337   0.54334   0.00000  Uiso   1.00
H118   H     0.07786   0.22299   0.40505   0.00000  Uiso   1.00
H119   H     0.27663   0.25178   0.58508   0.00000  Uiso   1.00
H120   H     0.97757   0.90668   0.58791   0.00000  Uiso   1.00
H121   H     0.99201   0.28543   0.29632   0.00000  Uiso   1.00
H122   H     0.41114   0.34614   0.67595   0.00000  Uiso   1.00
H123   H     0.98753   0.24197   0.60348   0.00000  Uiso   1.00
H124   H     0.91259   0.11448   0.63812   0.00000  Uiso   1.00
H125   H     0.91943   0.29410   0.49983   0.00000  Uiso   1.00
H126   H     0.11819   0.32289   0.67986   0.00000  Uiso   1.00
H127   H     0.84897   0.96439   0.66484   0.00000  Uiso   1.00
H128   H     0.86342   0.34315   0.37325   0.00000  Uiso   1.00
H129   H     0.28255   0.40386   0.75288   0.00000  Uiso   1.00
O130   O     0.86666   0.85046   0.64752   0.00000  Uiso   1.00
O131   O     0.88563   0.34737   0.26497   0.00000  Uiso   1.00
O132   O     0.43551   0.42702   0.76304   0.00000  Uiso   1.00
N133   N     0.95760   0.93776   0.60127   0.00000  Uiso   1.00
N134   N     0.97109   0.29186   0.32865   0.00000  Uiso   1.00
N135   N     0.36294   0.34863   0.68356   0.00000  Uiso   1.00
N136   N     0.88840   0.96882   0.64267   0.00000  Uiso   1.00
N137   N     0.90190   0.32291   0.37005   0.00000  Uiso   1.00
N138   N     0.29375   0.37969   0.72496   0.00000  Uiso   1.00
C139   C     0.59830   0.66919   0.07951   0.00000  Uiso   1.00
C140   C     0.60928   0.60035   0.10392   0.00000  Uiso   1.00
C141   C     0.54757   0.53665   0.10944   0.00000  Uiso   1.00
C142   C     0.57012   0.47978   0.13278   0.00000  Uiso   1.00
C143   C     0.57480   0.37186   0.16803   0.00000  Uiso   1.00
C144   C     0.63464   0.69449   0.02614   0.00000  Uiso   1.00
C145   C     0.59425   0.70994   0.96627   0.00000  Uiso   1.00
C146   C     0.63816   0.73233   0.92414   0.00000  Uiso   1.00
C147   C     0.68223   0.77061   0.83864   0.00000  Uiso   1.00
C148   C     0.65361   0.72117   0.13017   0.00000  Uiso   1.00
C149   C     0.62917   0.75906   0.15775   0.00000  Uiso   1.00
C150   C     0.68905   0.80392   0.20320   0.00000  Uiso   1.00
C151   C     0.76257   0.88362   0.27923   0.00000  Uiso   1.00
C152   C     0.74809   0.68150   0.11116   0.00000  Uiso   1.00
C153   C     0.69065   0.60704   0.12111   0.00000  Uiso   1.00
C154   C     0.71330   0.55025   0.14445   0.00000  Uiso   1.00
C155   C     0.65163   0.48647   0.15001   0.00000  Uiso   1.00
C156   C     0.71601   0.70117   0.04333   0.00000  Uiso   1.00
C157   C     0.75999   0.72355   0.00128   0.00000  Uiso   1.00
C158   C     0.71967   0.73902   0.94136   0.00000  Uiso   1.00
C159   C     0.73498   0.72785   0.14736   0.00000  Uiso   1.00
C160   C     0.79491   0.77266   0.19277   0.00000  Uiso   1.00
C161   C     0.77056   0.81062   0.22042   0.00000  Uiso   1.00
H162   H     0.53495   0.66400   0.06613   0.00000  Uiso   1.00
H163   H     0.48461   0.53150   0.09612   0.00000  Uiso   1.00
H164   H     0.53129   0.70477   0.95298   0.00000  Uiso   1.00
H165   H     0.56620   0.75388   0.14444   0.00000  Uiso   1.00
H166   H     0.46467   0.38753   0.13694   0.00000  Uiso   1.00
H167   H     0.56311   0.75292   0.83511   0.00000  Uiso   1.00
H168   H     0.63673   0.85648   0.23885   0.00000  Uiso   1.00
H169   H     0.81144   0.68670   0.12454   0.00000  Uiso   1.00
H170   H     0.77627   0.55544   0.15775   0.00000  Uiso   1.00
H171   H     0.82295   0.72872   0.01460   0.00000  Uiso   1.00
H172   H     0.85786   0.77782   0.20606   0.00000  Uiso   1.00
H173   H     0.70139   0.40697   0.18695   0.00000  Uiso   1.00
H174   H     0.79983   0.77236   0.88513   0.00000  Uiso   1.00
H175   H     0.87345   0.87591   0.28886   0.00000  Uiso   1.00
O176   O     0.55490   0.31049   0.18272   0.00000  Uiso   1.00
O177   O     0.68405   0.78988   0.78674   0.00000  Uiso   1.00
O178   O     0.78064   0.92573   0.31642   0.00000  Uiso   1.00
N179   N     0.52521   0.41012   0.14417   0.00000  Uiso   1.00
N180   N     0.61724   0.75173   0.86197   0.00000  Uiso   1.00
N181   N     0.68608   0.84856   0.23942   0.00000  Uiso   1.00
N182   N     0.65259   0.42058   0.17108   0.00000  Uiso   1.00
N183   N     0.74462   0.76218   0.88889   0.00000  Uiso   1.00
N184   N     0.81345   0.85901   0.26633   0.00000  Uiso   1.00
C185   C     0.31012   0.95863   0.04537   0.00000  Uiso   1.00
C186   C     0.39418   0.01710   0.06283   0.00000  Uiso   1.00
C187   C     0.46558   0.01441   0.06080   0.00000  Uiso   1.00
C188   C     0.53622   0.07335   0.07863   0.00000  Uiso   1.00
C189   C     0.66686   0.15510   0.10281   0.00000  Uiso   1.00
C190   C     0.25495   0.99032   0.99574   0.00000  Uiso   1.00
C191   C     0.20928   0.96511   0.93731   0.00000  Uiso   1.00
C192   C     0.16270   0.00150   0.89866   0.00000  Uiso   1.00
C193   C     0.07714   0.04165   0.81869   0.00000  Uiso   1.00
C194   C     0.28018   0.94349   0.10169   0.00000  Uiso   1.00
C195   C     0.25570   0.87891   0.13233   0.00000  Uiso   1.00
C196   C     0.23034   0.87588   0.18288   0.00000  Uiso   1.00
C197   C     0.18395   0.84332   0.26741   0.00000  Uiso   1.00
C198   C     0.30860   0.06808   0.08064   0.00000  Uiso   1.00
C199   C     0.39336   0.07654   0.08199   0.00000  Uiso   1.00
C200   C     0.46390   0.13550   0.09982   0.00000  Uiso   1.00
C201   C     0.53539   0.13291   0.09782   0.00000  Uiso   1.00
C202   C     0.25413   0.04976   0.01489   0.00000  Uiso   1.00
C203   C     0.20760   0.08620   0.97633   0.00000  Uiso   1.00
C204   C     0.16187   0.06106   0.91785   0.00000  Uiso   1.00
C205   C     0.27936   0.00294   0.12085   0.00000  Uiso   1.00
C206   C     0.25402   0.00001   0.17135   0.00000  Uiso   1.00
C207   C     0.22951   0.93544   0.20207   0.00000  Uiso   1.00
H208   H     0.31076   0.91235   0.03045   0.00000  Uiso   1.00
H209   H     0.46619   0.96840   0.04597   0.00000  Uiso   1.00
H210   H     0.20992   0.91910   0.92250   0.00000  Uiso   1.00
H211   H     0.25634   0.83292   0.11749   0.00000  Uiso   1.00
H212   H     0.63815   0.05676   0.07161   0.00000  Uiso   1.00
H213   H     0.09777   0.95280   0.81126   0.00000  Uiso   1.00
H214   H     0.19565   0.77107   0.22245   0.00000  Uiso   1.00
H215   H     0.30796   0.11437   0.09555   0.00000  Uiso   1.00
H216   H     0.46325   0.18150   0.11465   0.00000  Uiso   1.00
H217   H     0.20697   0.13220   0.99117   0.00000  Uiso   1.00
H218   H     0.25339   0.04602   0.18616   0.00000  Uiso   1.00
H219   H     0.63576   0.22973   0.12734   0.00000  Uiso   1.00
H220   H     0.09537   0.12576   0.86699   0.00000  Uiso   1.00
H221   H     0.19326   0.94403   0.27818   0.00000  Uiso   1.00
O222   O     0.73915   0.18377   0.11084   0.00000  Uiso   1.00
O223   O     0.03018   0.04737   0.76928   0.00000  Uiso   1.00
O224   O     0.15861   0.80894   0.30875   0.00000  Uiso   1.00
N225   N     0.61628   0.08825   0.08212   0.00000  Uiso   1.00
N226   N     0.11107   0.99106   0.83870   0.00000  Uiso   1.00
N227   N     0.20256   0.82115   0.22312   0.00000  Uiso   1.00
N228   N     0.61499   0.18132   0.11211   0.00000  Uiso   1.00
N229   N     0.10978   0.08413   0.86869   0.00000  Uiso   1.00
N230   N     0.20127   0.91422   0.25311   0.00000  Uiso   1.00
C231   C     0.17444   0.44793   0.08043   0.00000  Uiso   1.00
C232   C     0.11355   0.45240   0.10764   0.00000  Uiso   1.00
C233   C     0.09695   0.51144   0.10616   0.00000  Uiso   1.00
C234   C     0.03919   0.50483   0.13363   0.00000  Uiso   1.00
C235   C     0.95065   0.52140   0.17161   0.00000  Uiso   1.00
C236   C     0.12649   0.38857   0.03564   0.00000  Uiso   1.00
C237   C     0.12079   0.39395   0.97363   0.00000  Uiso   1.00
C238   C     0.07393   0.33360   0.94049   0.00000  Uiso   1.00
C239   C     0.00553   0.25107   0.86670   0.00000  Uiso   1.00
C240   C     0.23321   0.42284   0.13323   0.00000  Uiso   1.00
C241   C     0.31723   0.45702   0.15326   0.00000  Uiso   1.00
C242   C     0.36022   0.42551   0.20228   0.00000  Uiso   1.00
C243   C     0.45752   0.39618   0.28000   0.00000  Uiso   1.00
C244   C     0.10139   0.33121   0.13185   0.00000  Uiso   1.00
C245   C     0.07387   0.38899   0.13557   0.00000  Uiso   1.00
C246   C     0.01612   0.38229   0.16305   0.00000  Uiso   1.00
C247   C     0.99944   0.44131   0.16161   0.00000  Uiso   1.00
C248   C     0.08681   0.32517   0.06357   0.00000  Uiso   1.00
C249   C     0.03996   0.26480   0.03051   0.00000  Uiso   1.00
C250   C     0.03418   0.27009   0.96847   0.00000  Uiso   1.00
C251   C     0.19353   0.35944   0.16116   0.00000  Uiso   1.00
C252   C     0.23640   0.32787   0.21015   0.00000  Uiso   1.00
C253   C     0.32047   0.36199   0.23025   0.00000  Uiso   1.00
H254   H     0.20533   0.49729   0.05869   0.00000  Uiso   1.00
H255   H     0.12767   0.56049   0.08454   0.00000  Uiso   1.00
H256   H     0.15150   0.44302   0.95203   0.00000  Uiso   1.00
H257   H     0.34792   0.50608   0.13164   0.00000  Uiso   1.00
H258   H     0.02404   0.60260   0.12551   0.00000  Uiso   1.00
H259   H     0.07433   0.35489   0.84611   0.00000  Uiso   1.00
H260   H     0.48850   0.48786   0.22484   0.00000  Uiso   1.00
H261   H     0.07049   0.28184   0.15359   0.00000  Uiso   1.00
H262   H     0.98543   0.33322   0.18466   0.00000  Uiso   1.00
H263   H     0.00926   0.21575   0.05214   0.00000  Uiso   1.00
H264   H     0.20567   0.27881   0.23175   0.00000  Uiso   1.00
H265   H     0.90859   0.41813   0.20676   0.00000  Uiso   1.00
H266   H     0.95888   0.17042   0.92736   0.00000  Uiso   1.00
H267   H     0.37305   0.30340   0.30609   0.00000  Uiso   1.00
O268   O     0.91277   0.54805   0.18484   0.00000  Uiso   1.00
O269   O     0.97876   0.22306   0.81828   0.00000  Uiso   1.00
O270   O     0.52214   0.39752   0.31517   0.00000  Uiso   1.00
N271   N     0.00855   0.55214   0.14038   0.00000  Uiso   1.00
N272   N     0.05556   0.32055   0.87915   0.00000  Uiso   1.00
N273   N     0.44278   0.44486   0.23322   0.00000  Uiso   1.00
N274   N     0.94643   0.45288   0.18410   0.00000  Uiso   1.00
N275   N     0.99344   0.22129   0.92287   0.00000  Uiso   1.00
N276   N     0.38066   0.34560   0.27695   0.00000  Uiso   1.00
C277   C     0.35852   0.51309   0.45455   0.00000  Uiso   1.00
C278   C     0.34507   0.43961   0.44114   0.00000  Uiso   1.00
C279   C     0.40580   0.41488   0.44896   0.00000  Uiso   1.00
C280   C     0.38097   0.34607   0.43411   0.00000  Uiso   1.00
C281   C     0.37266   0.23842   0.41665   0.00000  Uiso   1.00
C282   C     0.31222   0.50363   0.50013   0.00000  Uiso   1.00
C283   C     0.34533   0.53274   0.55754   0.00000  Uiso   1.00
C284   C     0.29284   0.51783   0.59234   0.00000  Uiso   1.00
C285   C     0.23351   0.50962   0.66644   0.00000  Uiso   1.00
C286   C     0.31404   0.54241   0.39478   0.00000  Uiso   1.00
C287   C     0.34867   0.60414   0.36361   0.00000  Uiso   1.00
C288   C     0.29772   0.62189   0.30971   0.00000  Uiso   1.00
C289   C     0.24122   0.67390   0.22023   0.00000  Uiso   1.00
C290   C     0.20644   0.43485   0.41427   0.00000  Uiso   1.00
C291   C     0.26246   0.39711   0.41927   0.00000  Uiso   1.00
C292   C     0.23754   0.32831   0.40439   0.00000  Uiso   1.00
C293   C     0.29822   0.30349   0.41219   0.00000  Uiso   1.00
C294   C     0.22962   0.46113   0.47825   0.00000  Uiso   1.00
C295   C     0.17707   0.44617   0.51297   0.00000  Uiso   1.00
C296   C     0.21009   0.47525   0.57042   0.00000  Uiso   1.00
C297   C     0.23144   0.49991   0.37289   0.00000  Uiso   1.00
C298   C     0.18042   0.51757   0.31904   0.00000  Uiso   1.00
C299   C     0.21497   0.57931   0.28779   0.00000  Uiso   1.00
H300   H     0.42282   0.54618   0.47159   0.00000  Uiso   1.00
H301   H     0.46972   0.44779   0.46590   0.00000  Uiso   1.00
H302   H     0.40925   0.56563   0.57446   0.00000  Uiso   1.00
H303   H     0.41260   0.63702   0.38055   0.00000  Uiso   1.00
H304   H     0.48528   0.31995   0.44997   0.00000  Uiso   1.00
H305   H     0.35778   0.56846   0.67886   0.00000  Uiso   1.00
H306   H     0.36484   0.71899   0.26997   0.00000  Uiso   1.00
H307   H     0.14212   0.40176   0.39723   0.00000  Uiso   1.00
H308   H     0.17361   0.29544   0.38746   0.00000  Uiso   1.00
H309   H     0.11315   0.41329   0.49602   0.00000  Uiso   1.00
H310   H     0.11650   0.48467   0.30212   0.00000  Uiso   1.00
H311   H     0.24495   0.19630   0.38631   0.00000  Uiso   1.00
H312   H     0.11745   0.44481   0.61520   0.00000  Uiso   1.00
H313   H     0.12451   0.59534   0.20631   0.00000  Uiso   1.00
O314   O     0.39089   0.19079   0.41307   0.00000  Uiso   1.00
O315   O     0.22361   0.51683   0.71336   0.00000  Uiso   1.00
O316   O     0.23288   0.71432   0.17692   0.00000  Uiso   1.00
N317   N     0.42440   0.30545   0.43632   0.00000  Uiso   1.00
N318   N     0.30519   0.53778   0.65032   0.00000  Uiso   1.00
N319   N     0.31179   0.67852   0.26805   0.00000  Uiso   1.00
N320   N     0.29508   0.23891   0.40206   0.00000  Uiso   1.00
N321   N     0.17587   0.47124   0.61606   0.00000  Uiso   1.00
N322   N     0.18247   0.61198   0.23380   0.00000  Uiso   1.00
C323   C     0.67030   0.12231   0.42951   0.00000  Uiso   1.00
C324   C     0.58333   0.11801   0.39705   0.00000  Uiso   1.00
C325   C     0.51326   0.06399   0.40465   0.00000  Uiso   1.00
C326   C     0.43947   0.06983   0.37079   0.00000  Uiso   1.00
C327   C     0.30496   0.05437   0.32649   0.00000  Uiso   1.00
C328   C     0.71501   0.19126   0.46243   0.00000  Uiso   1.00
C329   C     0.75565   0.19881   0.52499   0.00000  Uiso   1.00
C330   C     0.79272   0.26631   0.54616   0.00000  Uiso   1.00
C331   C     0.86269   0.36457   0.60336   0.00000  Uiso   1.00
C332   C     0.70816   0.13061   0.37860   0.00000  Uiso   1.00
C333   C     0.74307   0.08718   0.37069   0.00000  Uiso   1.00
C334   C     0.77438   0.10363   0.32129   0.00000  Uiso   1.00
C335   C     0.83372   0.10772   0.24833   0.00000  Uiso   1.00
C336   C     0.66387   0.22874   0.35588   0.00000  Uiso   1.00
C337   C     0.57984   0.17582   0.35706   0.00000  Uiso   1.00
C338   C     0.50614   0.18174   0.32318   0.00000  Uiso   1.00
C339   C     0.43597   0.12773   0.33072   0.00000  Uiso   1.00
C340   C     0.71152   0.24906   0.42244   0.00000  Uiso   1.00
C341   C     0.74854   0.31656   0.44352   0.00000  Uiso   1.00
C342   C     0.78922   0.32422   0.50610   0.00000  Uiso   1.00
C343   C     0.70467   0.18841   0.33861   0.00000  Uiso   1.00
C344   C     0.73595   0.20493   0.28922   0.00000  Uiso   1.00
C345   C     0.77089   0.16154   0.28123   0.00000  Uiso   1.00
H346   H     0.67302   0.07731   0.46065   0.00000  Uiso   1.00
H347   H     0.51598   0.01927   0.43561   0.00000  Uiso   1.00
H348   H     0.75835   0.15407   0.55592   0.00000  Uiso   1.00
H349   H     0.74576   0.04246   0.40165   0.00000  Uiso   1.00
H350   H     0.34034   0.98042   0.39022   0.00000  Uiso   1.00
H351   H     0.85140   0.26466   0.64391   0.00000  Uiso   1.00
H352   H     0.82485   0.02930   0.31859   0.00000  Uiso   1.00
H353   H     0.66116   0.27374   0.32475   0.00000  Uiso   1.00
H354   H     0.50346   0.22648   0.29224   0.00000  Uiso   1.00
H355   H     0.74583   0.36128   0.41256   0.00000  Uiso   1.00
H356   H     0.73324   0.24966   0.25828   0.00000  Uiso   1.00
H357   H     0.33018   0.14860   0.27385   0.00000  Uiso   1.00
H358   H     0.84124   0.43284   0.52755   0.00000  Uiso   1.00
H359   H     0.81469   0.19748   0.20222   0.00000  Uiso   1.00
O360   O     0.23174   0.02988   0.31312   0.00000  Uiso   1.00
O361   O     0.90224   0.40280   0.64596   0.00000  Uiso   1.00
O362   O     0.86741   0.09400   0.21913   0.00000  Uiso   1.00
N363   N     0.35959   0.02648   0.36728   0.00000  Uiso   1.00
N364   N     0.83739   0.29223   0.60448   0.00000  Uiso   1.00
N365   N     0.81259   0.07220   0.30033   0.00000  Uiso   1.00
N366   N     0.35412   0.11698   0.30467   0.00000  Uiso   1.00
N367   N     0.83192   0.38273   0.54186   0.00000  Uiso   1.00
N368   N     0.80712   0.16269   0.23772   0.00000  Uiso   1.00
C369   C     0.89669   0.81001   0.46578   0.00000  Uiso   1.00
C370   C     0.95375   0.87193   0.43718   0.00000  Uiso   1.00
C371   C     0.96319   0.94129   0.43619   0.00000  Uiso   1.00
C372   C     0.01846   0.99019   0.40780   0.00000  Uiso   1.00
C373   C     0.10036   0.08936   0.36743   0.00000  Uiso   1.00
C374   C     0.95004   0.77435   0.51232   0.00000  Uiso   1.00
C375   C     0.95635   0.76166   0.57451   0.00000  Uiso   1.00
C376   C     0.00850   0.72840   0.60936   0.00000  Uiso   1.00
C377   C     0.08460   0.67603   0.68564   0.00000  Uiso   1.00
C378   C     0.84205   0.75871   0.41450   0.00000  Uiso   1.00
C379   C     0.75756   0.73286   0.39445   0.00000  Uiso   1.00
C380   C     0.71878   0.68642   0.34696   0.00000  Uiso   1.00
C381   C     0.62721   0.60977   0.27136   0.00000  Uiso   1.00
C382   C     0.97806   0.77348   0.41711   0.00000  Uiso   1.00
C383   C     0.99795   0.85209   0.41074   0.00000  Uiso   1.00
C384   C     0.05322   0.90089   0.38234   0.00000  Uiso   1.00
C385   C     0.06273   0.97031   0.38131   0.00000  Uiso   1.00
C386   C     0.99424   0.75451   0.48588   0.00000  Uiso   1.00
C387   C     0.04638   0.72125   0.52065   0.00000  Uiso   1.00
C388   C     0.05278   0.70852   0.58288   0.00000  Uiso   1.00
C389   C     0.88625   0.73887   0.38806   0.00000  Uiso   1.00
C390   C     0.84759   0.69245   0.34059   0.00000  Uiso   1.00
C391   C     0.76306   0.66654   0.32047   0.00000  Uiso   1.00
H392   H     0.86228   0.82545   0.48637   0.00000  Uiso   1.00
H393   H     0.92898   0.95663   0.45666   0.00000  Uiso   1.00
H394   H     0.92214   0.77701   0.59495   0.00000  Uiso   1.00
H395   H     0.72337   0.74822   0.41492   0.00000  Uiso   1.00
H396   H     0.02243   0.09332   0.41209   0.00000  Uiso   1.00
H397   H     0.00799   0.71457   0.70368   0.00000  Uiso   1.00
H398   H     0.58886   0.65386   0.32405   0.00000  Uiso   1.00
H399   H     0.01247   0.75803   0.39652   0.00000  Uiso   1.00
H400   H     0.08741   0.88552   0.36188   0.00000  Uiso   1.00
H401   H     0.08057   0.70590   0.50017   0.00000  Uiso   1.00
H402   H     0.88181   0.67711   0.32014   0.00000  Uiso   1.00
H403   H     0.15103   0.03561   0.33516   0.00000  Uiso   1.00
H404   H     0.13658   0.65685   0.62675   0.00000  Uiso   1.00
H405   H     0.71745   0.59614   0.24712   0.00000  Uiso   1.00
O406   O     0.13334   0.14954   0.35248   0.00000  Uiso   1.00
O407   O     0.11437   0.65263   0.73503   0.00000  Uiso   1.00
O408   O     0.56449   0.57298   0.23696   0.00000  Uiso   1.00
N409   N     0.04240   0.06224   0.39873   0.00000  Uiso   1.00
N410   N     0.02891   0.70814   0.67135   0.00000  Uiso   1.00
N411   N     0.63706   0.65137   0.31644   0.00000  Uiso   1.00
N412   N     0.11160   0.03118   0.35733   0.00000  Uiso   1.00
N413   N     0.09810   0.67709   0.62995   0.00000  Uiso   1.00
N414   N     0.70625   0.62031   0.27504   0.00000  Uiso   1.00
C415   C     0.40170   0.33081   0.92049   0.00000  Uiso   1.00
C416   C     0.39072   0.39965   0.89608   0.00000  Uiso   1.00
C417   C     0.45243   0.46335   0.89056   0.00000  Uiso   1.00
C418   C     0.42988   0.52022   0.86722   0.00000  Uiso   1.00
C419   C     0.42520   0.62814   0.83197   0.00000  Uiso   1.00
C420   C     0.36536   0.30551   0.97386   0.00000  Uiso   1.00
C421   C     0.40575   0.29006   0.03373   0.00000  Uiso   1.00
C422   C     0.36184   0.26767   0.07586   0.00000  Uiso   1.00
C423   C     0.31777   0.22939   0.16136   0.00000  Uiso   1.00
C424   C     0.34639   0.27883   0.86983   0.00000  Uiso   1.00
C425   C     0.37083   0.24094   0.84225   0.00000  Uiso   1.00
C426   C     0.31095   0.19608   0.79680   0.00000  Uiso   1.00
C427   C     0.23743   0.11638   0.72077   0.00000  Uiso   1.00
C428   C     0.25191   0.31850   0.88884   0.00000  Uiso   1.00
C429   C     0.30935   0.39296   0.87889   0.00000  Uiso   1.00
C430   C     0.28670   0.44975   0.85555   0.00000  Uiso   1.00
C431   C     0.34837   0.51353   0.84999   0.00000  Uiso   1.00
C432   C     0.28399   0.29883   0.95667   0.00000  Uiso   1.00
C433   C     0.24001   0.27645   0.99872   0.00000  Uiso   1.00
C434   C     0.28033   0.26098   0.05864   0.00000  Uiso   1.00
C435   C     0.26502   0.27215   0.85264   0.00000  Uiso   1.00
C436   C     0.20509   0.22734   0.80723   0.00000  Uiso   1.00
C437   C     0.22944   0.18938   0.77958   0.00000  Uiso   1.00
H438   H     0.46505   0.33600   0.93387   0.00000  Uiso   1.00
H439   H     0.51539   0.46850   0.90388   0.00000  Uiso   1.00
H440   H     0.46871   0.29523   0.04702   0.00000  Uiso   1.00
H441   H     0.43380   0.24612   0.85556   0.00000  Uiso   1.00
H442   H     0.53533   0.61247   0.86306   0.00000  Uiso   1.00
H443   H     0.43689   0.24708   0.16489   0.00000  Uiso   1.00
H444   H     0.36327   0.14352   0.76115   0.00000  Uiso   1.00
H445   H     0.18856   0.31330   0.87546   0.00000  Uiso   1.00
H446   H     0.22373   0.44456   0.84225   0.00000  Uiso   1.00
H447   H     0.17705   0.27128   0.98540   0.00000  Uiso   1.00
H448   H     0.14214   0.22218   0.79394   0.00000  Uiso   1.00
H449   H     0.29861   0.59303   0.81305   0.00000  Uiso   1.00
H450   H     0.20017   0.22764   0.11487   0.00000  Uiso   1.00
H451   H     0.12655   0.12409   0.71114   0.00000  Uiso   1.00
O452   O     0.44510   0.68951   0.81728   0.00000  Uiso   1.00
O453   O     0.31595   0.21012   0.21326   0.00000  Uiso   1.00
O454   O     0.21936   0.07427   0.68358   0.00000  Uiso   1.00
N455   N     0.47479   0.58988   0.85583   0.00000  Uiso   1.00
N456   N     0.38276   0.24827   0.13803   0.00000  Uiso   1.00
N457   N     0.31392   0.15144   0.76058   0.00000  Uiso   1.00
N458   N     0.34741   0.57942   0.82892   0.00000  Uiso   1.00
N459   N     0.25538   0.23782   0.11111   0.00000  Uiso   1.00
N460   N     0.18655   0.14099   0.73367   0.00000  Uiso   1.00
C461   C     0.68988   0.04137   0.95463   0.00000  Uiso   1.00
C462   C     0.60582   0.98290   0.93717   0.00000  Uiso   1.00
C463   C     0.53442   0.98559   0.93920   0.00000  Uiso   1.00
C464   C     0.46378   0.92665   0.92137   0.00000  Uiso   1.00
C465   C     0.33314   0.84490   0.89719   0.00000  Uiso   1.00
C466   C     0.74505   0.00968   0.00426   0.00000  Uiso   1.00
C467   C     0.79072   0.03489   0.06269   0.00000  Uiso   1.00
C468   C     0.83730   0.99850   0.10134   0.00000  Uiso   1.00
C469   C     0.92286   0.95835   0.18131   0.00000  Uiso   1.00
C470   C     0.71982   0.05651   0.89831   0.00000  Uiso   1.00
C471   C     0.74430   0.12109   0.86767   0.00000  Uiso   1.00
C472   C     0.76966   0.12412   0.81712   0.00000  Uiso   1.00
C473   C     0.81605   0.15668   0.73259   0.00000  Uiso   1.00
C474   C     0.69140   0.93192   0.91936   0.00000  Uiso   1.00
C475   C     0.60664   0.92346   0.91801   0.00000  Uiso   1.00
C476   C     0.53610   0.86450   0.90018   0.00000  Uiso   1.00
C477   C     0.46461   0.86709   0.90218   0.00000  Uiso   1.00
C478   C     0.74587   0.95024   0.98511   0.00000  Uiso   1.00
C479   C     0.79240   0.91380   0.02367   0.00000  Uiso   1.00
C480   C     0.83813   0.93894   0.08215   0.00000  Uiso   1.00
C481   C     0.72064   0.99706   0.87915   0.00000  Uiso   1.00
C482   C     0.74598  -0.00001   0.82865   0.00000  Uiso   1.00
C483   C     0.77049   0.06456   0.79793   0.00000  Uiso   1.00
H484   H     0.68924   0.08765   0.96955   0.00000  Uiso   1.00
H485   H     0.53381   0.03160   0.95403   0.00000  Uiso   1.00
H486   H     0.79008   0.08090   0.07750   0.00000  Uiso   1.00
H487   H     0.74366   0.16708   0.88251   0.00000  Uiso   1.00
H488   H     0.36185   0.94324   0.92839   0.00000  Uiso   1.00
H489   H     0.90223   0.04720   0.18874   0.00000  Uiso   1.00
H490   H     0.80435   0.22893   0.77755   0.00000  Uiso   1.00
H491   H     0.69204   0.88563   0.90445   0.00000  Uiso   1.00
H492   H     0.53675   0.81850   0.88535   0.00000  Uiso   1.00
H493   H     0.79303   0.86780   0.00883   0.00000  Uiso   1.00
H494   H     0.74661   0.95398   0.81384   0.00000  Uiso   1.00
H495   H     0.36424   0.77027   0.87266   0.00000  Uiso   1.00
H496   H     0.90463   0.87424   0.13301   0.00000  Uiso   1.00
H497   H     0.80674   0.05597   0.72182   0.00000  Uiso   1.00
O498   O     0.26085   0.81623   0.88916   0.00000  Uiso   1.00
O499   O     0.96982   0.95263   0.23072   0.00000  Uiso   1.00
O500   O     0.84139   0.19106   0.69125   0.00000  Uiso   1.00
N501   N     0.38372   0.91175   0.91788   0.00000  Uiso   1.00
N502   N     0.88893   0.00894   0.16130   0.00000  Uiso   1.00
N503   N     0.79744   0.17885   0.77688   0.00000  Uiso   1.00
N504   N     0.38501   0.81868   0.88789   0.00000  Uiso   1.00
N505   N     0.89022   0.91587   0.13131   0.00000  Uiso   1.00
N506   N     0.79873   0.08578   0.74689   0.00000  Uiso   1.00
C507   C     0.82556   0.55207   0.91957   0.00000  Uiso   1.00
C508   C     0.88645   0.54760   0.89236   0.00000  Uiso   1.00
C509   C     0.90305   0.48856   0.89384   0.00000  Uiso   1.00
C510   C     0.96081   0.49517   0.86637   0.00000  Uiso   1.00
C511   C     0.04935   0.47860   0.82839   0.00000  Uiso   1.00
C512   C     0.87351   0.61143   0.96436   0.00000  Uiso   1.00
C513   C     0.87921   0.60605   0.02637   0.00000  Uiso   1.00
C514   C     0.92607   0.66640   0.05951   0.00000  Uiso   1.00
C515   C     0.99447   0.74893   0.13330   0.00000  Uiso   1.00
C516   C     0.76679   0.57716   0.86677   0.00000  Uiso   1.00
C517   C     0.68277   0.54298   0.84674   0.00000  Uiso   1.00
C518   C     0.63978   0.57449   0.79772   0.00000  Uiso   1.00
C519   C     0.54248   0.60382   0.72000   0.00000  Uiso   1.00
C520   C     0.89861   0.66879   0.86815   0.00000  Uiso   1.00
C521   C     0.92613   0.61101   0.86443   0.00000  Uiso   1.00
C522   C     0.98388   0.61771   0.83695   0.00000  Uiso   1.00
C523   C     0.00056   0.55869   0.83839   0.00000  Uiso   1.00
C524   C     0.91319   0.67483   0.93643   0.00000  Uiso   1.00
C525   C     0.96004   0.73520   0.96949   0.00000  Uiso   1.00
C526   C     0.96582   0.72991   0.03153   0.00000  Uiso   1.00
C527   C     0.80647   0.64056   0.83884   0.00000  Uiso   1.00
C528   C     0.76360   0.67213   0.78985   0.00000  Uiso   1.00
C529   C     0.67953   0.63801   0.76975   0.00000  Uiso   1.00
H530   H     0.79467   0.50271   0.94131   0.00000  Uiso   1.00
H531   H     0.87233   0.43951   0.91546   0.00000  Uiso   1.00
H532   H     0.84850   0.55698   0.04797   0.00000  Uiso   1.00
H533   H     0.65208   0.49392   0.86836   0.00000  Uiso   1.00
H534   H     0.97596   0.39740   0.87449   0.00000  Uiso   1.00
H535   H     0.92567   0.64511   0.15389   0.00000  Uiso   1.00
H536   H     0.51150   0.51214   0.77516   0.00000  Uiso   1.00
H537   H     0.92951   0.71816   0.84641   0.00000  Uiso   1.00
H538   H     0.01457   0.66678   0.81534   0.00000  Uiso   1.00
H539   H     0.99074   0.78425   0.94786   0.00000  Uiso   1.00
H540   H     0.79433   0.72119   0.76825   0.00000  Uiso   1.00
H541   H     0.09141   0.58187   0.79324   0.00000  Uiso   1.00
H542   H     0.04112   0.82958   0.07264   0.00000  Uiso   1.00
H543   H     0.62695   0.69660   0.69391   0.00000  Uiso   1.00
O544   O     0.08723   0.45195   0.81516   0.00000  Uiso   1.00
O545   O     0.02124   0.77694   0.18172   0.00000  Uiso   1.00
O546   O     0.47786   0.60248   0.68483   0.00000  Uiso   1.00
N547   N     0.99145   0.44786   0.85962   0.00000  Uiso   1.00
N548   N     0.94444   0.67945   0.12085   0.00000  Uiso   1.00
N549   N     0.55722   0.55514   0.76678   0.00000  Uiso   1.00
N550   N     0.05357   0.54712   0.81590   0.00000  Uiso   1.00
N551   N     0.00656   0.77871   0.07713   0.00000  Uiso   1.00
N552   N     0.61934   0.65440   0.72305   0.00000  Uiso   1.00
