data_job_03080
_audit_creation_date              2018-12-19
_audit_creation_method            'Materials Studio'
_symmetry_space_group_name_H-M    'P1'
_symmetry_Int_Tables_number       1
_symmetry_cell_setting            triclinic
loop_
_symmetry_equiv_pos_as_xyz
  x,y,z
_cell_length_a                    17.9067
_cell_length_b                    28.8247
_cell_length_c                    11.8105
_cell_angle_alpha                 90.0000
_cell_angle_beta                  149.2420
_cell_angle_gamma                 90.0000
loop_
_atom_site_label
_atom_site_type_symbol
_atom_site_fract_x
_atom_site_fract_y
_atom_site_fract_z
_atom_site_U_iso_or_equiv
_atom_site_adp_type
_atom_site_occupancy
C1     C     0.47085   0.87035   0.99751   0.00000  Uiso   1.00
C2     C     0.61983   0.87732   0.24673   0.00000  Uiso   1.00
C3     C     0.64424   0.89425   0.38689   0.00000  Uiso   1.00
C4     C     0.78857   0.89806   0.60970   0.00000  Uiso   1.00
C5     C     0.00232   0.91084   0.98455   0.00000  Uiso   1.00
C6     C     0.47398   0.89824   0.89190   0.00000  Uiso   1.00
C7     C     0.37573   0.93275   0.73371   0.00000  Uiso   1.00
C8     C     0.39728   0.95416   0.65781   0.00000  Uiso   1.00
C9     C     0.38452   0.99940   0.48167   0.00000  Uiso   1.00
C10    C     0.46465   0.81948   0.95426   0.00000  Uiso   1.00
C11    C     0.35855   0.78778   0.84844   0.00000  Uiso   1.00
C12    C     0.37223   0.74288   0.82500   0.00000  Uiso   1.00
C13    C     0.34499   0.66584   0.74568   0.00000  Uiso   1.00
C14    C     0.68378   0.84700   0.14397   0.00000  Uiso   1.00
C15    C     0.73548   0.86464   0.32627   0.00000  Uiso   1.00
C16    C     0.87982   0.86842   0.54893   0.00000  Uiso   1.00
C17    C     0.90444   0.88535   0.68940   0.00000  Uiso   1.00
C18    C     0.58963   0.88556   0.97145   0.00000  Uiso   1.00
C19    C     0.61132   0.90693   0.89575   0.00000  Uiso   1.00
C20    C     0.51314   0.94146   0.73750   0.00000  Uiso   1.00
C21    C     0.58031   0.80680   0.03382   0.00000  Uiso   1.00
C22    C     0.59415   0.76195   0.01051   0.00000  Uiso   1.00
C23    C     0.48809   0.73018   0.90469   0.00000  Uiso   1.00
H24    H     0.38080   0.88022   0.93556   0.00000  Uiso   1.00
H25    H     0.55470   0.90406   0.32525   0.00000  Uiso   1.00
H26    H     0.28623   0.94255   0.67216   0.00000  Uiso   1.00
H27    H     0.26907   0.79760   0.78690   0.00000  Uiso   1.00
H28    H     0.79851   0.92492   0.79237   0.00000  Uiso   1.00
H29    H     0.23240   0.00607   0.41524   0.00000  Uiso   1.00
H30    H     0.19619   0.70041   0.65717   0.00000  Uiso   1.00
H31    H     0.77382   0.83713   0.20590   0.00000  Uiso   1.00
H32    H     0.96930   0.85861   0.61044   0.00000  Uiso   1.00
H33    H     0.70083   0.89711   0.95735   0.00000  Uiso   1.00
H34    H     0.68366   0.75215   0.07209   0.00000  Uiso   1.00
H35    H     0.13502   0.88803   0.02384   0.00000  Uiso   1.00
H36    H     0.56890   0.96919   0.64669   0.00000  Uiso   1.00
H37    H     0.53269   0.66352   0.88864   0.00000  Uiso   1.00
O38    O     0.08826   0.92140   0.16933   0.00000  Uiso   1.00
O39    O     0.34553   0.02786   0.36256   0.00000  Uiso   1.00
O40    O     0.29803   0.62684   0.67998   0.00000  Uiso   1.00
N41    N     0.85088   0.91328   0.79133   0.00000  Uiso   1.00
N42    N     0.32161   0.98916   0.50382   0.00000  Uiso   1.00
N43    N     0.28774   0.70340   0.72996   0.00000  Uiso   1.00
N44    N     0.03195   0.89343   0.91589   0.00000  Uiso   1.00
N45    N     0.50268   0.96931   0.62838   0.00000  Uiso   1.00
N46    N     0.46881   0.68355   0.85451   0.00000  Uiso   1.00
C47    C     0.52915   0.37035   0.50249   0.00000  Uiso   1.00
C48    C     0.38017   0.37732   0.25327   0.00000  Uiso   1.00
C49    C     0.35576   0.39425   0.11311   0.00000  Uiso   1.00
C50    C     0.21143   0.39806   0.89030   0.00000  Uiso   1.00
C51    C     0.99768   0.41084   0.51545   0.00000  Uiso   1.00
C52    C     0.52602   0.39824   0.60810   0.00000  Uiso   1.00
C53    C     0.62427   0.43275   0.76629   0.00000  Uiso   1.00
C54    C     0.60272   0.45416   0.84219   0.00000  Uiso   1.00
C55    C     0.61548   0.49940   0.01833   0.00000  Uiso   1.00
C56    C     0.53535   0.31948   0.54574   0.00000  Uiso   1.00
C57    C     0.64145   0.28778   0.65156   0.00000  Uiso   1.00
C58    C     0.62777   0.24288   0.67500   0.00000  Uiso   1.00
C59    C     0.65501   0.16584   0.75432   0.00000  Uiso   1.00
C60    C     0.31622   0.34700   0.35603   0.00000  Uiso   1.00
C61    C     0.26452   0.36464   0.17373   0.00000  Uiso   1.00
C62    C     0.12018   0.36842   0.95107   0.00000  Uiso   1.00
C63    C     0.09556   0.38535   0.81060   0.00000  Uiso   1.00
C64    C     0.41037   0.38556   0.52855   0.00000  Uiso   1.00
C65    C     0.38868   0.40693   0.60425   0.00000  Uiso   1.00
C66    C     0.48686   0.44146   0.76250   0.00000  Uiso   1.00
C67    C     0.41969   0.30680   0.46618   0.00000  Uiso   1.00
C68    C     0.40585   0.26195   0.48949   0.00000  Uiso   1.00
C69    C     0.51191   0.23018   0.59531   0.00000  Uiso   1.00
H70    H     0.61920   0.38022   0.56444   0.00000  Uiso   1.00
H71    H     0.44530   0.40406   0.17475   0.00000  Uiso   1.00
H72    H     0.71377   0.44255   0.82784   0.00000  Uiso   1.00
H73    H     0.73093   0.29760   0.71310   0.00000  Uiso   1.00
H74    H     0.20149   0.42492   0.70763   0.00000  Uiso   1.00
H75    H     0.76760   0.50607   0.08476   0.00000  Uiso   1.00
H76    H     0.80381   0.20041   0.84283   0.00000  Uiso   1.00
H77    H     0.22618   0.33713   0.29410   0.00000  Uiso   1.00
H78    H     0.03070   0.35861   0.88956   0.00000  Uiso   1.00
H79    H     0.29917   0.39711   0.54265   0.00000  Uiso   1.00
H80    H     0.31634   0.25215   0.42791   0.00000  Uiso   1.00
H81    H     0.86498   0.38803   0.47616   0.00000  Uiso   1.00
H82    H     0.43110   0.46919   0.85331   0.00000  Uiso   1.00
H83    H     0.46731   0.16352   0.61136   0.00000  Uiso   1.00
O84    O     0.91174   0.42140   0.33067   0.00000  Uiso   1.00
O85    O     0.65447   0.52786   0.13744   0.00000  Uiso   1.00
O86    O     0.70197   0.12684   0.82002   0.00000  Uiso   1.00
N87    N     0.14912   0.41328   0.70867   0.00000  Uiso   1.00
N88    N     0.67839   0.48916   0.99618   0.00000  Uiso   1.00
N89    N     0.71226   0.20340   0.77004   0.00000  Uiso   1.00
N90    N     0.96805   0.39343   0.58411   0.00000  Uiso   1.00
N91    N     0.49732   0.46931   0.87162   0.00000  Uiso   1.00
N92    N     0.53119   0.18355   0.64549   0.00000  Uiso   1.00
C93    C     0.52915   0.12965   0.00249   0.00000  Uiso   1.00
C94    C     0.38017   0.12268   0.75327   0.00000  Uiso   1.00
C95    C     0.35576   0.10575   0.61311   0.00000  Uiso   1.00
C96    C     0.21143   0.10194   0.39030   0.00000  Uiso   1.00
C97    C     0.99768   0.08916   0.01545   0.00000  Uiso   1.00
C98    C     0.52602   0.10176   0.10810   0.00000  Uiso   1.00
C99    C     0.62427   0.06725   0.26629   0.00000  Uiso   1.00
C100   C     0.60272   0.04584   0.34219   0.00000  Uiso   1.00
C101   C     0.61548   0.00060   0.51833   0.00000  Uiso   1.00
C102   C     0.53535   0.18052   0.04574   0.00000  Uiso   1.00
C103   C     0.64145   0.21222   0.15156   0.00000  Uiso   1.00
C104   C     0.62777   0.25712   0.17500   0.00000  Uiso   1.00
C105   C     0.65501   0.33416   0.25432   0.00000  Uiso   1.00
C106   C     0.31622   0.15300   0.85603   0.00000  Uiso   1.00
C107   C     0.26452   0.13536   0.67373   0.00000  Uiso   1.00
C108   C     0.12018   0.13158   0.45107   0.00000  Uiso   1.00
C109   C     0.09556   0.11465   0.31060   0.00000  Uiso   1.00
C110   C     0.41037   0.11444   0.02855   0.00000  Uiso   1.00
C111   C     0.38868   0.09307   0.10425   0.00000  Uiso   1.00
C112   C     0.48686   0.05854   0.26250   0.00000  Uiso   1.00
C113   C     0.41969   0.19320   0.96618   0.00000  Uiso   1.00
C114   C     0.40585   0.23805   0.98949   0.00000  Uiso   1.00
C115   C     0.51191   0.26982   0.09531   0.00000  Uiso   1.00
H116   H     0.61920   0.11978   0.06444   0.00000  Uiso   1.00
H117   H     0.44530   0.09594   0.67475   0.00000  Uiso   1.00
H118   H     0.71377   0.05745   0.32784   0.00000  Uiso   1.00
H119   H     0.73093   0.20240   0.21310   0.00000  Uiso   1.00
H120   H     0.20149   0.07508   0.20763   0.00000  Uiso   1.00
H121   H     0.76760   0.99393   0.58476   0.00000  Uiso   1.00
H122   H     0.80381   0.29959   0.34283   0.00000  Uiso   1.00
H123   H     0.22618   0.16287   0.79410   0.00000  Uiso   1.00
H124   H     0.03070   0.14139   0.38956   0.00000  Uiso   1.00
H125   H     0.29917   0.10289   0.04265   0.00000  Uiso   1.00
H126   H     0.31634   0.24785   0.92791   0.00000  Uiso   1.00
H127   H     0.86498   0.11197   0.97616   0.00000  Uiso   1.00
H128   H     0.43110   0.03081   0.35331   0.00000  Uiso   1.00
H129   H     0.46731   0.33648   0.11136   0.00000  Uiso   1.00
O130   O     0.91174   0.07860   0.83067   0.00000  Uiso   1.00
O131   O     0.65447   0.97214   0.63744   0.00000  Uiso   1.00
O132   O     0.70197   0.37316   0.32002   0.00000  Uiso   1.00
N133   N     0.14912   0.08672   0.20867   0.00000  Uiso   1.00
N134   N     0.67839   0.01084   0.49618   0.00000  Uiso   1.00
N135   N     0.71226   0.29660   0.27004   0.00000  Uiso   1.00
N136   N     0.96805   0.10657   0.08411   0.00000  Uiso   1.00
N137   N     0.49732   0.03069   0.37162   0.00000  Uiso   1.00
N138   N     0.53119   0.31645   0.14549   0.00000  Uiso   1.00
C139   C     0.47085   0.62965   0.49751   0.00000  Uiso   1.00
C140   C     0.61983   0.62268   0.74673   0.00000  Uiso   1.00
C141   C     0.64424   0.60575   0.88689   0.00000  Uiso   1.00
C142   C     0.78857   0.60194   0.10970   0.00000  Uiso   1.00
C143   C     0.00232   0.58916   0.48455   0.00000  Uiso   1.00
C144   C     0.47398   0.60176   0.39190   0.00000  Uiso   1.00
C145   C     0.37573   0.56725   0.23371   0.00000  Uiso   1.00
C146   C     0.39728   0.54584   0.15781   0.00000  Uiso   1.00
C147   C     0.38452   0.50060   0.98167   0.00000  Uiso   1.00
C148   C     0.46465   0.68052   0.45426   0.00000  Uiso   1.00
C149   C     0.35855   0.71222   0.34844   0.00000  Uiso   1.00
C150   C     0.37223   0.75712   0.32500   0.00000  Uiso   1.00
C151   C     0.34499   0.83416   0.24568   0.00000  Uiso   1.00
C152   C     0.68378   0.65300   0.64397   0.00000  Uiso   1.00
C153   C     0.73548   0.63536   0.82627   0.00000  Uiso   1.00
C154   C     0.87982   0.63158   0.04893   0.00000  Uiso   1.00
C155   C     0.90444   0.61465   0.18940   0.00000  Uiso   1.00
C156   C     0.58963   0.61444   0.47145   0.00000  Uiso   1.00
C157   C     0.61132   0.59307   0.39575   0.00000  Uiso   1.00
C158   C     0.51314   0.55854   0.23750   0.00000  Uiso   1.00
C159   C     0.58031   0.69320   0.53382   0.00000  Uiso   1.00
C160   C     0.59415   0.73805   0.51051   0.00000  Uiso   1.00
C161   C     0.48809   0.76982   0.40469   0.00000  Uiso   1.00
H162   H     0.38080   0.61978   0.43556   0.00000  Uiso   1.00
H163   H     0.55470   0.59594   0.82525   0.00000  Uiso   1.00
H164   H     0.28623   0.55745   0.17216   0.00000  Uiso   1.00
H165   H     0.26907   0.70240   0.28690   0.00000  Uiso   1.00
H166   H     0.79851   0.57508   0.29237   0.00000  Uiso   1.00
H167   H     0.23240   0.49393   0.91524   0.00000  Uiso   1.00
H168   H     0.19619   0.79959   0.15717   0.00000  Uiso   1.00
H169   H     0.77382   0.66287   0.70590   0.00000  Uiso   1.00
H170   H     0.96930   0.64139   0.11044   0.00000  Uiso   1.00
H171   H     0.70083   0.60289   0.45735   0.00000  Uiso   1.00
H172   H     0.68366   0.74785   0.57209   0.00000  Uiso   1.00
H173   H     0.13502   0.61197   0.52384   0.00000  Uiso   1.00
H174   H     0.56890   0.53081   0.14669   0.00000  Uiso   1.00
H175   H     0.53269   0.83648   0.38864   0.00000  Uiso   1.00
O176   O     0.08826   0.57860   0.66933   0.00000  Uiso   1.00
O177   O     0.34553   0.47214   0.86256   0.00000  Uiso   1.00
O178   O     0.29803   0.87316   0.17998   0.00000  Uiso   1.00
N179   N     0.85088   0.58672   0.29133   0.00000  Uiso   1.00
N180   N     0.32161   0.51084   0.00382   0.00000  Uiso   1.00
N181   N     0.28774   0.79660   0.22996   0.00000  Uiso   1.00
N182   N     0.03195   0.60657   0.41589   0.00000  Uiso   1.00
N183   N     0.50268   0.53069   0.12838   0.00000  Uiso   1.00
N184   N     0.46881   0.81645   0.35451   0.00000  Uiso   1.00
