data_job_05779
_audit_creation_date              2018-12-19
_audit_creation_method            'Materials Studio'
_symmetry_space_group_name_H-M    'P1'
_symmetry_Int_Tables_number       1
_symmetry_cell_setting            triclinic
loop_
_symmetry_equiv_pos_as_xyz
  x,y,z
_cell_length_a                    20.2211
_cell_length_b                    10.0265
_cell_length_c                    15.2344
_cell_angle_alpha                 90.0000
_cell_angle_beta                  131.4320
_cell_angle_gamma                 90.0000
loop_
_atom_site_label
_atom_site_type_symbol
_atom_site_fract_x
_atom_site_fract_y
_atom_site_fract_z
_atom_site_U_iso_or_equiv
_atom_site_adp_type
_atom_site_occupancy
C1     C     0.33930   0.15484   0.50249   0.00000  Uiso   1.00
C2     C     0.26546   0.16848   0.50499   0.00000  Uiso   1.00
C3     C     0.26854   0.24543   0.58335   0.00000  Uiso   1.00
C4     C     0.19416   0.24462   0.57118   0.00000  Uiso   1.00
C5     C     0.09087   0.27716   0.58840   0.00000  Uiso   1.00
C6     C     0.35875   0.00599   0.51265   0.00000  Uiso   1.00
C7     C     0.44028   0.94633   0.59746   0.00000  Uiso   1.00
C8     C     0.44443   0.80873   0.59171   0.00000  Uiso   1.00
C9     C     0.48601   0.58903   0.62078   0.00000  Uiso   1.00
C10    C     0.29942   0.19528   0.37951   0.00000  Uiso   1.00
C11    C     0.33108   0.29475   0.35236   0.00000  Uiso   1.00
C12    C     0.28529   0.31650   0.23452   0.00000  Uiso   1.00
C13    C     0.23474   0.39070   0.05686   0.00000  Uiso   1.00
C14    C     0.20171   0.01656   0.34150   0.00000  Uiso   1.00
C15    C     0.19072   0.09337   0.41754   0.00000  Uiso   1.00
C16    C     0.11631   0.09244   0.40524   0.00000  Uiso   1.00
C17    C     0.11928   0.16938   0.48357   0.00000  Uiso   1.00
C18    C     0.28402   0.93088   0.42521   0.00000  Uiso   1.00
C19    C     0.28805   0.79335   0.41934   0.00000  Uiso   1.00
C20    C     0.36957   0.73349   0.50412   0.00000  Uiso   1.00
C21    C     0.22468   0.12018   0.29206   0.00000  Uiso   1.00
C22    C     0.17884   0.14177   0.17424   0.00000  Uiso   1.00
C23    C     0.21042   0.24126   0.14692   0.00000  Uiso   1.00
H24    H     0.39749   0.21331   0.57057   0.00000  Uiso   1.00
H25    H     0.32640   0.30353   0.65102   0.00000  Uiso   1.00
H26    H     0.49811   0.00448   0.66511   0.00000  Uiso   1.00
H27    H     0.38892   0.35285   0.42005   0.00000  Uiso   1.00
H28    H     0.21462   0.37040   0.70168   0.00000  Uiso   1.00
H29    H     0.57670   0.73984   0.73136   0.00000  Uiso   1.00
H30    H     0.34645   0.47445   0.21461   0.00000  Uiso   1.00
H31    H     0.14352   0.95809   0.27342   0.00000  Uiso   1.00
H32    H     0.05848   0.03431   0.33756   0.00000  Uiso   1.00
H33    H     0.23020   0.73526   0.35165   0.00000  Uiso   1.00
H34    H     0.12101   0.08363   0.10660   0.00000  Uiso   1.00
H35    H     0.99718   0.15188   0.44727   0.00000  Uiso   1.00
H36    H     0.35926   0.52133   0.47695   0.00000  Uiso   1.00
H37    H     0.12900   0.25593   0.96020   0.00000  Uiso   1.00
O38    O     0.05455   0.31585   0.62206   0.00000  Uiso   1.00
O39    O     0.52959   0.48860   0.66099   0.00000  Uiso   1.00
O40    O     0.22750   0.45238   0.98302   0.00000  Uiso   1.00
N41    N     0.17511   0.30853   0.63299   0.00000  Uiso   1.00
N42    N     0.51363   0.71900   0.66075   0.00000  Uiso   1.00
N43    N     0.29838   0.40577   0.17763   0.00000  Uiso   1.00
N44    N     0.05810   0.19095   0.49609   0.00000  Uiso   1.00
N45    N     0.39662   0.60142   0.52385   0.00000  Uiso   1.00
N46    N     0.18137   0.28819   0.04073   0.00000  Uiso   1.00
C47    C     0.66070   0.15484   0.99751   0.00000  Uiso   1.00
C48    C     0.73454   0.16848   0.99501   0.00000  Uiso   1.00
C49    C     0.73146   0.24543   0.91665   0.00000  Uiso   1.00
C50    C     0.80584   0.24462   0.92882   0.00000  Uiso   1.00
C51    C     0.90913   0.27716   0.91160   0.00000  Uiso   1.00
C52    C     0.64125   0.00599   0.98735   0.00000  Uiso   1.00
C53    C     0.55972   0.94633   0.90254   0.00000  Uiso   1.00
C54    C     0.55557   0.80873   0.90829   0.00000  Uiso   1.00
C55    C     0.51399   0.58903   0.87922   0.00000  Uiso   1.00
C56    C     0.70058   0.19528   0.12049   0.00000  Uiso   1.00
C57    C     0.66892   0.29475   0.14764   0.00000  Uiso   1.00
C58    C     0.71471   0.31650   0.26548   0.00000  Uiso   1.00
C59    C     0.76526   0.39070   0.44314   0.00000  Uiso   1.00
C60    C     0.79829   0.01656   0.15850   0.00000  Uiso   1.00
C61    C     0.80928   0.09337   0.08246   0.00000  Uiso   1.00
C62    C     0.88369   0.09244   0.09476   0.00000  Uiso   1.00
C63    C     0.88072   0.16938   0.01643   0.00000  Uiso   1.00
C64    C     0.71598   0.93088   0.07479   0.00000  Uiso   1.00
C65    C     0.71195   0.79335   0.08066   0.00000  Uiso   1.00
C66    C     0.63043   0.73349   0.99588   0.00000  Uiso   1.00
C67    C     0.77532   0.12018   0.20794   0.00000  Uiso   1.00
C68    C     0.82116   0.14177   0.32576   0.00000  Uiso   1.00
C69    C     0.78958   0.24126   0.35308   0.00000  Uiso   1.00
H70    H     0.60251   0.21331   0.92943   0.00000  Uiso   1.00
H71    H     0.67360   0.30353   0.84898   0.00000  Uiso   1.00
H72    H     0.50189   0.00448   0.83489   0.00000  Uiso   1.00
H73    H     0.61108   0.35285   0.07995   0.00000  Uiso   1.00
H74    H     0.78538   0.37040   0.79832   0.00000  Uiso   1.00
H75    H     0.42330   0.73984   0.76864   0.00000  Uiso   1.00
H76    H     0.65355   0.47445   0.28539   0.00000  Uiso   1.00
H77    H     0.85648   0.95809   0.22658   0.00000  Uiso   1.00
H78    H     0.94152   0.03431   0.16244   0.00000  Uiso   1.00
H79    H     0.76980   0.73526   0.14835   0.00000  Uiso   1.00
H80    H     0.87899   0.08363   0.39340   0.00000  Uiso   1.00
H81    H     0.00282   0.15188   0.05273   0.00000  Uiso   1.00
H82    H     0.64074   0.52133   0.02305   0.00000  Uiso   1.00
H83    H     0.87100   0.25593   0.53980   0.00000  Uiso   1.00
O84    O     0.94545   0.31585   0.87794   0.00000  Uiso   1.00
O85    O     0.47041   0.48860   0.83901   0.00000  Uiso   1.00
O86    O     0.77250   0.45238   0.51698   0.00000  Uiso   1.00
N87    N     0.82489   0.30853   0.86701   0.00000  Uiso   1.00
N88    N     0.48637   0.71900   0.83925   0.00000  Uiso   1.00
N89    N     0.70162   0.40577   0.32237   0.00000  Uiso   1.00
N90    N     0.94190   0.19095   0.00391   0.00000  Uiso   1.00
N91    N     0.60338   0.60142   0.97615   0.00000  Uiso   1.00
N92    N     0.81863   0.28819   0.45927   0.00000  Uiso   1.00
C93    C     0.66070   0.84516   0.49751   0.00000  Uiso   1.00
C94    C     0.73454   0.83152   0.49501   0.00000  Uiso   1.00
C95    C     0.73146   0.75457   0.41665   0.00000  Uiso   1.00
C96    C     0.80584   0.75538   0.42882   0.00000  Uiso   1.00
C97    C     0.90913   0.72284   0.41160   0.00000  Uiso   1.00
C98    C     0.64125   0.99401   0.48735   0.00000  Uiso   1.00
C99    C     0.55972   0.05367   0.40254   0.00000  Uiso   1.00
C100   C     0.55557   0.19127   0.40829   0.00000  Uiso   1.00
C101   C     0.51399   0.41097   0.37922   0.00000  Uiso   1.00
C102   C     0.70058   0.80472   0.62049   0.00000  Uiso   1.00
C103   C     0.66892   0.70525   0.64764   0.00000  Uiso   1.00
C104   C     0.71471   0.68350   0.76548   0.00000  Uiso   1.00
C105   C     0.76526   0.60930   0.94314   0.00000  Uiso   1.00
C106   C     0.79829   0.98344   0.65850   0.00000  Uiso   1.00
C107   C     0.80928   0.90663   0.58246   0.00000  Uiso   1.00
C108   C     0.88369   0.90756   0.59476   0.00000  Uiso   1.00
C109   C     0.88072   0.83062   0.51643   0.00000  Uiso   1.00
C110   C     0.71598   0.06912   0.57479   0.00000  Uiso   1.00
C111   C     0.71195   0.20665   0.58066   0.00000  Uiso   1.00
C112   C     0.63043   0.26651   0.49588   0.00000  Uiso   1.00
C113   C     0.77532   0.87982   0.70794   0.00000  Uiso   1.00
C114   C     0.82116   0.85823   0.82576   0.00000  Uiso   1.00
C115   C     0.78958   0.75874   0.85308   0.00000  Uiso   1.00
H116   H     0.60251   0.78669   0.42943   0.00000  Uiso   1.00
H117   H     0.67360   0.69647   0.34898   0.00000  Uiso   1.00
H118   H     0.50189   0.99552   0.33489   0.00000  Uiso   1.00
H119   H     0.61108   0.64715   0.57995   0.00000  Uiso   1.00
H120   H     0.78538   0.62960   0.29832   0.00000  Uiso   1.00
H121   H     0.42330   0.26016   0.26864   0.00000  Uiso   1.00
H122   H     0.65355   0.52555   0.78539   0.00000  Uiso   1.00
H123   H     0.85648   0.04191   0.72658   0.00000  Uiso   1.00
H124   H     0.94152   0.96569   0.66244   0.00000  Uiso   1.00
H125   H     0.76980   0.26474   0.64835   0.00000  Uiso   1.00
H126   H     0.87899   0.91637   0.89340   0.00000  Uiso   1.00
H127   H     0.00282   0.84812   0.55273   0.00000  Uiso   1.00
H128   H     0.64074   0.47867   0.52305   0.00000  Uiso   1.00
H129   H     0.87100   0.74407   0.03980   0.00000  Uiso   1.00
O130   O     0.94545   0.68415   0.37794   0.00000  Uiso   1.00
O131   O     0.47041   0.51140   0.33901   0.00000  Uiso   1.00
O132   O     0.77250   0.54762   0.01698   0.00000  Uiso   1.00
N133   N     0.82489   0.69147   0.36701   0.00000  Uiso   1.00
N134   N     0.48637   0.28100   0.33925   0.00000  Uiso   1.00
N135   N     0.70162   0.59423   0.82237   0.00000  Uiso   1.00
N136   N     0.94190   0.80905   0.50391   0.00000  Uiso   1.00
N137   N     0.60338   0.39858   0.47615   0.00000  Uiso   1.00
N138   N     0.81863   0.71181   0.95927   0.00000  Uiso   1.00
C139   C     0.33930   0.84516   0.00249   0.00000  Uiso   1.00
C140   C     0.26546   0.83152   0.00499   0.00000  Uiso   1.00
C141   C     0.26854   0.75457   0.08335   0.00000  Uiso   1.00
C142   C     0.19416   0.75538   0.07118   0.00000  Uiso   1.00
C143   C     0.09087   0.72284   0.08840   0.00000  Uiso   1.00
C144   C     0.35875   0.99401   0.01265   0.00000  Uiso   1.00
C145   C     0.44028   0.05367   0.09746   0.00000  Uiso   1.00
C146   C     0.44443   0.19127   0.09171   0.00000  Uiso   1.00
C147   C     0.48601   0.41097   0.12078   0.00000  Uiso   1.00
C148   C     0.29942   0.80472   0.87951   0.00000  Uiso   1.00
C149   C     0.33108   0.70525   0.85236   0.00000  Uiso   1.00
C150   C     0.28529   0.68350   0.73452   0.00000  Uiso   1.00
C151   C     0.23474   0.60930   0.55686   0.00000  Uiso   1.00
C152   C     0.20171   0.98344   0.84150   0.00000  Uiso   1.00
C153   C     0.19072   0.90663   0.91754   0.00000  Uiso   1.00
C154   C     0.11631   0.90756   0.90524   0.00000  Uiso   1.00
C155   C     0.11928   0.83062   0.98357   0.00000  Uiso   1.00
C156   C     0.28402   0.06912   0.92521   0.00000  Uiso   1.00
C157   C     0.28805   0.20665   0.91934   0.00000  Uiso   1.00
C158   C     0.36957   0.26651   0.00412   0.00000  Uiso   1.00
C159   C     0.22468   0.87982   0.79206   0.00000  Uiso   1.00
C160   C     0.17884   0.85823   0.67424   0.00000  Uiso   1.00
C161   C     0.21042   0.75874   0.64692   0.00000  Uiso   1.00
H162   H     0.39749   0.78669   0.07057   0.00000  Uiso   1.00
H163   H     0.32640   0.69647   0.15102   0.00000  Uiso   1.00
H164   H     0.49811   0.99552   0.16511   0.00000  Uiso   1.00
H165   H     0.38892   0.64715   0.92005   0.00000  Uiso   1.00
H166   H     0.21462   0.62960   0.20168   0.00000  Uiso   1.00
H167   H     0.57670   0.26016   0.23136   0.00000  Uiso   1.00
H168   H     0.34645   0.52555   0.71461   0.00000  Uiso   1.00
H169   H     0.14352   0.04191   0.77342   0.00000  Uiso   1.00
H170   H     0.05848   0.96569   0.83756   0.00000  Uiso   1.00
H171   H     0.23020   0.26474   0.85165   0.00000  Uiso   1.00
H172   H     0.12101   0.91637   0.60660   0.00000  Uiso   1.00
H173   H     0.99718   0.84812   0.94727   0.00000  Uiso   1.00
H174   H     0.35926   0.47867   0.97695   0.00000  Uiso   1.00
H175   H     0.12900   0.74407   0.46020   0.00000  Uiso   1.00
O176   O     0.05455   0.68415   0.12206   0.00000  Uiso   1.00
O177   O     0.52959   0.51140   0.16099   0.00000  Uiso   1.00
O178   O     0.22750   0.54762   0.48302   0.00000  Uiso   1.00
N179   N     0.17511   0.69147   0.13299   0.00000  Uiso   1.00
N180   N     0.51363   0.28100   0.16075   0.00000  Uiso   1.00
N181   N     0.29838   0.59423   0.67763   0.00000  Uiso   1.00
N182   N     0.05810   0.80905   0.99609   0.00000  Uiso   1.00
N183   N     0.39662   0.39858   0.02385   0.00000  Uiso   1.00
N184   N     0.18137   0.71181   0.54073   0.00000  Uiso   1.00
