data_job_06288
_audit_creation_date              2018-12-19
_audit_creation_method            'Materials Studio'
_symmetry_space_group_name_H-M    'P1'
_symmetry_Int_Tables_number       1
_symmetry_cell_setting            triclinic
loop_
_symmetry_equiv_pos_as_xyz
  x,y,z
_cell_length_a                    17.4922
_cell_length_b                    17.5262
_cell_length_c                    17.5921
_cell_angle_alpha                 72.7157
_cell_angle_beta                  72.6504
_cell_angle_gamma                 72.6309
loop_
_atom_site_label
_atom_site_type_symbol
_atom_site_fract_x
_atom_site_fract_y
_atom_site_fract_z
_atom_site_U_iso_or_equiv
_atom_site_adp_type
_atom_site_occupancy
C1     C     0.23446   0.76676   0.78773   0.00000  Uiso   1.00
C2     C     0.26802   0.77320   0.69605   0.00000  Uiso   1.00
C3     C     0.23434   0.83186   0.63473   0.00000  Uiso   1.00
C4     C     0.27418   0.82729   0.55459   0.00000  Uiso   1.00
C5     C     0.31547   0.84656   0.41498   0.00000  Uiso   1.00
C6     C     0.22001   0.68029   0.82402   0.00000  Uiso   1.00
C7     C     0.14597   0.66085   0.87031   0.00000  Uiso   1.00
C8     C     0.14541   0.57807   0.89791   0.00000  Uiso   1.00
C9     C     0.11218   0.45310   0.95703   0.00000  Uiso   1.00
C10    C     0.30487   0.76973   0.82030   0.00000  Uiso   1.00
C11    C     0.30219   0.82546   0.86349   0.00000  Uiso   1.00
C12    C     0.37307   0.81797   0.88798   0.00000  Uiso   1.00
C13    C     0.47161   0.83185   0.94133   0.00000  Uiso   1.00
C14    C     0.36510   0.65432   0.75443   0.00000  Uiso   1.00
C15    C     0.33898   0.71212   0.67796   0.00000  Uiso   1.00
C16    C     0.37889   0.70747   0.59789   0.00000  Uiso   1.00
C17    C     0.34528   0.76611   0.53647   0.00000  Uiso   1.00
C18    C     0.29097   0.61922   0.80594   0.00000  Uiso   1.00
C19    C     0.29052   0.53645   0.83348   0.00000  Uiso   1.00
C20    C     0.21650   0.51689   0.87979   0.00000  Uiso   1.00
C21    C     0.37584   0.70866   0.80222   0.00000  Uiso   1.00
C22    C     0.44674   0.70107   0.82665   0.00000  Uiso   1.00
C23    C     0.44416   0.75678   0.86986   0.00000  Uiso   1.00
H24    H     0.17921   0.81430   0.80181   0.00000  Uiso   1.00
H25    H     0.17942   0.87911   0.64875   0.00000  Uiso   1.00
H26    H     0.09107   0.70812   0.88430   0.00000  Uiso   1.00
H27    H     0.24726   0.87271   0.87747   0.00000  Uiso   1.00
H28    H     0.21093   0.92401   0.47108   0.00000  Uiso   1.00
H29    H     0.02464   0.56348   0.96778   0.00000  Uiso   1.00
H30    H     0.35401   0.91054   0.95339   0.00000  Uiso   1.00
H31    H     0.42035   0.60677   0.74036   0.00000  Uiso   1.00
H32    H     0.43380   0.66020   0.58392   0.00000  Uiso   1.00
H33    H     0.34544   0.48921   0.81947   0.00000  Uiso   1.00
H34    H     0.50164   0.65380   0.81264   0.00000  Uiso   1.00
H35    H     0.41739   0.74633   0.41846   0.00000  Uiso   1.00
H36    H     0.23110   0.38580   0.91517   0.00000  Uiso   1.00
H37    H     0.56047   0.73287   0.90077   0.00000  Uiso   1.00
O38    O     0.31864   0.87404   0.34297   0.00000  Uiso   1.00
O39    O     0.07424   0.40104   0.99464   0.00000  Uiso   1.00
O40    O     0.50637   0.85639   0.97575   0.00000  Uiso   1.00
N41    N     0.25768   0.87487   0.48017   0.00000  Uiso   1.00
N42    N     0.08352   0.53780   0.94454   0.00000  Uiso   1.00
N43    N     0.39144   0.86226   0.93110   0.00000  Uiso   1.00
N44    N     0.36878   0.77927   0.45185   0.00000  Uiso   1.00
N45    N     0.19461   0.44219   0.91622   0.00000  Uiso   1.00
N46    N     0.50254   0.76666   0.90279   0.00000  Uiso   1.00
C47    C     0.78787   0.23445   0.76689   0.00000  Uiso   1.00
C48    C     0.69563   0.26802   0.77348   0.00000  Uiso   1.00
C49    C     0.63392   0.23454   0.83200   0.00000  Uiso   1.00
C50    C     0.55329   0.27436   0.82761   0.00000  Uiso   1.00
C51    C     0.41282   0.31570   0.84706   0.00000  Uiso   1.00
C52    C     0.82433   0.21992   0.68072   0.00000  Uiso   1.00
C53    C     0.87084   0.14599   0.66125   0.00000  Uiso   1.00
C54    C     0.89856   0.14533   0.57877   0.00000  Uiso   1.00
C55    C     0.95796   0.11201   0.45420   0.00000  Uiso   1.00
C56    C     0.82073   0.30467   0.76980   0.00000  Uiso   1.00
C57    C     0.86423   0.30201   0.82522   0.00000  Uiso   1.00
C58    C     0.88894   0.37270   0.81773   0.00000  Uiso   1.00
C59    C     0.94275   0.47097   0.83149   0.00000  Uiso   1.00
C60    C     0.75441   0.36472   0.65502   0.00000  Uiso   1.00
C61    C     0.67745   0.33878   0.71272   0.00000  Uiso   1.00
C62    C     0.59689   0.37867   0.70823   0.00000  Uiso   1.00
C63    C     0.53508   0.34525   0.76674   0.00000  Uiso   1.00
C64    C     0.80616   0.29068   0.61996   0.00000  Uiso   1.00
C65    C     0.83382   0.29013   0.53748   0.00000  Uiso   1.00
C66    C     0.88036   0.21622   0.51789   0.00000  Uiso   1.00
C67    C     0.80255   0.37544   0.70904   0.00000  Uiso   1.00
C68    C     0.82720   0.44614   0.70146   0.00000  Uiso   1.00
C69    C     0.87073   0.44358   0.75686   0.00000  Uiso   1.00
H70    H     0.80203   0.17936   0.81419   0.00000  Uiso   1.00
H71    H     0.64801   0.17977   0.87901   0.00000  Uiso   1.00
H72    H     0.88491   0.09125   0.70828   0.00000  Uiso   1.00
H73    H     0.87829   0.24724   0.87223   0.00000  Uiso   1.00
H74    H     0.46924   0.21142   0.92406   0.00000  Uiso   1.00
H75    H     0.96877   0.02477   0.56407   0.00000  Uiso   1.00
H76    H     0.95482   0.35370   0.90980   0.00000  Uiso   1.00
H77    H     0.74026   0.41982   0.60772   0.00000  Uiso   1.00
H78    H     0.58285   0.43343   0.66121   0.00000  Uiso   1.00
H79    H     0.81975   0.34490   0.49048   0.00000  Uiso   1.00
H80    H     0.81313   0.50089   0.65443   0.00000  Uiso   1.00
H81    H     0.41635   0.41729   0.74728   0.00000  Uiso   1.00
H82    H     0.91589   0.23064   0.38729   0.00000  Uiso   1.00
H83    H     0.90194   0.55958   0.73302   0.00000  Uiso   1.00
O84    O     0.34036   0.31895   0.87457   0.00000  Uiso   1.00
O85    O     0.99574   0.07408   0.40228   0.00000  Uiso   1.00
O86    O     0.97744   0.50563   0.85587   0.00000  Uiso   1.00
N87    N     0.47839   0.25801   0.87512   0.00000  Uiso   1.00
N88    N     0.94542   0.08350   0.53856   0.00000  Uiso   1.00
N89    N     0.93239   0.39102   0.86177   0.00000  Uiso   1.00
N90    N     0.44993   0.36879   0.78000   0.00000  Uiso   1.00
N91    N     0.91696   0.19428   0.44344   0.00000  Uiso   1.00
N92    N     0.90394   0.50180   0.76665   0.00000  Uiso   1.00
C93    C     0.76668   0.78774   0.23414   0.00000  Uiso   1.00
C94    C     0.77325   0.69573   0.26754   0.00000  Uiso   1.00
C95    C     0.83208   0.63408   0.23407   0.00000  Uiso   1.00
C96    C     0.82761   0.55368   0.27371   0.00000  Uiso   1.00
C97    C     0.84708   0.41355   0.31480   0.00000  Uiso   1.00
C98    C     0.67997   0.82419   0.21985   0.00000  Uiso   1.00
C99    C     0.66037   0.87054   0.14628   0.00000  Uiso   1.00
C100   C     0.57738   0.89828   0.14578   0.00000  Uiso   1.00
C101   C     0.45203   0.95763   0.11285   0.00000  Uiso   1.00
C102   C     0.76970   0.82058   0.30408   0.00000  Uiso   1.00
C103   C     0.82552   0.86394   0.30133   0.00000  Uiso   1.00
C104   C     0.81805   0.88866   0.37175   0.00000  Uiso   1.00
C105   C     0.83201   0.94241   0.46959   0.00000  Uiso   1.00
C106   C     0.65414   0.75458   0.36407   0.00000  Uiso   1.00
C107   C     0.71212   0.67772   0.33811   0.00000  Uiso   1.00
C108   C     0.70756   0.59739   0.37781   0.00000  Uiso   1.00
C109   C     0.76637   0.53563   0.34441   0.00000  Uiso   1.00
C110   C     0.61885   0.80618   0.29041   0.00000  Uiso   1.00
C111   C     0.53586   0.83385   0.29003   0.00000  Uiso   1.00
C112   C     0.51614   0.88024   0.21648   0.00000  Uiso   1.00
C113   C     0.70857   0.80257   0.37465   0.00000  Uiso   1.00
C114   C     0.70101   0.82724   0.44508   0.00000  Uiso   1.00
C115   C     0.75681   0.87061   0.44244   0.00000  Uiso   1.00
H116   H     0.81427   0.80177   0.17920   0.00000  Uiso   1.00
H117   H     0.87937   0.64805   0.17945   0.00000  Uiso   1.00
H118   H     0.70769   0.88448   0.09168   0.00000  Uiso   1.00
H119   H     0.87281   0.87786   0.24671   0.00000  Uiso   1.00
H120   H     0.92457   0.46967   0.21083   0.00000  Uiso   1.00
H121   H     0.56258   0.96823   0.02577   0.00000  Uiso   1.00
H122   H     0.91077   0.95428   0.35268   0.00000  Uiso   1.00
H123   H     0.60655   0.74056   0.41901   0.00000  Uiso   1.00
H124   H     0.66025   0.58347   0.43243   0.00000  Uiso   1.00
H125   H     0.48857   0.81991   0.34465   0.00000  Uiso   1.00
H126   H     0.65370   0.81329   0.49968   0.00000  Uiso   1.00
H127   H     0.74672   0.41726   0.41615   0.00000  Uiso   1.00
H128   H     0.38473   0.91582   0.23109   0.00000  Uiso   1.00
H129   H     0.73292   0.90187   0.55800   0.00000  Uiso   1.00
O130   O     0.87470   0.34124   0.31797   0.00000  Uiso   1.00
O131   O     0.39978   0.99534   0.07518   0.00000  Uiso   1.00
O132   O     0.85661   0.97703   0.50408   0.00000  Uiso   1.00
N133   N     0.87535   0.47890   0.25732   0.00000  Uiso   1.00
N134   N     0.53691   0.94501   0.08430   0.00000  Uiso   1.00
N135   N     0.86243   0.93198   0.38992   0.00000  Uiso   1.00
N136   N     0.77965   0.45069   0.36780   0.00000  Uiso   1.00
N137   N     0.44121   0.91680   0.19478   0.00000  Uiso   1.00
N138   N     0.76673   0.90378   0.50040   0.00000  Uiso   1.00
C139   C     0.76554   0.23324   0.21227   0.00000  Uiso   1.00
C140   C     0.73198   0.22680   0.30395   0.00000  Uiso   1.00
C141   C     0.76566   0.16814   0.36527   0.00000  Uiso   1.00
C142   C     0.72581   0.17271   0.44541   0.00000  Uiso   1.00
C143   C     0.68453   0.15344   0.58502   0.00000  Uiso   1.00
C144   C     0.77999   0.31971   0.17598   0.00000  Uiso   1.00
C145   C     0.85403   0.33915   0.12969   0.00000  Uiso   1.00
C146   C     0.85459   0.42193   0.10209   0.00000  Uiso   1.00
C147   C     0.88782   0.54690   0.04297   0.00000  Uiso   1.00
C148   C     0.69513   0.23027   0.17970   0.00000  Uiso   1.00
C149   C     0.69781   0.17454   0.13651   0.00000  Uiso   1.00
C150   C     0.62693   0.18203   0.11202   0.00000  Uiso   1.00
C151   C     0.52839   0.16815   0.05867   0.00000  Uiso   1.00
C152   C     0.63490   0.34568   0.24557   0.00000  Uiso   1.00
C153   C     0.66102   0.28788   0.32204   0.00000  Uiso   1.00
C154   C     0.62111   0.29253   0.40211   0.00000  Uiso   1.00
C155   C     0.65472   0.23389   0.46353   0.00000  Uiso   1.00
C156   C     0.70903   0.38078   0.19406   0.00000  Uiso   1.00
C157   C     0.70948   0.46355   0.16652   0.00000  Uiso   1.00
C158   C     0.78350   0.48311   0.12021   0.00000  Uiso   1.00
C159   C     0.62416   0.29134   0.19778   0.00000  Uiso   1.00
C160   C     0.55326   0.29893   0.17335   0.00000  Uiso   1.00
C161   C     0.55584   0.24322   0.13014   0.00000  Uiso   1.00
H162   H     0.82079   0.18570   0.19819   0.00000  Uiso   1.00
H163   H     0.82058   0.12089   0.35125   0.00000  Uiso   1.00
H164   H     0.90893   0.29188   0.11570   0.00000  Uiso   1.00
H165   H     0.75274   0.12729   0.12253   0.00000  Uiso   1.00
H166   H     0.78907   0.07599   0.52892   0.00000  Uiso   1.00
H167   H     0.97536   0.43652   0.03222   0.00000  Uiso   1.00
H168   H     0.64599   0.08946   0.04661   0.00000  Uiso   1.00
H169   H     0.57965   0.39323   0.25964   0.00000  Uiso   1.00
H170   H     0.56620   0.33980   0.41608   0.00000  Uiso   1.00
H171   H     0.65456   0.51079   0.18053   0.00000  Uiso   1.00
H172   H     0.49836   0.34620   0.18736   0.00000  Uiso   1.00
H173   H     0.58261   0.25367   0.58154   0.00000  Uiso   1.00
H174   H     0.76890   0.61420   0.08483   0.00000  Uiso   1.00
H175   H     0.43953   0.26713   0.09923   0.00000  Uiso   1.00
O176   O     0.68136   0.12596   0.65703   0.00000  Uiso   1.00
O177   O     0.92576   0.59896   0.00536   0.00000  Uiso   1.00
O178   O     0.49363   0.14361   0.02425   0.00000  Uiso   1.00
N179   N     0.74232   0.12513   0.51983   0.00000  Uiso   1.00
N180   N     0.91648   0.46220   0.05546   0.00000  Uiso   1.00
N181   N     0.60856   0.13774   0.06890   0.00000  Uiso   1.00
N182   N     0.63122   0.22073   0.54815   0.00000  Uiso   1.00
N183   N     0.80539   0.55781   0.08378   0.00000  Uiso   1.00
N184   N     0.49746   0.23334   0.09721   0.00000  Uiso   1.00
C185   C     0.21213   0.76555   0.23311   0.00000  Uiso   1.00
C186   C     0.30437   0.73198   0.22652   0.00000  Uiso   1.00
C187   C     0.36608   0.76546   0.16800   0.00000  Uiso   1.00
C188   C     0.44671   0.72564   0.17239   0.00000  Uiso   1.00
C189   C     0.58718   0.68430   0.15294   0.00000  Uiso   1.00
C190   C     0.17567   0.78008   0.31928   0.00000  Uiso   1.00
C191   C     0.12915   0.85401   0.33875   0.00000  Uiso   1.00
C192   C     0.10143   0.85467   0.42123   0.00000  Uiso   1.00
C193   C     0.04204   0.88799   0.54580   0.00000  Uiso   1.00
C194   C     0.17927   0.69533   0.23020   0.00000  Uiso   1.00
C195   C     0.13577   0.69799   0.17478   0.00000  Uiso   1.00
C196   C     0.11106   0.62730   0.18227   0.00000  Uiso   1.00
C197   C     0.05725   0.52903   0.16851   0.00000  Uiso   1.00
C198   C     0.24559   0.63528   0.34498   0.00000  Uiso   1.00
C199   C     0.32255   0.66122   0.28728   0.00000  Uiso   1.00
C200   C     0.40311   0.62133   0.29177   0.00000  Uiso   1.00
C201   C     0.46492   0.65475   0.23326   0.00000  Uiso   1.00
C202   C     0.19384   0.70932   0.38004   0.00000  Uiso   1.00
C203   C     0.16618   0.70987   0.46252   0.00000  Uiso   1.00
C204   C     0.11964   0.78378   0.48211   0.00000  Uiso   1.00
C205   C     0.19745   0.62456   0.29096   0.00000  Uiso   1.00
C206   C     0.17280   0.55386   0.29854   0.00000  Uiso   1.00
C207   C     0.12927   0.55642   0.24314   0.00000  Uiso   1.00
H208   H     0.19797   0.82064   0.18581   0.00000  Uiso   1.00
H209   H     0.35199   0.82023   0.12099   0.00000  Uiso   1.00
H210   H     0.11509   0.90875   0.29172   0.00000  Uiso   1.00
H211   H     0.12171   0.75276   0.12777   0.00000  Uiso   1.00
H212   H     0.53076   0.78858   0.07594   0.00000  Uiso   1.00
H213   H     0.03123   0.97523   0.43593   0.00000  Uiso   1.00
H214   H     0.04518   0.64630   0.09020   0.00000  Uiso   1.00
H215   H     0.25974   0.58018   0.39228   0.00000  Uiso   1.00
H216   H     0.41715   0.56657   0.33879   0.00000  Uiso   1.00
H217   H     0.18025   0.65510   0.50952   0.00000  Uiso   1.00
H218   H     0.18687   0.49911   0.34557   0.00000  Uiso   1.00
H219   H     0.58365   0.58271   0.25272   0.00000  Uiso   1.00
H220   H     0.08411   0.76936   0.61271   0.00000  Uiso   1.00
H221   H     0.09806   0.44042   0.26698   0.00000  Uiso   1.00
O222   O     0.65964   0.68105   0.12543   0.00000  Uiso   1.00
O223   O     0.00426   0.92592   0.59772   0.00000  Uiso   1.00
O224   O     0.02256   0.49437   0.14413   0.00000  Uiso   1.00
N225   N     0.52161   0.74199   0.12488   0.00000  Uiso   1.00
N226   N     0.05458   0.91650   0.46144   0.00000  Uiso   1.00
N227   N     0.06760   0.60898   0.13823   0.00000  Uiso   1.00
N228   N     0.55007   0.63121   0.22000   0.00000  Uiso   1.00
N229   N     0.08304   0.80572   0.55656   0.00000  Uiso   1.00
N230   N     0.09606   0.49820   0.23335   0.00000  Uiso   1.00
C231   C     0.23331   0.21226   0.76586   0.00000  Uiso   1.00
C232   C     0.22675   0.30427   0.73246   0.00000  Uiso   1.00
C233   C     0.16792   0.36592   0.76593   0.00000  Uiso   1.00
C234   C     0.17239   0.44632   0.72629   0.00000  Uiso   1.00
C235   C     0.15292   0.58645   0.68520   0.00000  Uiso   1.00
C236   C     0.32003   0.17581   0.78015   0.00000  Uiso   1.00
C237   C     0.33963   0.12946   0.85372   0.00000  Uiso   1.00
C238   C     0.42262   0.10172   0.85422   0.00000  Uiso   1.00
C239   C     0.54797   0.04237   0.88715   0.00000  Uiso   1.00
C240   C     0.23030   0.17942   0.69592   0.00000  Uiso   1.00
C241   C     0.17448   0.13606   0.69867   0.00000  Uiso   1.00
C242   C     0.18195   0.11134   0.62825   0.00000  Uiso   1.00
C243   C     0.16799   0.05759   0.53041   0.00000  Uiso   1.00
C244   C     0.34586   0.24542   0.63593   0.00000  Uiso   1.00
C245   C     0.28788   0.32228   0.66189   0.00000  Uiso   1.00
C246   C     0.29244   0.40261   0.62219   0.00000  Uiso   1.00
C247   C     0.23363   0.46437   0.65559   0.00000  Uiso   1.00
C248   C     0.38115   0.19382   0.70959   0.00000  Uiso   1.00
C249   C     0.46414   0.16615   0.70997   0.00000  Uiso   1.00
C250   C     0.48386   0.11976   0.78352   0.00000  Uiso   1.00
C251   C     0.29143   0.19743   0.62535   0.00000  Uiso   1.00
C252   C     0.29899   0.17276   0.55492   0.00000  Uiso   1.00
C253   C     0.24319   0.12939   0.55756   0.00000  Uiso   1.00
H254   H     0.18573   0.19823   0.82080   0.00000  Uiso   1.00
H255   H     0.12063   0.35195   0.82055   0.00000  Uiso   1.00
H256   H     0.29231   0.11552   0.90832   0.00000  Uiso   1.00
H257   H     0.12719   0.12214   0.75329   0.00000  Uiso   1.00
H258   H     0.07543   0.53033   0.78917   0.00000  Uiso   1.00
H259   H     0.43742   0.03177   0.97423   0.00000  Uiso   1.00
H260   H     0.08923   0.04572   0.64732   0.00000  Uiso   1.00
H261   H     0.39345   0.25944   0.58099   0.00000  Uiso   1.00
H262   H     0.33975   0.41653   0.56757   0.00000  Uiso   1.00
H263   H     0.51143   0.18009   0.65535   0.00000  Uiso   1.00
H264   H     0.34630   0.18671   0.50032   0.00000  Uiso   1.00
H265   H     0.25328   0.58274   0.58385   0.00000  Uiso   1.00
H266   H     0.61527   0.08418   0.76891   0.00000  Uiso   1.00
H267   H     0.26708   0.09813   0.44200   0.00000  Uiso   1.00
O268   O     0.12530   0.65876   0.68203   0.00000  Uiso   1.00
O269   O     0.60022   0.00466   0.92482   0.00000  Uiso   1.00
O270   O     0.14339   0.02297   0.49592   0.00000  Uiso   1.00
N271   N     0.12465   0.52110   0.74268   0.00000  Uiso   1.00
N272   N     0.46309   0.05499   0.91570   0.00000  Uiso   1.00
N273   N     0.13757   0.06802   0.61008   0.00000  Uiso   1.00
N274   N     0.22035   0.54931   0.63220   0.00000  Uiso   1.00
N275   N     0.55879   0.08320   0.80522   0.00000  Uiso   1.00
N276   N     0.23327   0.09622   0.49960   0.00000  Uiso   1.00
