data_job_03618
_audit_creation_date              2018-12-19
_audit_creation_method            'Materials Studio'
_symmetry_space_group_name_H-M    'P1'
_symmetry_Int_Tables_number       1
_symmetry_cell_setting            triclinic
loop_
_symmetry_equiv_pos_as_xyz
  x,y,z
_cell_length_a                    11.4676
_cell_length_b                    12.4434
_cell_length_c                    12.7530
_cell_angle_alpha                 81.1073
_cell_angle_beta                  67.3060
_cell_angle_gamma                 92.5971
loop_
_atom_site_label
_atom_site_type_symbol
_atom_site_fract_x
_atom_site_fract_y
_atom_site_fract_z
_atom_site_U_iso_or_equiv
_atom_site_adp_type
_atom_site_occupancy
C1     C     0.18585   0.34955   0.52106   0.00000  Uiso   1.00
C2     C     0.25239   0.34418   0.60442   0.00000  Uiso   1.00
C3     C     0.29027   0.43275   0.64258   0.00000  Uiso   1.00
C4     C     0.34970   0.41078   0.71872   0.00000  Uiso   1.00
C5     C     0.44993   0.41869   0.84254   0.00000  Uiso   1.00
C6     C     0.26864   0.29745   0.42104   0.00000  Uiso   1.00
C7     C     0.32015   0.34674   0.30504   0.00000  Uiso   1.00
C8     C     0.39325   0.28543   0.22682   0.00000  Uiso   1.00
C9     C     0.51862   0.22077   0.06594   0.00000  Uiso   1.00
C10    C     0.06270   0.27233   0.58387   0.00000  Uiso   1.00
C11    C     0.94106   0.30049   0.60473   0.00000  Uiso   1.00
C12    C     0.84077   0.21802   0.66358   0.00000  Uiso   1.00
C13    C     0.64639   0.11436   0.75551   0.00000  Uiso   1.00
C14    C     0.22404   0.15302   0.58841   0.00000  Uiso   1.00
C15    C     0.27314   0.23743   0.64099   0.00000  Uiso   1.00
C16    C     0.33252   0.21532   0.71710   0.00000  Uiso   1.00
C17    C     0.37048   0.30385   0.75538   0.00000  Uiso   1.00
C18    C     0.28939   0.19071   0.45762   0.00000  Uiso   1.00
C19    C     0.36241   0.12931   0.37956   0.00000  Uiso   1.00
C20    C     0.41403   0.17849   0.26346   0.00000  Uiso   1.00
C21    C     0.08344   0.16559   0.62045   0.00000  Uiso   1.00
C22    C     0.98332   0.08306   0.67926   0.00000  Uiso   1.00
C23    C     0.86155   0.11109   0.70022   0.00000  Uiso   1.00
H24    H     0.16970   0.43265   0.49257   0.00000  Uiso   1.00
H25    H     0.27421   0.51535   0.61424   0.00000  Uiso   1.00
H26    H     0.30407   0.42934   0.27675   0.00000  Uiso   1.00
H27    H     0.92504   0.38310   0.57641   0.00000  Uiso   1.00
H28    H     0.39926   0.55996   0.76524   0.00000  Uiso   1.00
H29    H     0.46220   0.37861   0.05362   0.00000  Uiso   1.00
H30    H     0.66294   0.28110   0.68550   0.00000  Uiso   1.00
H31    H     0.24020   0.06991   0.61690   0.00000  Uiso   1.00
H32    H     0.34857   0.13271   0.74540   0.00000  Uiso   1.00
H33    H     0.37844   0.04671   0.40790   0.00000  Uiso   1.00
H34    H     0.99941   0.00047   0.70756   0.00000  Uiso   1.00
H35    H     0.45962   0.24940   0.87169   0.00000  Uiso   1.00
H36    H     0.52256   0.06805   0.16006   0.00000  Uiso   1.00
H37    H     0.72330   0.97053   0.79195   0.00000  Uiso   1.00
O38    O     0.49950   0.45254   0.90072   0.00000  Uiso   1.00
O39    O     0.58205   0.21460   0.96710   0.00000  Uiso   1.00
O40    O     0.53345   0.08667   0.79612   0.00000  Uiso   1.00
N41    N     0.39857   0.47825   0.77267   0.00000  Uiso   1.00
N42    N     0.45744   0.30870   0.10735   0.00000  Uiso   1.00
N43    N     0.71019   0.21753   0.69808   0.00000  Uiso   1.00
N44    N     0.43105   0.31114   0.82995   0.00000  Uiso   1.00
N45    N     0.48991   0.14159   0.16463   0.00000  Uiso   1.00
N46    N     0.74267   0.05042   0.75536   0.00000  Uiso   1.00
C47    C     0.81415   0.65045   0.47894   0.00000  Uiso   1.00
C48    C     0.74761   0.65582   0.39558   0.00000  Uiso   1.00
C49    C     0.70973   0.56725   0.35742   0.00000  Uiso   1.00
C50    C     0.65030   0.58922   0.28128   0.00000  Uiso   1.00
C51    C     0.55007   0.58131   0.15746   0.00000  Uiso   1.00
C52    C     0.73136   0.70255   0.57896   0.00000  Uiso   1.00
C53    C     0.67985   0.65326   0.69496   0.00000  Uiso   1.00
C54    C     0.60675   0.71457   0.77318   0.00000  Uiso   1.00
C55    C     0.48138   0.77923   0.93406   0.00000  Uiso   1.00
C56    C     0.93730   0.72767   0.41613   0.00000  Uiso   1.00
C57    C     0.05894   0.69951   0.39527   0.00000  Uiso   1.00
C58    C     0.15923   0.78198   0.33642   0.00000  Uiso   1.00
C59    C     0.35361   0.88564   0.24449   0.00000  Uiso   1.00
C60    C     0.77596   0.84698   0.41159   0.00000  Uiso   1.00
C61    C     0.72686   0.76257   0.35901   0.00000  Uiso   1.00
C62    C     0.66748   0.78468   0.28290   0.00000  Uiso   1.00
C63    C     0.62952   0.69615   0.24462   0.00000  Uiso   1.00
C64    C     0.71061   0.80929   0.54238   0.00000  Uiso   1.00
C65    C     0.63759   0.87069   0.62044   0.00000  Uiso   1.00
C66    C     0.58597   0.82151   0.73654   0.00000  Uiso   1.00
C67    C     0.91656   0.83441   0.37955   0.00000  Uiso   1.00
C68    C     0.01668   0.91694   0.32074   0.00000  Uiso   1.00
C69    C     0.13845   0.88891   0.29978   0.00000  Uiso   1.00
H70    H     0.83030   0.56735   0.50743   0.00000  Uiso   1.00
H71    H     0.72579   0.48465   0.38576   0.00000  Uiso   1.00
H72    H     0.69593   0.57066   0.72325   0.00000  Uiso   1.00
H73    H     0.07496   0.61690   0.42359   0.00000  Uiso   1.00
H74    H     0.60074   0.44004   0.23476   0.00000  Uiso   1.00
H75    H     0.53780   0.62139   0.94638   0.00000  Uiso   1.00
H76    H     0.33706   0.71890   0.31450   0.00000  Uiso   1.00
H77    H     0.75980   0.93009   0.38310   0.00000  Uiso   1.00
H78    H     0.65143   0.86729   0.25460   0.00000  Uiso   1.00
H79    H     0.62156   0.95329   0.59210   0.00000  Uiso   1.00
H80    H     0.00059   0.99953   0.29244   0.00000  Uiso   1.00
H81    H     0.54038   0.75060   0.12831   0.00000  Uiso   1.00
H82    H     0.47744   0.93195   0.83994   0.00000  Uiso   1.00
H83    H     0.27670   0.02947   0.20805   0.00000  Uiso   1.00
O84    O     0.50050   0.54746   0.09928   0.00000  Uiso   1.00
O85    O     0.41795   0.78540   0.03290   0.00000  Uiso   1.00
O86    O     0.46655   0.91333   0.20388   0.00000  Uiso   1.00
N87    N     0.60143   0.52175   0.22733   0.00000  Uiso   1.00
N88    N     0.54256   0.69130   0.89265   0.00000  Uiso   1.00
N89    N     0.28981   0.78247   0.30192   0.00000  Uiso   1.00
N90    N     0.56895   0.68886   0.17005   0.00000  Uiso   1.00
N91    N     0.51009   0.85841   0.83537   0.00000  Uiso   1.00
N92    N     0.25733   0.94958   0.24464   0.00000  Uiso   1.00
