data_job_04216
_audit_creation_date              2018-12-19
_audit_creation_method            'Materials Studio'
_symmetry_space_group_name_H-M    'P1'
_symmetry_Int_Tables_number       1
_symmetry_cell_setting            triclinic
loop_
_symmetry_equiv_pos_as_xyz
  x,y,z
_cell_length_a                    33.6199
_cell_length_b                    18.6459
_cell_length_c                    12.7548
_cell_angle_alpha                 90.0000
_cell_angle_beta                  86.7963
_cell_angle_gamma                 90.0000
loop_
_atom_site_label
_atom_site_type_symbol
_atom_site_fract_x
_atom_site_fract_y
_atom_site_fract_z
_atom_site_U_iso_or_equiv
_atom_site_adp_type
_atom_site_occupancy
C1     C     0.32327   0.35161   0.53392   0.00000  Uiso   1.00
C2     C     0.35877   0.31550   0.47596   0.00000  Uiso   1.00
C3     C     0.35878   0.28483   0.37683   0.00000  Uiso   1.00
C4     C     0.39426   0.25448   0.33749   0.00000  Uiso   1.00
C5     C     0.44417   0.19833   0.23873   0.00000  Uiso   1.00
C6     C     0.31724   0.31259   0.63867   0.00000  Uiso   1.00
C7     C     0.28234   0.27948   0.67634   0.00000  Uiso   1.00
C8     C     0.28286   0.24668   0.77399   0.00000  Uiso   1.00
C9     C     0.26829   0.18606   0.92787   0.00000  Uiso   1.00
C10    C     0.33696   0.42717   0.56006   0.00000  Uiso   1.00
C11    C     0.31863   0.49040   0.53166   0.00000  Uiso   1.00
C12    C     0.33574   0.55408   0.56314   0.00000  Uiso   1.00
C13    C     0.35178   0.67136   0.59496   0.00000  Uiso   1.00
C14    C     0.38625   0.35226   0.64035   0.00000  Uiso   1.00
C15    C     0.39298   0.31586   0.53378   0.00000  Uiso   1.00
C16    C     0.42846   0.28555   0.49458   0.00000  Uiso   1.00
C17    C     0.42853   0.25484   0.39540   0.00000  Uiso   1.00
C18    C     0.35145   0.31294   0.69648   0.00000  Uiso   1.00
C19    C     0.35202   0.28019   0.79410   0.00000  Uiso   1.00
C20    C     0.31713   0.24704   0.83191   0.00000  Uiso   1.00
C21    C     0.37117   0.42753   0.61787   0.00000  Uiso   1.00
C22    C     0.38831   0.49112   0.64941   0.00000  Uiso   1.00
C23    C     0.37001   0.55444   0.62106   0.00000  Uiso   1.00
H24    H     0.29664   0.35133   0.48892   0.00000  Uiso   1.00
H25    H     0.33230   0.28456   0.33212   0.00000  Uiso   1.00
H26    H     0.25587   0.27922   0.63159   0.00000  Uiso   1.00
H27    H     0.29216   0.49011   0.48692   0.00000  Uiso   1.00
H28    H     0.38693   0.21067   0.18379   0.00000  Uiso   1.00
H29    H     0.22576   0.19942   0.81527   0.00000  Uiso   1.00
H30    H     0.30227   0.64413   0.51020   0.00000  Uiso   1.00
H31    H     0.41288   0.35253   0.68536   0.00000  Uiso   1.00
H32    H     0.45493   0.28583   0.53934   0.00000  Uiso   1.00
H33    H     0.37850   0.28048   0.83882   0.00000  Uiso   1.00
H34    H     0.41478   0.49137   0.69414   0.00000  Uiso   1.00
H35    H     0.48646   0.21169   0.35198   0.00000  Uiso   1.00
H36    H     0.32529   0.20044   0.98346   0.00000  Uiso   1.00
H37    H     0.40180   0.64515   0.67839   0.00000  Uiso   1.00
O38    O     0.46225   0.16726   0.16829   0.00000  Uiso   1.00
O39    O     0.25080   0.15251   0.99677   0.00000  Uiso   1.00
O40    O     0.35119   0.73596   0.59654   0.00000  Uiso   1.00
N41    N     0.40458   0.22007   0.24340   0.00000  Uiso   1.00
N42    N     0.25390   0.20955   0.83379   0.00000  Uiso   1.00
N43    N     0.32543   0.62531   0.54861   0.00000  Uiso   1.00
N44    N     0.45814   0.22063   0.33390   0.00000  Uiso   1.00
N45    N     0.30746   0.21010   0.92429   0.00000  Uiso   1.00
N46    N     0.37898   0.62587   0.63911   0.00000  Uiso   1.00
C47    C     0.82327   0.85161   0.53392   0.00000  Uiso   1.00
C48    C     0.85877   0.81550   0.47596   0.00000  Uiso   1.00
C49    C     0.85878   0.78483   0.37683   0.00000  Uiso   1.00
C50    C     0.89426   0.75448   0.33749   0.00000  Uiso   1.00
C51    C     0.94417   0.69833   0.23873   0.00000  Uiso   1.00
C52    C     0.81724   0.81259   0.63867   0.00000  Uiso   1.00
C53    C     0.78234   0.77948   0.67634   0.00000  Uiso   1.00
C54    C     0.78286   0.74668   0.77399   0.00000  Uiso   1.00
C55    C     0.76829   0.68606   0.92787   0.00000  Uiso   1.00
C56    C     0.83696   0.92717   0.56006   0.00000  Uiso   1.00
C57    C     0.81863   0.99040   0.53166   0.00000  Uiso   1.00
C58    C     0.83574   0.05408   0.56314   0.00000  Uiso   1.00
C59    C     0.85178   0.17136   0.59496   0.00000  Uiso   1.00
C60    C     0.88625   0.85226   0.64035   0.00000  Uiso   1.00
C61    C     0.89298   0.81586   0.53378   0.00000  Uiso   1.00
C62    C     0.92846   0.78555   0.49458   0.00000  Uiso   1.00
C63    C     0.92853   0.75484   0.39540   0.00000  Uiso   1.00
C64    C     0.85145   0.81294   0.69648   0.00000  Uiso   1.00
C65    C     0.85202   0.78019   0.79410   0.00000  Uiso   1.00
C66    C     0.81713   0.74704   0.83191   0.00000  Uiso   1.00
C67    C     0.87117   0.92753   0.61787   0.00000  Uiso   1.00
C68    C     0.88831   0.99112   0.64941   0.00000  Uiso   1.00
C69    C     0.87001   0.05444   0.62106   0.00000  Uiso   1.00
H70    H     0.79664   0.85133   0.48892   0.00000  Uiso   1.00
H71    H     0.83230   0.78456   0.33212   0.00000  Uiso   1.00
H72    H     0.75587   0.77922   0.63159   0.00000  Uiso   1.00
H73    H     0.79216   0.99011   0.48692   0.00000  Uiso   1.00
H74    H     0.88693   0.71067   0.18379   0.00000  Uiso   1.00
H75    H     0.72576   0.69942   0.81527   0.00000  Uiso   1.00
H76    H     0.80227   0.14413   0.51020   0.00000  Uiso   1.00
H77    H     0.91288   0.85253   0.68536   0.00000  Uiso   1.00
H78    H     0.95493   0.78583   0.53934   0.00000  Uiso   1.00
H79    H     0.87850   0.78048   0.83882   0.00000  Uiso   1.00
H80    H     0.91478   0.99137   0.69414   0.00000  Uiso   1.00
H81    H     0.98646   0.71169   0.35198   0.00000  Uiso   1.00
H82    H     0.82529   0.70044   0.98346   0.00000  Uiso   1.00
H83    H     0.90180   0.14515   0.67839   0.00000  Uiso   1.00
O84    O     0.96225   0.66726   0.16829   0.00000  Uiso   1.00
O85    O     0.75080   0.65251   0.99677   0.00000  Uiso   1.00
O86    O     0.85119   0.23596   0.59654   0.00000  Uiso   1.00
N87    N     0.90458   0.72007   0.24340   0.00000  Uiso   1.00
N88    N     0.75390   0.70955   0.83379   0.00000  Uiso   1.00
N89    N     0.82543   0.12531   0.54861   0.00000  Uiso   1.00
N90    N     0.95814   0.72063   0.33390   0.00000  Uiso   1.00
N91    N     0.80746   0.71010   0.92429   0.00000  Uiso   1.00
N92    N     0.87898   0.12587   0.63911   0.00000  Uiso   1.00
C93    C     0.67673   0.35161   0.96608   0.00000  Uiso   1.00
C94    C     0.64123   0.31550   0.02404   0.00000  Uiso   1.00
C95    C     0.64122   0.28483   0.12317   0.00000  Uiso   1.00
C96    C     0.60574   0.25448   0.16251   0.00000  Uiso   1.00
C97    C     0.55583   0.19833   0.26127   0.00000  Uiso   1.00
C98    C     0.68276   0.31259   0.86133   0.00000  Uiso   1.00
C99    C     0.71766   0.27948   0.82366   0.00000  Uiso   1.00
C100   C     0.71714   0.24668   0.72601   0.00000  Uiso   1.00
C101   C     0.73171   0.18606   0.57213   0.00000  Uiso   1.00
C102   C     0.66304   0.42717   0.93994   0.00000  Uiso   1.00
C103   C     0.68137   0.49040   0.96834   0.00000  Uiso   1.00
C104   C     0.66426   0.55408   0.93686   0.00000  Uiso   1.00
C105   C     0.64822   0.67136   0.90504   0.00000  Uiso   1.00
C106   C     0.61375   0.35226   0.85965   0.00000  Uiso   1.00
C107   C     0.60702   0.31586   0.96622   0.00000  Uiso   1.00
C108   C     0.57154   0.28555   0.00542   0.00000  Uiso   1.00
C109   C     0.57147   0.25484   0.10460   0.00000  Uiso   1.00
C110   C     0.64855   0.31294   0.80352   0.00000  Uiso   1.00
C111   C     0.64798   0.28019   0.70590   0.00000  Uiso   1.00
C112   C     0.68287   0.24704   0.66809   0.00000  Uiso   1.00
C113   C     0.62883   0.42753   0.88213   0.00000  Uiso   1.00
C114   C     0.61169   0.49112   0.85059   0.00000  Uiso   1.00
C115   C     0.62999   0.55444   0.87894   0.00000  Uiso   1.00
H116   H     0.70336   0.35133   0.01108   0.00000  Uiso   1.00
H117   H     0.66770   0.28456   0.16788   0.00000  Uiso   1.00
H118   H     0.74413   0.27922   0.86841   0.00000  Uiso   1.00
H119   H     0.70784   0.49011   0.01308   0.00000  Uiso   1.00
H120   H     0.61307   0.21067   0.31621   0.00000  Uiso   1.00
H121   H     0.77424   0.19942   0.68473   0.00000  Uiso   1.00
H122   H     0.69773   0.64413   0.98980   0.00000  Uiso   1.00
H123   H     0.58712   0.35253   0.81464   0.00000  Uiso   1.00
H124   H     0.54507   0.28583   0.96066   0.00000  Uiso   1.00
H125   H     0.62150   0.28048   0.66118   0.00000  Uiso   1.00
H126   H     0.58522   0.49137   0.80586   0.00000  Uiso   1.00
H127   H     0.51354   0.21169   0.14802   0.00000  Uiso   1.00
H128   H     0.67471   0.20044   0.51654   0.00000  Uiso   1.00
H129   H     0.59820   0.64515   0.82161   0.00000  Uiso   1.00
O130   O     0.53775   0.16726   0.33171   0.00000  Uiso   1.00
O131   O     0.74920   0.15251   0.50323   0.00000  Uiso   1.00
O132   O     0.64881   0.73596   0.90346   0.00000  Uiso   1.00
N133   N     0.59542   0.22007   0.25660   0.00000  Uiso   1.00
N134   N     0.74610   0.20955   0.66621   0.00000  Uiso   1.00
N135   N     0.67457   0.62531   0.95139   0.00000  Uiso   1.00
N136   N     0.54186   0.22063   0.16610   0.00000  Uiso   1.00
N137   N     0.69254   0.21010   0.57571   0.00000  Uiso   1.00
N138   N     0.62102   0.62587   0.86089   0.00000  Uiso   1.00
C139   C     0.17673   0.85161   0.96608   0.00000  Uiso   1.00
C140   C     0.14123   0.81550   0.02404   0.00000  Uiso   1.00
C141   C     0.14122   0.78483   0.12317   0.00000  Uiso   1.00
C142   C     0.10574   0.75448   0.16251   0.00000  Uiso   1.00
C143   C     0.05583   0.69833   0.26127   0.00000  Uiso   1.00
C144   C     0.18276   0.81259   0.86133   0.00000  Uiso   1.00
C145   C     0.21766   0.77948   0.82366   0.00000  Uiso   1.00
C146   C     0.21714   0.74668   0.72601   0.00000  Uiso   1.00
C147   C     0.23171   0.68606   0.57213   0.00000  Uiso   1.00
C148   C     0.16304   0.92717   0.93994   0.00000  Uiso   1.00
C149   C     0.18137   0.99040   0.96834   0.00000  Uiso   1.00
C150   C     0.16426   0.05408   0.93686   0.00000  Uiso   1.00
C151   C     0.14822   0.17136   0.90504   0.00000  Uiso   1.00
C152   C     0.11375   0.85226   0.85965   0.00000  Uiso   1.00
C153   C     0.10702   0.81586   0.96622   0.00000  Uiso   1.00
C154   C     0.07154   0.78555   0.00542   0.00000  Uiso   1.00
C155   C     0.07147   0.75484   0.10460   0.00000  Uiso   1.00
C156   C     0.14855   0.81294   0.80352   0.00000  Uiso   1.00
C157   C     0.14798   0.78019   0.70590   0.00000  Uiso   1.00
C158   C     0.18287   0.74704   0.66809   0.00000  Uiso   1.00
C159   C     0.12883   0.92753   0.88213   0.00000  Uiso   1.00
C160   C     0.11169   0.99112   0.85059   0.00000  Uiso   1.00
C161   C     0.12999   0.05444   0.87894   0.00000  Uiso   1.00
H162   H     0.20336   0.85133   0.01108   0.00000  Uiso   1.00
H163   H     0.16770   0.78456   0.16788   0.00000  Uiso   1.00
H164   H     0.24413   0.77922   0.86841   0.00000  Uiso   1.00
H165   H     0.20784   0.99011   0.01308   0.00000  Uiso   1.00
H166   H     0.11307   0.71067   0.31621   0.00000  Uiso   1.00
H167   H     0.27424   0.69942   0.68473   0.00000  Uiso   1.00
H168   H     0.19773   0.14413   0.98980   0.00000  Uiso   1.00
H169   H     0.08712   0.85253   0.81464   0.00000  Uiso   1.00
H170   H     0.04507   0.78583   0.96066   0.00000  Uiso   1.00
H171   H     0.12150   0.78048   0.66118   0.00000  Uiso   1.00
H172   H     0.08522   0.99137   0.80586   0.00000  Uiso   1.00
H173   H     0.01354   0.71169   0.14802   0.00000  Uiso   1.00
H174   H     0.17471   0.70044   0.51654   0.00000  Uiso   1.00
H175   H     0.09820   0.14515   0.82161   0.00000  Uiso   1.00
O176   O     0.03775   0.66726   0.33171   0.00000  Uiso   1.00
O177   O     0.24920   0.65251   0.50323   0.00000  Uiso   1.00
O178   O     0.14881   0.23596   0.90346   0.00000  Uiso   1.00
N179   N     0.09542   0.72007   0.25660   0.00000  Uiso   1.00
N180   N     0.24610   0.70955   0.66621   0.00000  Uiso   1.00
N181   N     0.17457   0.12531   0.95139   0.00000  Uiso   1.00
N182   N     0.04186   0.72063   0.16610   0.00000  Uiso   1.00
N183   N     0.19254   0.71010   0.57571   0.00000  Uiso   1.00
N184   N     0.12102   0.12587   0.86089   0.00000  Uiso   1.00
C185   C     0.67673   0.64839   0.46608   0.00000  Uiso   1.00
C186   C     0.64123   0.68450   0.52404   0.00000  Uiso   1.00
C187   C     0.64122   0.71517   0.62317   0.00000  Uiso   1.00
C188   C     0.60574   0.74552   0.66251   0.00000  Uiso   1.00
C189   C     0.55583   0.80167   0.76127   0.00000  Uiso   1.00
C190   C     0.68276   0.68741   0.36133   0.00000  Uiso   1.00
C191   C     0.71766   0.72052   0.32366   0.00000  Uiso   1.00
C192   C     0.71714   0.75332   0.22601   0.00000  Uiso   1.00
C193   C     0.73171   0.81394   0.07213   0.00000  Uiso   1.00
C194   C     0.66304   0.57283   0.43994   0.00000  Uiso   1.00
C195   C     0.68137   0.50960   0.46834   0.00000  Uiso   1.00
C196   C     0.66426   0.44592   0.43686   0.00000  Uiso   1.00
C197   C     0.64822   0.32864   0.40504   0.00000  Uiso   1.00
C198   C     0.61375   0.64774   0.35965   0.00000  Uiso   1.00
C199   C     0.60702   0.68414   0.46622   0.00000  Uiso   1.00
C200   C     0.57154   0.71445   0.50542   0.00000  Uiso   1.00
C201   C     0.57147   0.74516   0.60460   0.00000  Uiso   1.00
C202   C     0.64855   0.68706   0.30352   0.00000  Uiso   1.00
C203   C     0.64798   0.71981   0.20590   0.00000  Uiso   1.00
C204   C     0.68287   0.75296   0.16809   0.00000  Uiso   1.00
C205   C     0.62883   0.57247   0.38213   0.00000  Uiso   1.00
C206   C     0.61169   0.50888   0.35059   0.00000  Uiso   1.00
C207   C     0.62999   0.44556   0.37894   0.00000  Uiso   1.00
H208   H     0.70336   0.64867   0.51108   0.00000  Uiso   1.00
H209   H     0.66770   0.71544   0.66788   0.00000  Uiso   1.00
H210   H     0.74413   0.72078   0.36841   0.00000  Uiso   1.00
H211   H     0.70784   0.50989   0.51308   0.00000  Uiso   1.00
H212   H     0.61307   0.78933   0.81621   0.00000  Uiso   1.00
H213   H     0.77424   0.80058   0.18473   0.00000  Uiso   1.00
H214   H     0.69773   0.35587   0.48980   0.00000  Uiso   1.00
H215   H     0.58712   0.64747   0.31464   0.00000  Uiso   1.00
H216   H     0.54507   0.71417   0.46066   0.00000  Uiso   1.00
H217   H     0.62150   0.71952   0.16118   0.00000  Uiso   1.00
H218   H     0.58522   0.50863   0.30586   0.00000  Uiso   1.00
H219   H     0.51354   0.78831   0.64802   0.00000  Uiso   1.00
H220   H     0.67471   0.79956   0.01654   0.00000  Uiso   1.00
H221   H     0.59820   0.35485   0.32161   0.00000  Uiso   1.00
O222   O     0.53775   0.83274   0.83171   0.00000  Uiso   1.00
O223   O     0.74920   0.84749   0.00323   0.00000  Uiso   1.00
O224   O     0.64881   0.26404   0.40346   0.00000  Uiso   1.00
N225   N     0.59542   0.77993   0.75660   0.00000  Uiso   1.00
N226   N     0.74610   0.79045   0.16621   0.00000  Uiso   1.00
N227   N     0.67457   0.37469   0.45139   0.00000  Uiso   1.00
N228   N     0.54186   0.77937   0.66610   0.00000  Uiso   1.00
N229   N     0.69254   0.78990   0.07571   0.00000  Uiso   1.00
N230   N     0.62102   0.37413   0.36089   0.00000  Uiso   1.00
C231   C     0.17673   0.14839   0.46608   0.00000  Uiso   1.00
C232   C     0.14123   0.18450   0.52404   0.00000  Uiso   1.00
C233   C     0.14122   0.21517   0.62317   0.00000  Uiso   1.00
C234   C     0.10574   0.24552   0.66251   0.00000  Uiso   1.00
C235   C     0.05583   0.30167   0.76127   0.00000  Uiso   1.00
C236   C     0.18276   0.18741   0.36133   0.00000  Uiso   1.00
C237   C     0.21766   0.22052   0.32366   0.00000  Uiso   1.00
C238   C     0.21714   0.25332   0.22601   0.00000  Uiso   1.00
C239   C     0.23171   0.31394   0.07213   0.00000  Uiso   1.00
C240   C     0.16304   0.07283   0.43994   0.00000  Uiso   1.00
C241   C     0.18137   0.00960   0.46834   0.00000  Uiso   1.00
C242   C     0.16426   0.94592   0.43686   0.00000  Uiso   1.00
C243   C     0.14822   0.82864   0.40504   0.00000  Uiso   1.00
C244   C     0.11375   0.14774   0.35965   0.00000  Uiso   1.00
C245   C     0.10702   0.18414   0.46622   0.00000  Uiso   1.00
C246   C     0.07154   0.21445   0.50542   0.00000  Uiso   1.00
C247   C     0.07147   0.24516   0.60460   0.00000  Uiso   1.00
C248   C     0.14855   0.18706   0.30352   0.00000  Uiso   1.00
C249   C     0.14798   0.21981   0.20590   0.00000  Uiso   1.00
C250   C     0.18287   0.25296   0.16809   0.00000  Uiso   1.00
C251   C     0.12883   0.07247   0.38213   0.00000  Uiso   1.00
C252   C     0.11169   0.00888   0.35059   0.00000  Uiso   1.00
C253   C     0.12999   0.94556   0.37894   0.00000  Uiso   1.00
H254   H     0.20336   0.14867   0.51108   0.00000  Uiso   1.00
H255   H     0.16770   0.21544   0.66788   0.00000  Uiso   1.00
H256   H     0.24413   0.22078   0.36841   0.00000  Uiso   1.00
H257   H     0.20784   0.00989   0.51308   0.00000  Uiso   1.00
H258   H     0.11307   0.28933   0.81621   0.00000  Uiso   1.00
H259   H     0.27424   0.30058   0.18473   0.00000  Uiso   1.00
H260   H     0.19773   0.85587   0.48980   0.00000  Uiso   1.00
H261   H     0.08712   0.14747   0.31464   0.00000  Uiso   1.00
H262   H     0.04507   0.21417   0.46066   0.00000  Uiso   1.00
H263   H     0.12150   0.21952   0.16118   0.00000  Uiso   1.00
H264   H     0.08522   0.00863   0.30586   0.00000  Uiso   1.00
H265   H     0.01354   0.28831   0.64802   0.00000  Uiso   1.00
H266   H     0.17471   0.29956   0.01654   0.00000  Uiso   1.00
H267   H     0.09820   0.85485   0.32161   0.00000  Uiso   1.00
O268   O     0.03775   0.33274   0.83171   0.00000  Uiso   1.00
O269   O     0.24920   0.34749   0.00323   0.00000  Uiso   1.00
O270   O     0.14881   0.76404   0.40346   0.00000  Uiso   1.00
N271   N     0.09542   0.27993   0.75660   0.00000  Uiso   1.00
N272   N     0.24610   0.29045   0.16621   0.00000  Uiso   1.00
N273   N     0.17457   0.87469   0.45139   0.00000  Uiso   1.00
N274   N     0.04186   0.27937   0.66610   0.00000  Uiso   1.00
N275   N     0.19254   0.28990   0.07571   0.00000  Uiso   1.00
N276   N     0.12102   0.87413   0.36089   0.00000  Uiso   1.00
C277   C     0.32327   0.64839   0.03392   0.00000  Uiso   1.00
C278   C     0.35877   0.68450   0.97596   0.00000  Uiso   1.00
C279   C     0.35878   0.71517   0.87683   0.00000  Uiso   1.00
C280   C     0.39426   0.74552   0.83749   0.00000  Uiso   1.00
C281   C     0.44417   0.80167   0.73873   0.00000  Uiso   1.00
C282   C     0.31724   0.68741   0.13867   0.00000  Uiso   1.00
C283   C     0.28234   0.72052   0.17634   0.00000  Uiso   1.00
C284   C     0.28286   0.75332   0.27399   0.00000  Uiso   1.00
C285   C     0.26829   0.81394   0.42787   0.00000  Uiso   1.00
C286   C     0.33696   0.57283   0.06006   0.00000  Uiso   1.00
C287   C     0.31863   0.50960   0.03166   0.00000  Uiso   1.00
C288   C     0.33574   0.44592   0.06314   0.00000  Uiso   1.00
C289   C     0.35178   0.32864   0.09496   0.00000  Uiso   1.00
C290   C     0.38625   0.64774   0.14035   0.00000  Uiso   1.00
C291   C     0.39298   0.68414   0.03378   0.00000  Uiso   1.00
C292   C     0.42846   0.71445   0.99458   0.00000  Uiso   1.00
C293   C     0.42853   0.74516   0.89540   0.00000  Uiso   1.00
C294   C     0.35145   0.68706   0.19648   0.00000  Uiso   1.00
C295   C     0.35202   0.71981   0.29410   0.00000  Uiso   1.00
C296   C     0.31713   0.75296   0.33191   0.00000  Uiso   1.00
C297   C     0.37117   0.57247   0.11787   0.00000  Uiso   1.00
C298   C     0.38831   0.50888   0.14941   0.00000  Uiso   1.00
C299   C     0.37001   0.44556   0.12106   0.00000  Uiso   1.00
H300   H     0.29664   0.64867   0.98892   0.00000  Uiso   1.00
H301   H     0.33230   0.71544   0.83212   0.00000  Uiso   1.00
H302   H     0.25587   0.72078   0.13159   0.00000  Uiso   1.00
H303   H     0.29216   0.50989   0.98692   0.00000  Uiso   1.00
H304   H     0.38693   0.78933   0.68379   0.00000  Uiso   1.00
H305   H     0.22576   0.80058   0.31527   0.00000  Uiso   1.00
H306   H     0.30227   0.35587   0.01020   0.00000  Uiso   1.00
H307   H     0.41288   0.64747   0.18536   0.00000  Uiso   1.00
H308   H     0.45493   0.71417   0.03934   0.00000  Uiso   1.00
H309   H     0.37850   0.71952   0.33882   0.00000  Uiso   1.00
H310   H     0.41478   0.50863   0.19414   0.00000  Uiso   1.00
H311   H     0.48646   0.78831   0.85198   0.00000  Uiso   1.00
H312   H     0.32529   0.79956   0.48346   0.00000  Uiso   1.00
H313   H     0.40180   0.35485   0.17839   0.00000  Uiso   1.00
O314   O     0.46225   0.83274   0.66829   0.00000  Uiso   1.00
O315   O     0.25080   0.84749   0.49677   0.00000  Uiso   1.00
O316   O     0.35119   0.26404   0.09654   0.00000  Uiso   1.00
N317   N     0.40458   0.77993   0.74340   0.00000  Uiso   1.00
N318   N     0.25390   0.79045   0.33379   0.00000  Uiso   1.00
N319   N     0.32543   0.37469   0.04861   0.00000  Uiso   1.00
N320   N     0.45814   0.77937   0.83390   0.00000  Uiso   1.00
N321   N     0.30746   0.78990   0.42429   0.00000  Uiso   1.00
N322   N     0.37898   0.37413   0.13911   0.00000  Uiso   1.00
C323   C     0.82327   0.14839   0.03392   0.00000  Uiso   1.00
C324   C     0.85877   0.18450   0.97596   0.00000  Uiso   1.00
C325   C     0.85878   0.21517   0.87683   0.00000  Uiso   1.00
C326   C     0.89426   0.24552   0.83749   0.00000  Uiso   1.00
C327   C     0.94417   0.30167   0.73873   0.00000  Uiso   1.00
C328   C     0.81724   0.18741   0.13867   0.00000  Uiso   1.00
C329   C     0.78234   0.22052   0.17634   0.00000  Uiso   1.00
C330   C     0.78286   0.25332   0.27399   0.00000  Uiso   1.00
C331   C     0.76829   0.31394   0.42787   0.00000  Uiso   1.00
C332   C     0.83696   0.07283   0.06006   0.00000  Uiso   1.00
C333   C     0.81863   0.00960   0.03166   0.00000  Uiso   1.00
C334   C     0.83574   0.94592   0.06314   0.00000  Uiso   1.00
C335   C     0.85178   0.82864   0.09496   0.00000  Uiso   1.00
C336   C     0.88625   0.14774   0.14035   0.00000  Uiso   1.00
C337   C     0.89298   0.18414   0.03378   0.00000  Uiso   1.00
C338   C     0.92846   0.21445   0.99458   0.00000  Uiso   1.00
C339   C     0.92853   0.24516   0.89540   0.00000  Uiso   1.00
C340   C     0.85145   0.18706   0.19648   0.00000  Uiso   1.00
C341   C     0.85202   0.21981   0.29410   0.00000  Uiso   1.00
C342   C     0.81713   0.25296   0.33191   0.00000  Uiso   1.00
C343   C     0.87117   0.07247   0.11787   0.00000  Uiso   1.00
C344   C     0.88831   0.00888   0.14941   0.00000  Uiso   1.00
C345   C     0.87001   0.94556   0.12106   0.00000  Uiso   1.00
H346   H     0.79664   0.14867   0.98892   0.00000  Uiso   1.00
H347   H     0.83230   0.21544   0.83212   0.00000  Uiso   1.00
H348   H     0.75587   0.22078   0.13159   0.00000  Uiso   1.00
H349   H     0.79216   0.00989   0.98692   0.00000  Uiso   1.00
H350   H     0.88693   0.28933   0.68379   0.00000  Uiso   1.00
H351   H     0.72576   0.30058   0.31527   0.00000  Uiso   1.00
H352   H     0.80227   0.85587   0.01020   0.00000  Uiso   1.00
H353   H     0.91288   0.14747   0.18536   0.00000  Uiso   1.00
H354   H     0.95493   0.21417   0.03934   0.00000  Uiso   1.00
H355   H     0.87850   0.21952   0.33882   0.00000  Uiso   1.00
H356   H     0.91478   0.00863   0.19414   0.00000  Uiso   1.00
H357   H     0.98646   0.28831   0.85198   0.00000  Uiso   1.00
H358   H     0.82529   0.29956   0.48346   0.00000  Uiso   1.00
H359   H     0.90180   0.85485   0.17839   0.00000  Uiso   1.00
O360   O     0.96225   0.33274   0.66829   0.00000  Uiso   1.00
O361   O     0.75080   0.34749   0.49677   0.00000  Uiso   1.00
O362   O     0.85119   0.76404   0.09654   0.00000  Uiso   1.00
N363   N     0.90458   0.27993   0.74340   0.00000  Uiso   1.00
N364   N     0.75390   0.29045   0.33379   0.00000  Uiso   1.00
N365   N     0.82543   0.87469   0.04861   0.00000  Uiso   1.00
N366   N     0.95814   0.27937   0.83390   0.00000  Uiso   1.00
N367   N     0.80746   0.28990   0.42429   0.00000  Uiso   1.00
N368   N     0.87898   0.87413   0.13911   0.00000  Uiso   1.00
