data_job_02380
_audit_creation_date              2018-12-19
_audit_creation_method            'Materials Studio'
_symmetry_space_group_name_H-M    'P1'
_symmetry_Int_Tables_number       1
_symmetry_cell_setting            triclinic
loop_
_symmetry_equiv_pos_as_xyz
  x,y,z
_cell_length_a                    14.9520
_cell_length_b                    14.3442
_cell_length_c                    13.0047
_cell_angle_alpha                 90.0000
_cell_angle_beta                  90.0000
_cell_angle_gamma                 90.0000
loop_
_atom_site_label
_atom_site_type_symbol
_atom_site_fract_x
_atom_site_fract_y
_atom_site_fract_z
_atom_site_U_iso_or_equiv
_atom_site_adp_type
_atom_site_occupancy
C1     C     0.14907   0.10666   0.32640   0.00000  Uiso   1.00
C2     C     0.19258   0.13645   0.42723   0.00000  Uiso   1.00
C3     C     0.28098   0.12091   0.45487   0.00000  Uiso   1.00
C4     C     0.30789   0.15359   0.55048   0.00000  Uiso   1.00
C5     C     0.38448   0.19273   0.69710   0.00000  Uiso   1.00
C6     C     0.06869   0.04699   0.35603   0.00000  Uiso   1.00
C7     C     0.05292   0.95623   0.32380   0.00000  Uiso   1.00
C8     C     0.97554   0.91360   0.35946   0.00000  Uiso   1.00
C9     C     0.85976   0.81387   0.39549   0.00000  Uiso   1.00
C10    C     0.11096   0.19523   0.27861   0.00000  Uiso   1.00
C11    C     0.13071   0.22912   0.18127   0.00000  Uiso   1.00
C12    C     0.08889   0.31129   0.15174   0.00000  Uiso   1.00
C13    C     0.03874   0.44174   0.06756   0.00000  Uiso   1.00
C14    C     0.03967   0.19233   0.44704   0.00000  Uiso   1.00
C15    C     0.13315   0.18298   0.49276   0.00000  Uiso   1.00
C16    C     0.15994   0.21570   0.58835   0.00000  Uiso   1.00
C17    C     0.24837   0.20021   0.61613   0.00000  Uiso   1.00
C18    C     0.00927   0.09352   0.42156   0.00000  Uiso   1.00
C19    C     0.93189   0.05102   0.45728   0.00000  Uiso   1.00
C20    C     0.91601   0.96022   0.42511   0.00000  Uiso   1.00
C21    C     0.05154   0.24177   0.34414   0.00000  Uiso   1.00
C22    C     0.00968   0.32391   0.31476   0.00000  Uiso   1.00
C23    C     0.02936   0.35791   0.21739   0.00000  Uiso   1.00
H24    H     0.19532   0.07042   0.27538   0.00000  Uiso   1.00
H25    H     0.32694   0.08489   0.40414   0.00000  Uiso   1.00
H26    H     0.09892   0.92024   0.27308   0.00000  Uiso   1.00
H27    H     0.17669   0.19309   0.13058   0.00000  Uiso   1.00
H28    H     0.44665   0.12141   0.57580   0.00000  Uiso   1.00
H29    H     0.96583   0.77426   0.29943   0.00000  Uiso   1.00
H30    H     0.12984   0.34960   0.99893   0.00000  Uiso   1.00
H31    H     0.99340   0.22856   0.49807   0.00000  Uiso   1.00
H32    H     0.11394   0.25171   0.63905   0.00000  Uiso   1.00
H33    H     0.88592   0.08705   0.50799   0.00000  Uiso   1.00
H34    H     0.96370   0.35990   0.36549   0.00000  Uiso   1.00
H35    H     0.27377   0.25681   0.76647   0.00000  Uiso   1.00
H36    H     0.79295   0.90965   0.49009   0.00000  Uiso   1.00
H37    H     0.95696   0.48500   0.18960   0.00000  Uiso   1.00
O38    O     0.44314   0.20146   0.75987   0.00000  Uiso   1.00
O39    O     0.81232   0.74600   0.39726   0.00000  Uiso   1.00
O40    O     0.02750   0.50085   0.00303   0.00000  Uiso   1.00
N41    N     0.38942   0.15012   0.60132   0.00000  Uiso   1.00
N42    N     0.93990   0.82554   0.34294   0.00000  Uiso   1.00
N43    N     0.09321   0.36343   0.06199   0.00000  Uiso   1.00
N44    N     0.29640   0.22297   0.70391   0.00000  Uiso   1.00
N45    N     0.84687   0.89839   0.44553   0.00000  Uiso   1.00
N46    N     0.00019   0.43628   0.16459   0.00000  Uiso   1.00
C47    C     0.85093   0.89334   0.82640   0.00000  Uiso   1.00
C48    C     0.80742   0.86355   0.92723   0.00000  Uiso   1.00
C49    C     0.71902   0.87909   0.95487   0.00000  Uiso   1.00
C50    C     0.69211   0.84641   0.05048   0.00000  Uiso   1.00
C51    C     0.61552   0.80727   0.19710   0.00000  Uiso   1.00
C52    C     0.93131   0.95301   0.85603   0.00000  Uiso   1.00
C53    C     0.94708   0.04377   0.82380   0.00000  Uiso   1.00
C54    C     0.02446   0.08640   0.85946   0.00000  Uiso   1.00
C55    C     0.14024   0.18613   0.89549   0.00000  Uiso   1.00
C56    C     0.88904   0.80477   0.77861   0.00000  Uiso   1.00
C57    C     0.86929   0.77088   0.68127   0.00000  Uiso   1.00
C58    C     0.91111   0.68871   0.65174   0.00000  Uiso   1.00
C59    C     0.96126   0.55826   0.56756   0.00000  Uiso   1.00
C60    C     0.96033   0.80767   0.94704   0.00000  Uiso   1.00
C61    C     0.86685   0.81702   0.99276   0.00000  Uiso   1.00
C62    C     0.84006   0.78430   0.08835   0.00000  Uiso   1.00
C63    C     0.75163   0.79979   0.11613   0.00000  Uiso   1.00
C64    C     0.99073   0.90648   0.92156   0.00000  Uiso   1.00
C65    C     0.06811   0.94898   0.95728   0.00000  Uiso   1.00
C66    C     0.08399   0.03978   0.92511   0.00000  Uiso   1.00
C67    C     0.94846   0.75823   0.84414   0.00000  Uiso   1.00
C68    C     0.99032   0.67609   0.81476   0.00000  Uiso   1.00
C69    C     0.97064   0.64209   0.71739   0.00000  Uiso   1.00
H70    H     0.80468   0.92958   0.77538   0.00000  Uiso   1.00
H71    H     0.67306   0.91511   0.90414   0.00000  Uiso   1.00
H72    H     0.90108   0.07976   0.77308   0.00000  Uiso   1.00
H73    H     0.82331   0.80691   0.63058   0.00000  Uiso   1.00
H74    H     0.55335   0.87859   0.07580   0.00000  Uiso   1.00
H75    H     0.03417   0.22574   0.79943   0.00000  Uiso   1.00
H76    H     0.87016   0.65040   0.49893   0.00000  Uiso   1.00
H77    H     0.00660   0.77144   0.99807   0.00000  Uiso   1.00
H78    H     0.88606   0.74829   0.13905   0.00000  Uiso   1.00
H79    H     0.11408   0.91295   0.00799   0.00000  Uiso   1.00
H80    H     0.03630   0.64010   0.86549   0.00000  Uiso   1.00
H81    H     0.72623   0.74319   0.26647   0.00000  Uiso   1.00
H82    H     0.20705   0.09035   0.99009   0.00000  Uiso   1.00
H83    H     0.04304   0.51500   0.68960   0.00000  Uiso   1.00
O84    O     0.55686   0.79854   0.25987   0.00000  Uiso   1.00
O85    O     0.18768   0.25400   0.89726   0.00000  Uiso   1.00
O86    O     0.97250   0.49915   0.50303   0.00000  Uiso   1.00
N87    N     0.61058   0.84988   0.10132   0.00000  Uiso   1.00
N88    N     0.06010   0.17446   0.84294   0.00000  Uiso   1.00
N89    N     0.90679   0.63657   0.56199   0.00000  Uiso   1.00
N90    N     0.70360   0.77703   0.20391   0.00000  Uiso   1.00
N91    N     0.15313   0.10161   0.94553   0.00000  Uiso   1.00
N92    N     0.99981   0.56372   0.66459   0.00000  Uiso   1.00
C93    C     0.64907   0.39334   0.32640   0.00000  Uiso   1.00
C94    C     0.69258   0.36355   0.42723   0.00000  Uiso   1.00
C95    C     0.78098   0.37909   0.45487   0.00000  Uiso   1.00
C96    C     0.80789   0.34641   0.55048   0.00000  Uiso   1.00
C97    C     0.88448   0.30727   0.69710   0.00000  Uiso   1.00
C98    C     0.56869   0.45301   0.35603   0.00000  Uiso   1.00
C99    C     0.55292   0.54377   0.32380   0.00000  Uiso   1.00
C100   C     0.47554   0.58640   0.35946   0.00000  Uiso   1.00
C101   C     0.35976   0.68613   0.39549   0.00000  Uiso   1.00
C102   C     0.61096   0.30477   0.27861   0.00000  Uiso   1.00
C103   C     0.63071   0.27088   0.18127   0.00000  Uiso   1.00
C104   C     0.58889   0.18871   0.15174   0.00000  Uiso   1.00
C105   C     0.53874   0.05826   0.06756   0.00000  Uiso   1.00
C106   C     0.53967   0.30767   0.44704   0.00000  Uiso   1.00
C107   C     0.63315   0.31702   0.49276   0.00000  Uiso   1.00
C108   C     0.65994   0.28430   0.58835   0.00000  Uiso   1.00
C109   C     0.74837   0.29979   0.61613   0.00000  Uiso   1.00
C110   C     0.50927   0.40648   0.42156   0.00000  Uiso   1.00
C111   C     0.43189   0.44898   0.45728   0.00000  Uiso   1.00
C112   C     0.41601   0.53978   0.42511   0.00000  Uiso   1.00
C113   C     0.55154   0.25823   0.34414   0.00000  Uiso   1.00
C114   C     0.50968   0.17609   0.31476   0.00000  Uiso   1.00
C115   C     0.52936   0.14209   0.21739   0.00000  Uiso   1.00
H116   H     0.69532   0.42958   0.27538   0.00000  Uiso   1.00
H117   H     0.82694   0.41511   0.40414   0.00000  Uiso   1.00
H118   H     0.59892   0.57976   0.27308   0.00000  Uiso   1.00
H119   H     0.67669   0.30691   0.13058   0.00000  Uiso   1.00
H120   H     0.94665   0.37859   0.57580   0.00000  Uiso   1.00
H121   H     0.46583   0.72574   0.29943   0.00000  Uiso   1.00
H122   H     0.62984   0.15040   0.99893   0.00000  Uiso   1.00
H123   H     0.49340   0.27144   0.49807   0.00000  Uiso   1.00
H124   H     0.61394   0.24829   0.63905   0.00000  Uiso   1.00
H125   H     0.38592   0.41295   0.50799   0.00000  Uiso   1.00
H126   H     0.46370   0.14010   0.36549   0.00000  Uiso   1.00
H127   H     0.77377   0.24319   0.76647   0.00000  Uiso   1.00
H128   H     0.29295   0.59035   0.49009   0.00000  Uiso   1.00
H129   H     0.45696   0.01500   0.18960   0.00000  Uiso   1.00
O130   O     0.94314   0.29854   0.75987   0.00000  Uiso   1.00
O131   O     0.31232   0.75400   0.39726   0.00000  Uiso   1.00
O132   O     0.52750   0.99915   0.00303   0.00000  Uiso   1.00
N133   N     0.88942   0.34988   0.60132   0.00000  Uiso   1.00
N134   N     0.43990   0.67446   0.34294   0.00000  Uiso   1.00
N135   N     0.59321   0.13657   0.06199   0.00000  Uiso   1.00
N136   N     0.79640   0.27703   0.70391   0.00000  Uiso   1.00
N137   N     0.34687   0.60161   0.44553   0.00000  Uiso   1.00
N138   N     0.50019   0.06372   0.16459   0.00000  Uiso   1.00
C139   C     0.35093   0.60666   0.82640   0.00000  Uiso   1.00
C140   C     0.30742   0.63645   0.92723   0.00000  Uiso   1.00
C141   C     0.21902   0.62091   0.95487   0.00000  Uiso   1.00
C142   C     0.19211   0.65359   0.05048   0.00000  Uiso   1.00
C143   C     0.11552   0.69273   0.19710   0.00000  Uiso   1.00
C144   C     0.43131   0.54699   0.85603   0.00000  Uiso   1.00
C145   C     0.44708   0.45623   0.82380   0.00000  Uiso   1.00
C146   C     0.52446   0.41360   0.85946   0.00000  Uiso   1.00
C147   C     0.64024   0.31387   0.89549   0.00000  Uiso   1.00
C148   C     0.38904   0.69523   0.77861   0.00000  Uiso   1.00
C149   C     0.36929   0.72912   0.68127   0.00000  Uiso   1.00
C150   C     0.41111   0.81129   0.65174   0.00000  Uiso   1.00
C151   C     0.46126   0.94174   0.56756   0.00000  Uiso   1.00
C152   C     0.46033   0.69233   0.94704   0.00000  Uiso   1.00
C153   C     0.36685   0.68298   0.99276   0.00000  Uiso   1.00
C154   C     0.34006   0.71570   0.08835   0.00000  Uiso   1.00
C155   C     0.25163   0.70021   0.11613   0.00000  Uiso   1.00
C156   C     0.49073   0.59352   0.92156   0.00000  Uiso   1.00
C157   C     0.56811   0.55102   0.95728   0.00000  Uiso   1.00
C158   C     0.58399   0.46022   0.92511   0.00000  Uiso   1.00
C159   C     0.44846   0.74177   0.84414   0.00000  Uiso   1.00
C160   C     0.49032   0.82391   0.81476   0.00000  Uiso   1.00
C161   C     0.47064   0.85791   0.71739   0.00000  Uiso   1.00
H162   H     0.30468   0.57042   0.77538   0.00000  Uiso   1.00
H163   H     0.17306   0.58489   0.90414   0.00000  Uiso   1.00
H164   H     0.40108   0.42024   0.77308   0.00000  Uiso   1.00
H165   H     0.32331   0.69309   0.63058   0.00000  Uiso   1.00
H166   H     0.05335   0.62141   0.07580   0.00000  Uiso   1.00
H167   H     0.53417   0.27426   0.79943   0.00000  Uiso   1.00
H168   H     0.37016   0.84960   0.49893   0.00000  Uiso   1.00
H169   H     0.50660   0.72856   0.99807   0.00000  Uiso   1.00
H170   H     0.38606   0.75171   0.13905   0.00000  Uiso   1.00
H171   H     0.61408   0.58705   0.00799   0.00000  Uiso   1.00
H172   H     0.53630   0.85990   0.86549   0.00000  Uiso   1.00
H173   H     0.22623   0.75681   0.26647   0.00000  Uiso   1.00
H174   H     0.70705   0.40965   0.99009   0.00000  Uiso   1.00
H175   H     0.54304   0.98500   0.68960   0.00000  Uiso   1.00
O176   O     0.05686   0.70146   0.25987   0.00000  Uiso   1.00
O177   O     0.68768   0.24600   0.89726   0.00000  Uiso   1.00
O178   O     0.47250   0.00085   0.50303   0.00000  Uiso   1.00
N179   N     0.11058   0.65012   0.10132   0.00000  Uiso   1.00
N180   N     0.56010   0.32554   0.84294   0.00000  Uiso   1.00
N181   N     0.40679   0.86343   0.56199   0.00000  Uiso   1.00
N182   N     0.20360   0.72297   0.20391   0.00000  Uiso   1.00
N183   N     0.65313   0.39839   0.94553   0.00000  Uiso   1.00
N184   N     0.49981   0.93628   0.66459   0.00000  Uiso   1.00
