data_job_01064
_audit_creation_date              2018-12-19
_audit_creation_method            'Materials Studio'
_symmetry_space_group_name_H-M    'P1'
_symmetry_Int_Tables_number       1
_symmetry_cell_setting            triclinic
loop_
_symmetry_equiv_pos_as_xyz
  x,y,z
_cell_length_a                    9.9791
_cell_length_b                    14.1469
_cell_length_c                    23.2636
_cell_angle_alpha                 90.0000
_cell_angle_beta                  114.4330
_cell_angle_gamma                 90.0000
loop_
_atom_site_label
_atom_site_type_symbol
_atom_site_fract_x
_atom_site_fract_y
_atom_site_fract_z
_atom_site_U_iso_or_equiv
_atom_site_adp_type
_atom_site_occupancy
C1     C     0.58512   0.63411   0.70554   0.00000  Uiso   1.00
C2     C     0.63971   0.70777   0.67238   0.00000  Uiso   1.00
C3     C     0.56530   0.78936   0.64329   0.00000  Uiso   1.00
C4     C     0.63380   0.84768   0.61559   0.00000  Uiso   1.00
C5     C     0.69754   0.96546   0.56386   0.00000  Uiso   1.00
C6     C     0.58508   0.54010   0.67346   0.00000  Uiso   1.00
C7     C     0.46475   0.48072   0.64529   0.00000  Uiso   1.00
C8     C     0.48728   0.39789   0.61850   0.00000  Uiso   1.00
C9     C     0.46624   0.25533   0.56849   0.00000  Uiso   1.00
C10    C     0.70460   0.62600   0.77251   0.00000  Uiso   1.00
C11    C     0.68476   0.63881   0.82762   0.00000  Uiso   1.00
C12    C     0.80790   0.62827   0.88423   0.00000  Uiso   1.00
C13    C     0.97243   0.61908   0.98801   0.00000  Uiso   1.00
C14    C     0.83908   0.59259   0.70807   0.00000  Uiso   1.00
C15    C     0.77765   0.68521   0.67375   0.00000  Uiso   1.00
C16    C     0.84628   0.74343   0.64609   0.00000  Uiso   1.00
C17    C     0.77199   0.82509   0.61696   0.00000  Uiso   1.00
C18    C     0.72302   0.51755   0.67483   0.00000  Uiso   1.00
C19    C     0.74573   0.43478   0.64809   0.00000  Uiso   1.00
C20    C     0.62546   0.37529   0.61988   0.00000  Uiso   1.00
C21    C     0.84254   0.60345   0.77388   0.00000  Uiso   1.00
C22    C     0.96573   0.59288   0.83042   0.00000  Uiso   1.00
C23    C     0.94609   0.60568   0.88561   0.00000  Uiso   1.00
H24    H     0.47773   0.65166   0.70447   0.00000  Uiso   1.00
H25    H     0.45855   0.80678   0.64223   0.00000  Uiso   1.00
H26    H     0.35802   0.49818   0.64424   0.00000  Uiso   1.00
H27    H     0.57800   0.65626   0.82654   0.00000  Uiso   1.00
H28    H     0.49809   0.96881   0.57382   0.00000  Uiso   1.00
H29    H     0.28614   0.31809   0.57806   0.00000  Uiso   1.00
H30    H     0.74999   0.65142   0.96249   0.00000  Uiso   1.00
H31    H     0.94648   0.57503   0.70914   0.00000  Uiso   1.00
H32    H     0.95303   0.72596   0.64716   0.00000  Uiso   1.00
H33    H     0.85249   0.41735   0.64916   0.00000  Uiso   1.00
H34    H     0.07246   0.57543   0.83146   0.00000  Uiso   1.00
H35    H     0.89943   0.90320   0.57781   0.00000  Uiso   1.00
H36    H     0.68747   0.25248   0.58206   0.00000  Uiso   1.00
H37    H     0.15132   0.58581   0.96648   0.00000  Uiso   1.00
O38    O     0.69459   0.03665   0.53494   0.00000  Uiso   1.00
O39    O     0.41652   0.18293   0.54052   0.00000  Uiso   1.00
O40    O     0.02508   0.62026   0.04488   0.00000  Uiso   1.00
N41    N     0.59166   0.93266   0.58327   0.00000  Uiso   1.00
N42    N     0.39349   0.32429   0.58724   0.00000  Uiso   1.00
N43    N     0.82714   0.63590   0.94664   0.00000  Uiso   1.00
N44    N     0.80762   0.89736   0.58542   0.00000  Uiso   1.00
N45    N     0.60944   0.28899   0.58939   0.00000  Uiso   1.00
N46    N     0.04310   0.60060   0.94879   0.00000  Uiso   1.00
C47    C     0.41488   0.13411   0.79446   0.00000  Uiso   1.00
C48    C     0.36029   0.20777   0.82762   0.00000  Uiso   1.00
C49    C     0.43470   0.28936   0.85671   0.00000  Uiso   1.00
C50    C     0.36620   0.34768   0.88441   0.00000  Uiso   1.00
C51    C     0.30246   0.46546   0.93614   0.00000  Uiso   1.00
C52    C     0.41492   0.04010   0.82654   0.00000  Uiso   1.00
C53    C     0.53525   0.98072   0.85471   0.00000  Uiso   1.00
C54    C     0.51272   0.89789   0.88150   0.00000  Uiso   1.00
C55    C     0.53376   0.75533   0.93151   0.00000  Uiso   1.00
C56    C     0.29540   0.12600   0.72749   0.00000  Uiso   1.00
C57    C     0.31524   0.13881   0.67238   0.00000  Uiso   1.00
C58    C     0.19210   0.12827   0.61577   0.00000  Uiso   1.00
C59    C     0.02757   0.11908   0.51199   0.00000  Uiso   1.00
C60    C     0.16092   0.09259   0.79193   0.00000  Uiso   1.00
C61    C     0.22235   0.18521   0.82625   0.00000  Uiso   1.00
C62    C     0.15372   0.24343   0.85391   0.00000  Uiso   1.00
C63    C     0.22801   0.32509   0.88304   0.00000  Uiso   1.00
C64    C     0.27698   0.01755   0.82517   0.00000  Uiso   1.00
C65    C     0.25427   0.93478   0.85191   0.00000  Uiso   1.00
C66    C     0.37454   0.87529   0.88012   0.00000  Uiso   1.00
C67    C     0.15746   0.10345   0.72612   0.00000  Uiso   1.00
C68    C     0.03427   0.09288   0.66958   0.00000  Uiso   1.00
C69    C     0.05391   0.10568   0.61439   0.00000  Uiso   1.00
H70    H     0.52227   0.15166   0.79553   0.00000  Uiso   1.00
H71    H     0.54145   0.30678   0.85777   0.00000  Uiso   1.00
H72    H     0.64198   0.99818   0.85576   0.00000  Uiso   1.00
H73    H     0.42200   0.15626   0.67346   0.00000  Uiso   1.00
H74    H     0.50191   0.46881   0.92618   0.00000  Uiso   1.00
H75    H     0.71386   0.81809   0.92194   0.00000  Uiso   1.00
H76    H     0.25001   0.15142   0.53751   0.00000  Uiso   1.00
H77    H     0.05352   0.07503   0.79086   0.00000  Uiso   1.00
H78    H     0.04697   0.22596   0.85284   0.00000  Uiso   1.00
H79    H     0.14751   0.91735   0.85084   0.00000  Uiso   1.00
H80    H     0.92754   0.07543   0.66854   0.00000  Uiso   1.00
H81    H     0.10057   0.40320   0.92219   0.00000  Uiso   1.00
H82    H     0.31253   0.75248   0.91794   0.00000  Uiso   1.00
H83    H     0.84868   0.08581   0.53352   0.00000  Uiso   1.00
O84    O     0.30541   0.53665   0.96506   0.00000  Uiso   1.00
O85    O     0.58348   0.68293   0.95948   0.00000  Uiso   1.00
O86    O     0.97492   0.12026   0.45512   0.00000  Uiso   1.00
N87    N     0.40834   0.43266   0.91673   0.00000  Uiso   1.00
N88    N     0.60651   0.82429   0.91276   0.00000  Uiso   1.00
N89    N     0.17286   0.13590   0.55336   0.00000  Uiso   1.00
N90    N     0.19238   0.39736   0.91458   0.00000  Uiso   1.00
N91    N     0.39056   0.78899   0.91061   0.00000  Uiso   1.00
N92    N     0.95690   0.10060   0.55121   0.00000  Uiso   1.00
C93    C     0.41488   0.36589   0.29446   0.00000  Uiso   1.00
C94    C     0.36029   0.29223   0.32762   0.00000  Uiso   1.00
C95    C     0.43470   0.21064   0.35671   0.00000  Uiso   1.00
C96    C     0.36620   0.15232   0.38441   0.00000  Uiso   1.00
C97    C     0.30246   0.03454   0.43614   0.00000  Uiso   1.00
C98    C     0.41492   0.45990   0.32654   0.00000  Uiso   1.00
C99    C     0.53525   0.51928   0.35471   0.00000  Uiso   1.00
C100   C     0.51272   0.60211   0.38150   0.00000  Uiso   1.00
C101   C     0.53376   0.74467   0.43151   0.00000  Uiso   1.00
C102   C     0.29540   0.37400   0.22749   0.00000  Uiso   1.00
C103   C     0.31524   0.36119   0.17238   0.00000  Uiso   1.00
C104   C     0.19210   0.37173   0.11577   0.00000  Uiso   1.00
C105   C     0.02757   0.38092   0.01199   0.00000  Uiso   1.00
C106   C     0.16092   0.40741   0.29193   0.00000  Uiso   1.00
C107   C     0.22235   0.31479   0.32625   0.00000  Uiso   1.00
C108   C     0.15372   0.25657   0.35391   0.00000  Uiso   1.00
C109   C     0.22801   0.17491   0.38304   0.00000  Uiso   1.00
C110   C     0.27698   0.48245   0.32517   0.00000  Uiso   1.00
C111   C     0.25427   0.56522   0.35191   0.00000  Uiso   1.00
C112   C     0.37454   0.62471   0.38012   0.00000  Uiso   1.00
C113   C     0.15746   0.39655   0.22612   0.00000  Uiso   1.00
C114   C     0.03427   0.40712   0.16958   0.00000  Uiso   1.00
C115   C     0.05391   0.39432   0.11439   0.00000  Uiso   1.00
H116   H     0.52227   0.34834   0.29553   0.00000  Uiso   1.00
H117   H     0.54145   0.19322   0.35777   0.00000  Uiso   1.00
H118   H     0.64198   0.50182   0.35576   0.00000  Uiso   1.00
H119   H     0.42200   0.34374   0.17346   0.00000  Uiso   1.00
H120   H     0.50191   0.03119   0.42618   0.00000  Uiso   1.00
H121   H     0.71386   0.68191   0.42194   0.00000  Uiso   1.00
H122   H     0.25001   0.34858   0.03751   0.00000  Uiso   1.00
H123   H     0.05352   0.42497   0.29086   0.00000  Uiso   1.00
H124   H     0.04697   0.27404   0.35284   0.00000  Uiso   1.00
H125   H     0.14751   0.58265   0.35084   0.00000  Uiso   1.00
H126   H     0.92754   0.42457   0.16854   0.00000  Uiso   1.00
H127   H     0.10057   0.09680   0.42219   0.00000  Uiso   1.00
H128   H     0.31253   0.74752   0.41794   0.00000  Uiso   1.00
H129   H     0.84868   0.41419   0.03352   0.00000  Uiso   1.00
O130   O     0.30541   0.96335   0.46506   0.00000  Uiso   1.00
O131   O     0.58348   0.81707   0.45948   0.00000  Uiso   1.00
O132   O     0.97492   0.37974   0.95512   0.00000  Uiso   1.00
N133   N     0.40834   0.06734   0.41673   0.00000  Uiso   1.00
N134   N     0.60651   0.67571   0.41276   0.00000  Uiso   1.00
N135   N     0.17286   0.36410   0.05336   0.00000  Uiso   1.00
N136   N     0.19238   0.10264   0.41458   0.00000  Uiso   1.00
N137   N     0.39056   0.71101   0.41061   0.00000  Uiso   1.00
N138   N     0.95690   0.39940   0.05121   0.00000  Uiso   1.00
C139   C     0.58512   0.86589   0.20554   0.00000  Uiso   1.00
C140   C     0.63971   0.79223   0.17238   0.00000  Uiso   1.00
C141   C     0.56530   0.71064   0.14329   0.00000  Uiso   1.00
C142   C     0.63380   0.65232   0.11559   0.00000  Uiso   1.00
C143   C     0.69754   0.53454   0.06386   0.00000  Uiso   1.00
C144   C     0.58508   0.95990   0.17346   0.00000  Uiso   1.00
C145   C     0.46475   0.01928   0.14529   0.00000  Uiso   1.00
C146   C     0.48728   0.10211   0.11850   0.00000  Uiso   1.00
C147   C     0.46624   0.24467   0.06849   0.00000  Uiso   1.00
C148   C     0.70460   0.87400   0.27251   0.00000  Uiso   1.00
C149   C     0.68476   0.86119   0.32762   0.00000  Uiso   1.00
C150   C     0.80790   0.87173   0.38423   0.00000  Uiso   1.00
C151   C     0.97243   0.88092   0.48801   0.00000  Uiso   1.00
C152   C     0.83908   0.90741   0.20807   0.00000  Uiso   1.00
C153   C     0.77765   0.81479   0.17375   0.00000  Uiso   1.00
C154   C     0.84628   0.75657   0.14609   0.00000  Uiso   1.00
C155   C     0.77199   0.67491   0.11696   0.00000  Uiso   1.00
C156   C     0.72302   0.98245   0.17483   0.00000  Uiso   1.00
C157   C     0.74573   0.06522   0.14809   0.00000  Uiso   1.00
C158   C     0.62546   0.12471   0.11988   0.00000  Uiso   1.00
C159   C     0.84254   0.89655   0.27388   0.00000  Uiso   1.00
C160   C     0.96573   0.90712   0.33042   0.00000  Uiso   1.00
C161   C     0.94609   0.89432   0.38561   0.00000  Uiso   1.00
H162   H     0.47773   0.84834   0.20447   0.00000  Uiso   1.00
H163   H     0.45855   0.69322   0.14223   0.00000  Uiso   1.00
H164   H     0.35802   0.00182   0.14424   0.00000  Uiso   1.00
H165   H     0.57800   0.84374   0.32654   0.00000  Uiso   1.00
H166   H     0.49809   0.53119   0.07382   0.00000  Uiso   1.00
H167   H     0.28614   0.18191   0.07806   0.00000  Uiso   1.00
H168   H     0.74999   0.84858   0.46249   0.00000  Uiso   1.00
H169   H     0.94648   0.92497   0.20914   0.00000  Uiso   1.00
H170   H     0.95303   0.77404   0.14716   0.00000  Uiso   1.00
H171   H     0.85249   0.08265   0.14916   0.00000  Uiso   1.00
H172   H     0.07246   0.92457   0.33146   0.00000  Uiso   1.00
H173   H     0.89943   0.59680   0.07781   0.00000  Uiso   1.00
H174   H     0.68747   0.24752   0.08206   0.00000  Uiso   1.00
H175   H     0.15132   0.91419   0.46648   0.00000  Uiso   1.00
O176   O     0.69459   0.46335   0.03494   0.00000  Uiso   1.00
O177   O     0.41652   0.31707   0.04052   0.00000  Uiso   1.00
O178   O     0.02508   0.87974   0.54488   0.00000  Uiso   1.00
N179   N     0.59166   0.56734   0.08327   0.00000  Uiso   1.00
N180   N     0.39349   0.17571   0.08724   0.00000  Uiso   1.00
N181   N     0.82714   0.86410   0.44664   0.00000  Uiso   1.00
N182   N     0.80762   0.60264   0.08542   0.00000  Uiso   1.00
N183   N     0.60944   0.21101   0.08939   0.00000  Uiso   1.00
N184   N     0.04310   0.89940   0.44879   0.00000  Uiso   1.00
