data_job_02488
_audit_creation_date              2018-12-19
_audit_creation_method            'Materials Studio'
_symmetry_space_group_name_H-M    'P1'
_symmetry_Int_Tables_number       1
_symmetry_cell_setting            triclinic
loop_
_symmetry_equiv_pos_as_xyz
  x,y,z
_cell_length_a                    15.4930
_cell_length_b                    19.6954
_cell_length_c                    12.5241
_cell_angle_alpha                 90.0000
_cell_angle_beta                  56.0846
_cell_angle_gamma                 90.0000
loop_
_atom_site_label
_atom_site_type_symbol
_atom_site_fract_x
_atom_site_fract_y
_atom_site_fract_z
_atom_site_U_iso_or_equiv
_atom_site_adp_type
_atom_site_occupancy
C1     C     0.42270   0.26912   0.79125   0.00000  Uiso   1.00
C2     C     0.35934   0.28106   0.73378   0.00000  Uiso   1.00
C3     C     0.35635   0.34090   0.67742   0.00000  Uiso   1.00
C4     C     0.29357   0.34163   0.63057   0.00000  Uiso   1.00
C5     C     0.20391   0.36887   0.54000   0.00000  Uiso   1.00
C6     C     0.34511   0.24685   0.92997   0.00000  Uiso   1.00
C7     C     0.33016   0.27791   0.03856   0.00000  Uiso   1.00
C8     C     0.25540   0.24983   0.15686   0.00000  Uiso   1.00
C9     C     0.14371   0.22392   0.37087   0.00000  Uiso   1.00
C10    C     0.49088   0.20741   0.72167   0.00000  Uiso   1.00
C11    C     0.59851   0.20530   0.65514   0.00000  Uiso   1.00
C12    C     0.64649   0.14401   0.59809   0.00000  Uiso   1.00
C13    C     0.76113   0.05686   0.48866   0.00000  Uiso   1.00
C14    C     0.31651   0.16399   0.80827   0.00000  Uiso   1.00
C15    C     0.30166   0.22396   0.74304   0.00000  Uiso   1.00
C16    C     0.23887   0.22459   0.69625   0.00000  Uiso   1.00
C17    C     0.23579   0.28443   0.63983   0.00000  Uiso   1.00
C18    C     0.28743   0.18975   0.93922   0.00000  Uiso   1.00
C19    C     0.21268   0.16160   0.05739   0.00000  Uiso   1.00
C20    C     0.19762   0.19262   0.16613   0.00000  Uiso   1.00
C21    C     0.43321   0.15031   0.73091   0.00000  Uiso   1.00
C22    C     0.48102   0.08900   0.67396   0.00000  Uiso   1.00
C23    C     0.58870   0.08680   0.60735   0.00000  Uiso   1.00
H24    H     0.46761   0.31357   0.78406   0.00000  Uiso   1.00
H25    H     0.40099   0.38508   0.67030   0.00000  Uiso   1.00
H26    H     0.37482   0.32209   0.03138   0.00000  Uiso   1.00
H27    H     0.64312   0.24950   0.64800   0.00000  Uiso   1.00
H28    H     0.30168   0.43919   0.54829   0.00000  Uiso   1.00
H29    H     0.24651   0.30637   0.30964   0.00000  Uiso   1.00
H30    H     0.81228   0.15329   0.50123   0.00000  Uiso   1.00
H31    H     0.27161   0.11954   0.81547   0.00000  Uiso   1.00
H32    H     0.19424   0.18040   0.70342   0.00000  Uiso   1.00
H33    H     0.16806   0.11742   0.06451   0.00000  Uiso   1.00
H34    H     0.43636   0.04482   0.68114   0.00000  Uiso   1.00
H35    H     0.13386   0.27307   0.57518   0.00000  Uiso   1.00
H36    H     0.07870   0.14024   0.33654   0.00000  Uiso   1.00
H37    H     0.64447   0.98716   0.52812   0.00000  Uiso   1.00
O38    O     0.17039   0.39968   0.48750   0.00000  Uiso   1.00
O39    O     0.09802   0.22541   0.48636   0.00000  Uiso   1.00
O40    O     0.84030   0.02457   0.42574   0.00000  Uiso   1.00
N41    N     0.27282   0.39174   0.56997   0.00000  Uiso   1.00
N42    N     0.22122   0.26756   0.28179   0.00000  Uiso   1.00
N43    N     0.75017   0.12444   0.52602   0.00000  Uiso   1.00
N44    N     0.18252   0.30235   0.58444   0.00000  Uiso   1.00
N45    N     0.13092   0.17817   0.29626   0.00000  Uiso   1.00
N46    N     0.65987   0.03505   0.54049   0.00000  Uiso   1.00
C47    C     0.92270   0.76912   0.79125   0.00000  Uiso   1.00
C48    C     0.85934   0.78106   0.73378   0.00000  Uiso   1.00
C49    C     0.85635   0.84090   0.67742   0.00000  Uiso   1.00
C50    C     0.79357   0.84163   0.63057   0.00000  Uiso   1.00
C51    C     0.70391   0.86887   0.54000   0.00000  Uiso   1.00
C52    C     0.84511   0.74685   0.92997   0.00000  Uiso   1.00
C53    C     0.83016   0.77791   0.03856   0.00000  Uiso   1.00
C54    C     0.75540   0.74983   0.15686   0.00000  Uiso   1.00
C55    C     0.64371   0.72392   0.37087   0.00000  Uiso   1.00
C56    C     0.99088   0.70741   0.72167   0.00000  Uiso   1.00
C57    C     0.09851   0.70530   0.65514   0.00000  Uiso   1.00
C58    C     0.14649   0.64401   0.59809   0.00000  Uiso   1.00
C59    C     0.26113   0.55686   0.48866   0.00000  Uiso   1.00
C60    C     0.81651   0.66399   0.80827   0.00000  Uiso   1.00
C61    C     0.80166   0.72396   0.74304   0.00000  Uiso   1.00
C62    C     0.73887   0.72459   0.69625   0.00000  Uiso   1.00
C63    C     0.73579   0.78443   0.63983   0.00000  Uiso   1.00
C64    C     0.78743   0.68975   0.93922   0.00000  Uiso   1.00
C65    C     0.71268   0.66160   0.05739   0.00000  Uiso   1.00
C66    C     0.69762   0.69262   0.16613   0.00000  Uiso   1.00
C67    C     0.93321   0.65031   0.73091   0.00000  Uiso   1.00
C68    C     0.98102   0.58900   0.67396   0.00000  Uiso   1.00
C69    C     0.08870   0.58680   0.60735   0.00000  Uiso   1.00
H70    H     0.96761   0.81357   0.78406   0.00000  Uiso   1.00
H71    H     0.90099   0.88508   0.67030   0.00000  Uiso   1.00
H72    H     0.87482   0.82209   0.03138   0.00000  Uiso   1.00
H73    H     0.14312   0.74950   0.64800   0.00000  Uiso   1.00
H74    H     0.80168   0.93919   0.54829   0.00000  Uiso   1.00
H75    H     0.74651   0.80637   0.30964   0.00000  Uiso   1.00
H76    H     0.31228   0.65329   0.50123   0.00000  Uiso   1.00
H77    H     0.77161   0.61954   0.81547   0.00000  Uiso   1.00
H78    H     0.69424   0.68040   0.70342   0.00000  Uiso   1.00
H79    H     0.66806   0.61742   0.06451   0.00000  Uiso   1.00
H80    H     0.93636   0.54482   0.68114   0.00000  Uiso   1.00
H81    H     0.63386   0.77307   0.57518   0.00000  Uiso   1.00
H82    H     0.57870   0.64024   0.33654   0.00000  Uiso   1.00
H83    H     0.14447   0.48716   0.52812   0.00000  Uiso   1.00
O84    O     0.67039   0.89968   0.48750   0.00000  Uiso   1.00
O85    O     0.59802   0.72541   0.48636   0.00000  Uiso   1.00
O86    O     0.34030   0.52457   0.42574   0.00000  Uiso   1.00
N87    N     0.77282   0.89174   0.56997   0.00000  Uiso   1.00
N88    N     0.72122   0.76756   0.28179   0.00000  Uiso   1.00
N89    N     0.25017   0.62444   0.52602   0.00000  Uiso   1.00
N90    N     0.68252   0.80235   0.58444   0.00000  Uiso   1.00
N91    N     0.63092   0.67817   0.29626   0.00000  Uiso   1.00
N92    N     0.15987   0.53505   0.54049   0.00000  Uiso   1.00
C93    C     0.57730   0.26912   0.20875   0.00000  Uiso   1.00
C94    C     0.64066   0.28106   0.26622   0.00000  Uiso   1.00
C95    C     0.64365   0.34090   0.32258   0.00000  Uiso   1.00
C96    C     0.70643   0.34163   0.36943   0.00000  Uiso   1.00
C97    C     0.79609   0.36887   0.46000   0.00000  Uiso   1.00
C98    C     0.65489   0.24685   0.07003   0.00000  Uiso   1.00
C99    C     0.66984   0.27791   0.96144   0.00000  Uiso   1.00
C100   C     0.74460   0.24983   0.84314   0.00000  Uiso   1.00
C101   C     0.85629   0.22392   0.62913   0.00000  Uiso   1.00
C102   C     0.50912   0.20741   0.27833   0.00000  Uiso   1.00
C103   C     0.40149   0.20530   0.34486   0.00000  Uiso   1.00
C104   C     0.35351   0.14401   0.40191   0.00000  Uiso   1.00
C105   C     0.23887   0.05686   0.51134   0.00000  Uiso   1.00
C106   C     0.68349   0.16399   0.19173   0.00000  Uiso   1.00
C107   C     0.69834   0.22396   0.25696   0.00000  Uiso   1.00
C108   C     0.76113   0.22459   0.30375   0.00000  Uiso   1.00
C109   C     0.76421   0.28443   0.36017   0.00000  Uiso   1.00
C110   C     0.71257   0.18975   0.06078   0.00000  Uiso   1.00
C111   C     0.78732   0.16160   0.94261   0.00000  Uiso   1.00
C112   C     0.80238   0.19262   0.83387   0.00000  Uiso   1.00
C113   C     0.56679   0.15031   0.26909   0.00000  Uiso   1.00
C114   C     0.51898   0.08900   0.32604   0.00000  Uiso   1.00
C115   C     0.41130   0.08680   0.39265   0.00000  Uiso   1.00
H116   H     0.53239   0.31357   0.21594   0.00000  Uiso   1.00
H117   H     0.59901   0.38508   0.32970   0.00000  Uiso   1.00
H118   H     0.62518   0.32209   0.96862   0.00000  Uiso   1.00
H119   H     0.35688   0.24950   0.35200   0.00000  Uiso   1.00
H120   H     0.69832   0.43919   0.45171   0.00000  Uiso   1.00
H121   H     0.75349   0.30637   0.69036   0.00000  Uiso   1.00
H122   H     0.18772   0.15329   0.49877   0.00000  Uiso   1.00
H123   H     0.72839   0.11954   0.18453   0.00000  Uiso   1.00
H124   H     0.80576   0.18040   0.29658   0.00000  Uiso   1.00
H125   H     0.83194   0.11742   0.93549   0.00000  Uiso   1.00
H126   H     0.56364   0.04482   0.31886   0.00000  Uiso   1.00
H127   H     0.86614   0.27307   0.42482   0.00000  Uiso   1.00
H128   H     0.92130   0.14024   0.66346   0.00000  Uiso   1.00
H129   H     0.35553   0.98716   0.47188   0.00000  Uiso   1.00
O130   O     0.82961   0.39968   0.51250   0.00000  Uiso   1.00
O131   O     0.90198   0.22541   0.51364   0.00000  Uiso   1.00
O132   O     0.15970   0.02457   0.57426   0.00000  Uiso   1.00
N133   N     0.72718   0.39174   0.43003   0.00000  Uiso   1.00
N134   N     0.77878   0.26756   0.71821   0.00000  Uiso   1.00
N135   N     0.24983   0.12444   0.47398   0.00000  Uiso   1.00
N136   N     0.81748   0.30235   0.41556   0.00000  Uiso   1.00
N137   N     0.86908   0.17817   0.70374   0.00000  Uiso   1.00
N138   N     0.34013   0.03505   0.45951   0.00000  Uiso   1.00
C139   C     0.07730   0.76912   0.20875   0.00000  Uiso   1.00
C140   C     0.14066   0.78106   0.26622   0.00000  Uiso   1.00
C141   C     0.14365   0.84090   0.32258   0.00000  Uiso   1.00
C142   C     0.20643   0.84163   0.36943   0.00000  Uiso   1.00
C143   C     0.29609   0.86887   0.46000   0.00000  Uiso   1.00
C144   C     0.15489   0.74685   0.07003   0.00000  Uiso   1.00
C145   C     0.16984   0.77791   0.96144   0.00000  Uiso   1.00
C146   C     0.24460   0.74983   0.84314   0.00000  Uiso   1.00
C147   C     0.35629   0.72392   0.62913   0.00000  Uiso   1.00
C148   C     0.00912   0.70741   0.27833   0.00000  Uiso   1.00
C149   C     0.90149   0.70530   0.34486   0.00000  Uiso   1.00
C150   C     0.85351   0.64401   0.40191   0.00000  Uiso   1.00
C151   C     0.73887   0.55686   0.51134   0.00000  Uiso   1.00
C152   C     0.18349   0.66399   0.19173   0.00000  Uiso   1.00
C153   C     0.19834   0.72396   0.25696   0.00000  Uiso   1.00
C154   C     0.26113   0.72459   0.30375   0.00000  Uiso   1.00
C155   C     0.26421   0.78443   0.36017   0.00000  Uiso   1.00
C156   C     0.21257   0.68975   0.06078   0.00000  Uiso   1.00
C157   C     0.28732   0.66160   0.94261   0.00000  Uiso   1.00
C158   C     0.30238   0.69262   0.83387   0.00000  Uiso   1.00
C159   C     0.06679   0.65031   0.26909   0.00000  Uiso   1.00
C160   C     0.01898   0.58900   0.32604   0.00000  Uiso   1.00
C161   C     0.91130   0.58680   0.39265   0.00000  Uiso   1.00
H162   H     0.03239   0.81357   0.21594   0.00000  Uiso   1.00
H163   H     0.09901   0.88508   0.32970   0.00000  Uiso   1.00
H164   H     0.12518   0.82209   0.96862   0.00000  Uiso   1.00
H165   H     0.85688   0.74950   0.35200   0.00000  Uiso   1.00
H166   H     0.19832   0.93919   0.45171   0.00000  Uiso   1.00
H167   H     0.25349   0.80637   0.69036   0.00000  Uiso   1.00
H168   H     0.68772   0.65329   0.49877   0.00000  Uiso   1.00
H169   H     0.22839   0.61954   0.18453   0.00000  Uiso   1.00
H170   H     0.30576   0.68040   0.29658   0.00000  Uiso   1.00
H171   H     0.33194   0.61742   0.93549   0.00000  Uiso   1.00
H172   H     0.06364   0.54482   0.31886   0.00000  Uiso   1.00
H173   H     0.36614   0.77307   0.42482   0.00000  Uiso   1.00
H174   H     0.42130   0.64024   0.66346   0.00000  Uiso   1.00
H175   H     0.85553   0.48716   0.47188   0.00000  Uiso   1.00
O176   O     0.32961   0.89968   0.51250   0.00000  Uiso   1.00
O177   O     0.40198   0.72541   0.51364   0.00000  Uiso   1.00
O178   O     0.65970   0.52457   0.57426   0.00000  Uiso   1.00
N179   N     0.22718   0.89174   0.43003   0.00000  Uiso   1.00
N180   N     0.27878   0.76756   0.71821   0.00000  Uiso   1.00
N181   N     0.74983   0.62444   0.47398   0.00000  Uiso   1.00
N182   N     0.31748   0.80235   0.41556   0.00000  Uiso   1.00
N183   N     0.36908   0.67817   0.70374   0.00000  Uiso   1.00
N184   N     0.84013   0.53505   0.45951   0.00000  Uiso   1.00
