data_job_05438
_audit_creation_date              2018-12-19
_audit_creation_method            'Materials Studio'
_symmetry_space_group_name_H-M    'P1'
_symmetry_Int_Tables_number       1
_symmetry_cell_setting            triclinic
loop_
_symmetry_equiv_pos_as_xyz
  x,y,z
_cell_length_a                    10.2955
_cell_length_b                    39.7567
_cell_length_c                    13.9374
_cell_angle_alpha                 90.0000
_cell_angle_beta                  91.2303
_cell_angle_gamma                 90.0000
loop_
_atom_site_label
_atom_site_type_symbol
_atom_site_fract_x
_atom_site_fract_y
_atom_site_fract_z
_atom_site_U_iso_or_equiv
_atom_site_adp_type
_atom_site_occupancy
C1     C     0.72900   0.34671   0.19227   0.00000  Uiso   1.00
C2     C     0.62670   0.31986   0.17069   0.00000  Uiso   1.00
C3     C     0.61847   0.28875   0.21531   0.00000  Uiso   1.00
C4     C     0.51778   0.26774   0.18536   0.00000  Uiso   1.00
C5     C     0.37254   0.22456   0.16276   0.00000  Uiso   1.00
C6     C     0.79347   0.35416   0.09711   0.00000  Uiso   1.00
C7     C     0.92545   0.35190   0.07987   0.00000  Uiso   1.00
C8     C     0.96514   0.35978   0.98798   0.00000  Uiso   1.00
C9     C     0.07882   0.36988   0.85117   0.00000  Uiso   1.00
C10    C     0.65434   0.37844   0.21819   0.00000  Uiso   1.00
C11    C     0.66935   0.39660   0.30275   0.00000  Uiso   1.00
C12    C     0.59192   0.42492   0.31279   0.00000  Uiso   1.00
C13    C     0.48958   0.47272   0.36397   0.00000  Uiso   1.00
C14    C     0.56483   0.36472   0.05974   0.00000  Uiso   1.00
C15    C     0.53754   0.32964   0.09870   0.00000  Uiso   1.00
C16    C     0.43683   0.30868   0.06868   0.00000  Uiso   1.00
C17    C     0.42845   0.27755   0.11325   0.00000  Uiso   1.00
C18    C     0.70431   0.36395   0.02512   0.00000  Uiso   1.00
C19    C     0.74382   0.37184   0.93324   0.00000  Uiso   1.00
C20    C     0.87582   0.36959   0.91587   0.00000  Uiso   1.00
C21    C     0.56516   0.38823   0.14621   0.00000  Uiso   1.00
C22    C     0.48771   0.41653   0.15612   0.00000  Uiso   1.00
C23    C     0.50260   0.43473   0.24067   0.00000  Uiso   1.00
H24    H     0.79843   0.33909   0.24831   0.00000  Uiso   1.00
H25    H     0.68750   0.28118   0.27101   0.00000  Uiso   1.00
H26    H     0.99443   0.34433   0.13559   0.00000  Uiso   1.00
H27    H     0.73836   0.38902   0.35843   0.00000  Uiso   1.00
H28    H     0.52522   0.22130   0.26440   0.00000  Uiso   1.00
H29    H     0.17241   0.35446   0.97888   0.00000  Uiso   1.00
H30    H     0.63244   0.44869   0.44879   0.00000  Uiso   1.00
H31    H     0.49541   0.37234   0.00369   0.00000  Uiso   1.00
H32    H     0.36784   0.31626   0.01297   0.00000  Uiso   1.00
H33    H     0.67478   0.37941   0.87756   0.00000  Uiso   1.00
H34    H     0.41872   0.42410   0.10040   0.00000  Uiso   1.00
H35    H     0.26578   0.24977   0.05496   0.00000  Uiso   1.00
H36    H     0.91297   0.38293   0.76945   0.00000  Uiso   1.00
H37    H     0.37300   0.47716   0.23935   0.00000  Uiso   1.00
O38    O     0.31708   0.19803   0.17017   0.00000  Uiso   1.00
O39    O     0.16617   0.37275   0.79559   0.00000  Uiso   1.00
O40    O     0.45774   0.49638   0.41210   0.00000  Uiso   1.00
N41    N     0.48165   0.23569   0.21385   0.00000  Uiso   1.00
N42    N     0.08673   0.36019   0.94690   0.00000  Uiso   1.00
N43    N     0.58194   0.44830   0.38621   0.00000  Uiso   1.00
N44    N     0.34205   0.25101   0.10116   0.00000  Uiso   1.00
N45    N     0.94713   0.37551   0.83421   0.00000  Uiso   1.00
N46    N     0.44233   0.46362   0.27352   0.00000  Uiso   1.00
C47    C     0.54803   0.66820   0.17765   0.00000  Uiso   1.00
C48    C     0.65912   0.69200   0.15430   0.00000  Uiso   1.00
C49    C     0.69667   0.71995   0.20770   0.00000  Uiso   1.00
C50    C     0.80065   0.73850   0.17434   0.00000  Uiso   1.00
C51    C     0.96336   0.77685   0.15080   0.00000  Uiso   1.00
C52    C     0.45811   0.66798   0.08928   0.00000  Uiso   1.00
C53    C     0.32664   0.67574   0.08801   0.00000  Uiso   1.00
C54    C     0.26141   0.67407   0.99991   0.00000  Uiso   1.00
C55    C     0.11203   0.67511   0.87542   0.00000  Uiso   1.00
C56    C     0.60764   0.63313   0.18370   0.00000  Uiso   1.00
C57    C     0.60188   0.61157   0.26182   0.00000  Uiso   1.00
C58    C     0.66251   0.58056   0.25321   0.00000  Uiso   1.00
C59    C     0.74530   0.52748   0.27534   0.00000  Uiso   1.00
C60    C     0.66591   0.65144   0.02345   0.00000  Uiso   1.00
C61    C     0.72314   0.68290   0.07055   0.00000  Uiso   1.00
C62    C     0.82710   0.70141   0.03710   0.00000  Uiso   1.00
C63    C     0.86480   0.72938   0.09044   0.00000  Uiso   1.00
C64    C     0.52213   0.65888   0.00552   0.00000  Uiso   1.00
C65    C     0.45707   0.65720   0.91740   0.00000  Uiso   1.00
C66    C     0.32555   0.66495   0.91600   0.00000  Uiso   1.00
C67    C     0.67167   0.62403   0.09995   0.00000  Uiso   1.00
C68    C     0.73231   0.59304   0.09121   0.00000  Uiso   1.00
C69    C     0.72666   0.57144   0.16930   0.00000  Uiso   1.00
H70    H     0.49817   0.67528   0.24286   0.00000  Uiso   1.00
H71    H     0.64708   0.72699   0.27251   0.00000  Uiso   1.00
H72    H     0.27712   0.68277   0.15284   0.00000  Uiso   1.00
H73    H     0.55232   0.61862   0.32662   0.00000  Uiso   1.00
H74    H     0.84039   0.78030   0.26843   0.00000  Uiso   1.00
H75    H     0.06029   0.68707   0.01610   0.00000  Uiso   1.00
H76    H     0.64060   0.55180   0.38256   0.00000  Uiso   1.00
H77    H     0.71576   0.64435   0.95824   0.00000  Uiso   1.00
H78    H     0.87663   0.69436   0.97228   0.00000  Uiso   1.00
H79    H     0.50665   0.65015   0.85261   0.00000  Uiso   1.00
H80    H     0.78186   0.58600   0.02639   0.00000  Uiso   1.00
H81    H     0.02669   0.75383   0.02475   0.00000  Uiso   1.00
H82    H     0.24658   0.66059   0.77242   0.00000  Uiso   1.00
H83    H     0.82690   0.52532   0.13888   0.00000  Uiso   1.00
O84    O     0.03541   0.80052   0.16095   0.00000  Uiso   1.00
O85    O     0.01194   0.67820   0.82990   0.00000  Uiso   1.00
O86    O     0.77329   0.50073   0.31068   0.00000  Uiso   1.00
N87    N     0.86218   0.76720   0.20917   0.00000  Uiso   1.00
N88    N     0.13283   0.68004   0.97325   0.00000  Uiso   1.00
N89    N     0.67534   0.55357   0.31585   0.00000  Uiso   1.00
N90    N     0.96243   0.75296   0.07805   0.00000  Uiso   1.00
N91    N     0.23308   0.66580   0.84212   0.00000  Uiso   1.00
N92    N     0.77559   0.53932   0.18472   0.00000  Uiso   1.00
C93    C     0.03163   0.66598   0.31040   0.00000  Uiso   1.00
C94    C     0.14172   0.69068   0.33212   0.00000  Uiso   1.00
C95    C     0.17363   0.71836   0.27675   0.00000  Uiso   1.00
C96    C     0.27766   0.73786   0.30885   0.00000  Uiso   1.00
C97    C     0.43798   0.77742   0.32975   0.00000  Uiso   1.00
C98    C     0.94666   0.66601   0.39868   0.00000  Uiso   1.00
C99    C     0.81456   0.67295   0.39926   0.00000  Uiso   1.00
C100   C     0.75439   0.67167   0.48739   0.00000  Uiso   1.00
C101   C     0.61186   0.67291   0.61162   0.00000  Uiso   1.00
C102   C     0.09423   0.63125   0.30696   0.00000  Uiso   1.00
C103   C     0.08619   0.60896   0.23043   0.00000  Uiso   1.00
C104   C     0.15025   0.57843   0.24135   0.00000  Uiso   1.00
C105   C     0.23685   0.52570   0.22316   0.00000  Uiso   1.00
C106   C     0.15964   0.65138   0.46589   0.00000  Uiso   1.00
C107   C     0.21124   0.68274   0.41658   0.00000  Uiso   1.00
C108   C     0.31526   0.70220   0.44877   0.00000  Uiso   1.00
C109   C     0.34732   0.72991   0.39345   0.00000  Uiso   1.00
C110   C     0.01618   0.65808   0.48314   0.00000  Uiso   1.00
C111   C     0.95619   0.65679   0.57129   0.00000  Uiso   1.00
C112   C     0.82405   0.66372   0.57200   0.00000  Uiso   1.00
C113   C     0.16377   0.62332   0.39141   0.00000  Uiso   1.00
C114   C     0.22783   0.59281   0.40246   0.00000  Uiso   1.00
C115   C     0.21990   0.57048   0.32595   0.00000  Uiso   1.00
H116   H     0.97749   0.67216   0.24466   0.00000  Uiso   1.00
H117   H     0.11979   0.72449   0.21140   0.00000  Uiso   1.00
H118   H     0.76078   0.67908   0.33389   0.00000  Uiso   1.00
H119   H     0.03238   0.61511   0.16509   0.00000  Uiso   1.00
H120   H     0.30818   0.77902   0.21179   0.00000  Uiso   1.00
H121   H     0.55119   0.68326   0.47007   0.00000  Uiso   1.00
H122   H     0.12390   0.54837   0.11411   0.00000  Uiso   1.00
H123   H     0.21377   0.64520   0.53164   0.00000  Uiso   1.00
H124   H     0.36905   0.69606   0.51413   0.00000  Uiso   1.00
H125   H     0.01003   0.65065   0.63663   0.00000  Uiso   1.00
H126   H     0.28163   0.58668   0.46782   0.00000  Uiso   1.00
H127   H     0.51049   0.75595   0.45750   0.00000  Uiso   1.00
H128   H     0.75348   0.66018   0.71578   0.00000  Uiso   1.00
H129   H     0.32620   0.52529   0.35982   0.00000  Uiso   1.00
O130   O     0.50719   0.80143   0.31796   0.00000  Uiso   1.00
O131   O     0.51403   0.67579   0.65681   0.00000  Uiso   1.00
O132   O     0.26542   0.49882   0.18980   0.00000  Uiso   1.00
N133   N     0.33450   0.76661   0.27201   0.00000  Uiso   1.00
N134   N     0.62676   0.67708   0.51349   0.00000  Uiso   1.00
N135   N     0.16217   0.55097   0.18071   0.00000  Uiso   1.00
N136   N     0.44336   0.75419   0.40422   0.00000  Uiso   1.00
N137   N     0.73562   0.66466   0.64570   0.00000  Uiso   1.00
N138   N     0.27103   0.53855   0.31292   0.00000  Uiso   1.00
C139   C     0.23183   0.34574   0.30208   0.00000  Uiso   1.00
C140   C     0.13088   0.31950   0.32901   0.00000  Uiso   1.00
C141   C     0.11471   0.28820   0.28636   0.00000  Uiso   1.00
C142   C     0.01686   0.26785   0.32128   0.00000  Uiso   1.00
C143   C     0.87214   0.22549   0.35173   0.00000  Uiso   1.00
C144   C     0.30916   0.35340   0.39404   0.00000  Uiso   1.00
C145   C     0.44289   0.35061   0.40604   0.00000  Uiso   1.00
C146   C     0.49512   0.35880   0.49570   0.00000  Uiso   1.00
C147   C     0.62719   0.36910   0.62708   0.00000  Uiso   1.00
C148   C     0.15606   0.37768   0.27770   0.00000  Uiso   1.00
C149   C     0.16109   0.39530   0.19189   0.00000  Uiso   1.00
C150   C     0.08444   0.42393   0.18361   0.00000  Uiso   1.00
C151   C     0.97881   0.47192   0.13436   0.00000  Uiso   1.00
C152   C     0.08679   0.36526   0.43996   0.00000  Uiso   1.00
C153   C     0.05211   0.33011   0.40390   0.00000  Uiso   1.00
C154   C     0.95425   0.30980   0.43890   0.00000  Uiso   1.00
C155   C     0.93794   0.27847   0.39630   0.00000  Uiso   1.00
C156   C     0.23039   0.36401   0.46892   0.00000  Uiso   1.00
C157   C     0.28243   0.37221   0.55858   0.00000  Uiso   1.00
C158   C     0.41620   0.36942   0.57072   0.00000  Uiso   1.00
C159   C     0.07728   0.38828   0.35258   0.00000  Uiso   1.00
C160   C     0.00062   0.41689   0.34443   0.00000  Uiso   1.00
C161   C     0.00553   0.43455   0.25863   0.00000  Uiso   1.00
H162   H     0.29316   0.33748   0.24379   0.00000  Uiso   1.00
H163   H     0.17570   0.28000   0.22841   0.00000  Uiso   1.00
H164   H     0.50383   0.34240   0.34807   0.00000  Uiso   1.00
H165   H     0.22206   0.38708   0.13396   0.00000  Uiso   1.00
H166   H     0.01077   0.22094   0.24441   0.00000  Uiso   1.00
H167   H     0.70264   0.35253   0.49672   0.00000  Uiso   1.00
H168   H     0.10849   0.44675   0.04521   0.00000  Uiso   1.00
H169   H     0.02547   0.37352   0.49826   0.00000  Uiso   1.00
H170   H     0.89331   0.31801   0.49685   0.00000  Uiso   1.00
H171   H     0.22144   0.38041   0.61651   0.00000  Uiso   1.00
H172   H     0.93967   0.42509   0.40240   0.00000  Uiso   1.00
H173   H     0.78157   0.25179   0.46229   0.00000  Uiso   1.00
H174   H     0.47345   0.38339   0.71460   0.00000  Uiso   1.00
H175   H     0.87929   0.47760   0.26309   0.00000  Uiso   1.00
O176   O     0.81409   0.19920   0.34785   0.00000  Uiso   1.00
O177   O     0.72181   0.37185   0.67886   0.00000  Uiso   1.00
O178   O     0.94229   0.49546   0.08650   0.00000  Uiso   1.00
N179   N     0.97494   0.23582   0.29587   0.00000  Uiso   1.00
N180   N     0.62181   0.35885   0.53177   0.00000  Uiso   1.00
N181   N     0.06635   0.44694   0.10966   0.00000  Uiso   1.00
N182   N     0.85161   0.25243   0.41311   0.00000  Uiso   1.00
N183   N     0.49848   0.37545   0.64901   0.00000  Uiso   1.00
N184   N     0.94302   0.46354   0.22689   0.00000  Uiso   1.00
C185   C     0.27100   0.84671   0.80773   0.00000  Uiso   1.00
C186   C     0.37330   0.81986   0.82931   0.00000  Uiso   1.00
C187   C     0.38153   0.78875   0.78469   0.00000  Uiso   1.00
C188   C     0.48222   0.76774   0.81464   0.00000  Uiso   1.00
C189   C     0.62746   0.72456   0.83724   0.00000  Uiso   1.00
C190   C     0.20653   0.85416   0.90289   0.00000  Uiso   1.00
C191   C     0.07455   0.85190   0.92013   0.00000  Uiso   1.00
C192   C     0.03486   0.85978   0.01202   0.00000  Uiso   1.00
C193   C     0.92118   0.86988   0.14883   0.00000  Uiso   1.00
C194   C     0.34566   0.87844   0.78181   0.00000  Uiso   1.00
C195   C     0.33065   0.89660   0.69725   0.00000  Uiso   1.00
C196   C     0.40808   0.92492   0.68721   0.00000  Uiso   1.00
C197   C     0.51042   0.97272   0.63603   0.00000  Uiso   1.00
C198   C     0.43517   0.86472   0.94026   0.00000  Uiso   1.00
C199   C     0.46246   0.82964   0.90130   0.00000  Uiso   1.00
C200   C     0.56317   0.80868   0.93132   0.00000  Uiso   1.00
C201   C     0.57155   0.77755   0.88675   0.00000  Uiso   1.00
C202   C     0.29569   0.86395   0.97488   0.00000  Uiso   1.00
C203   C     0.25618   0.87184   0.06676   0.00000  Uiso   1.00
C204   C     0.12418   0.86959   0.08413   0.00000  Uiso   1.00
C205   C     0.43484   0.88823   0.85379   0.00000  Uiso   1.00
C206   C     0.51229   0.91653   0.84388   0.00000  Uiso   1.00
C207   C     0.49740   0.93473   0.75933   0.00000  Uiso   1.00
H208   H     0.20157   0.83909   0.75169   0.00000  Uiso   1.00
H209   H     0.31250   0.78118   0.72899   0.00000  Uiso   1.00
H210   H     0.00557   0.84433   0.86441   0.00000  Uiso   1.00
H211   H     0.26164   0.88902   0.64157   0.00000  Uiso   1.00
H212   H     0.47478   0.72130   0.73560   0.00000  Uiso   1.00
H213   H     0.82759   0.85446   0.02112   0.00000  Uiso   1.00
H214   H     0.36756   0.94869   0.55121   0.00000  Uiso   1.00
H215   H     0.50459   0.87234   0.99631   0.00000  Uiso   1.00
H216   H     0.63216   0.81626   0.98703   0.00000  Uiso   1.00
H217   H     0.32522   0.87941   0.12244   0.00000  Uiso   1.00
H218   H     0.58128   0.92410   0.89960   0.00000  Uiso   1.00
H219   H     0.73422   0.74977   0.94504   0.00000  Uiso   1.00
H220   H     0.08703   0.88293   0.23055   0.00000  Uiso   1.00
H221   H     0.62700   0.97716   0.76065   0.00000  Uiso   1.00
O222   O     0.68292   0.69803   0.82983   0.00000  Uiso   1.00
O223   O     0.83383   0.87275   0.20441   0.00000  Uiso   1.00
O224   O     0.54226   0.99638   0.58790   0.00000  Uiso   1.00
N225   N     0.51835   0.73569   0.78615   0.00000  Uiso   1.00
N226   N     0.91327   0.86019   0.05310   0.00000  Uiso   1.00
N227   N     0.41806   0.94830   0.61379   0.00000  Uiso   1.00
N228   N     0.65795   0.75101   0.89884   0.00000  Uiso   1.00
N229   N     0.05287   0.87551   0.16579   0.00000  Uiso   1.00
N230   N     0.55767   0.96362   0.72648   0.00000  Uiso   1.00
C231   C     0.45197   0.16820   0.82235   0.00000  Uiso   1.00
C232   C     0.34088   0.19200   0.84570   0.00000  Uiso   1.00
C233   C     0.30333   0.21995   0.79230   0.00000  Uiso   1.00
C234   C     0.19935   0.23850   0.82566   0.00000  Uiso   1.00
C235   C     0.03664   0.27685   0.84920   0.00000  Uiso   1.00
C236   C     0.54189   0.16798   0.91072   0.00000  Uiso   1.00
C237   C     0.67336   0.17574   0.91199   0.00000  Uiso   1.00
C238   C     0.73859   0.17407   0.00009   0.00000  Uiso   1.00
C239   C     0.88797   0.17511   0.12458   0.00000  Uiso   1.00
C240   C     0.39236   0.13313   0.81630   0.00000  Uiso   1.00
C241   C     0.39812   0.11157   0.73818   0.00000  Uiso   1.00
C242   C     0.33749   0.08056   0.74679   0.00000  Uiso   1.00
C243   C     0.25470   0.02748   0.72466   0.00000  Uiso   1.00
C244   C     0.33409   0.15144   0.97655   0.00000  Uiso   1.00
C245   C     0.27686   0.18290   0.92945   0.00000  Uiso   1.00
C246   C     0.17290   0.20141   0.96290   0.00000  Uiso   1.00
C247   C     0.13520   0.22938   0.90956   0.00000  Uiso   1.00
C248   C     0.47787   0.15888   0.99448   0.00000  Uiso   1.00
C249   C     0.54293   0.15720   0.08260   0.00000  Uiso   1.00
C250   C     0.67445   0.16495   0.08400   0.00000  Uiso   1.00
C251   C     0.32833   0.12403   0.90005   0.00000  Uiso   1.00
C252   C     0.26769   0.09304   0.90879   0.00000  Uiso   1.00
C253   C     0.27334   0.07144   0.83070   0.00000  Uiso   1.00
H254   H     0.50183   0.17528   0.75714   0.00000  Uiso   1.00
H255   H     0.35292   0.22699   0.72749   0.00000  Uiso   1.00
H256   H     0.72288   0.18277   0.84716   0.00000  Uiso   1.00
H257   H     0.44768   0.11862   0.67338   0.00000  Uiso   1.00
H258   H     0.15961   0.28030   0.73157   0.00000  Uiso   1.00
H259   H     0.93971   0.18707   0.98390   0.00000  Uiso   1.00
H260   H     0.35940   0.05180   0.61744   0.00000  Uiso   1.00
H261   H     0.28424   0.14435   0.04176   0.00000  Uiso   1.00
H262   H     0.12337   0.19436   0.02772   0.00000  Uiso   1.00
H263   H     0.49335   0.15015   0.14739   0.00000  Uiso   1.00
H264   H     0.21814   0.08600   0.97361   0.00000  Uiso   1.00
H265   H     0.97331   0.25383   0.97525   0.00000  Uiso   1.00
H266   H     0.75342   0.16059   0.22758   0.00000  Uiso   1.00
H267   H     0.17310   0.02532   0.86112   0.00000  Uiso   1.00
O268   O     0.96459   0.30052   0.83905   0.00000  Uiso   1.00
O269   O     0.98806   0.17820   0.17010   0.00000  Uiso   1.00
O270   O     0.22671   0.00073   0.68932   0.00000  Uiso   1.00
N271   N     0.13782   0.26720   0.79083   0.00000  Uiso   1.00
N272   N     0.86717   0.18004   0.02675   0.00000  Uiso   1.00
N273   N     0.32466   0.05357   0.68415   0.00000  Uiso   1.00
N274   N     0.03757   0.25296   0.92195   0.00000  Uiso   1.00
N275   N     0.76692   0.16580   0.15788   0.00000  Uiso   1.00
N276   N     0.22441   0.03932   0.81528   0.00000  Uiso   1.00
C277   C     0.96837   0.16598   0.68960   0.00000  Uiso   1.00
C278   C     0.85828   0.19068   0.66788   0.00000  Uiso   1.00
C279   C     0.82637   0.21836   0.72325   0.00000  Uiso   1.00
C280   C     0.72234   0.23786   0.69115   0.00000  Uiso   1.00
C281   C     0.56202   0.27742   0.67025   0.00000  Uiso   1.00
C282   C     0.05334   0.16601   0.60132   0.00000  Uiso   1.00
C283   C     0.18544   0.17295   0.60074   0.00000  Uiso   1.00
C284   C     0.24561   0.17167   0.51261   0.00000  Uiso   1.00
C285   C     0.38814   0.17291   0.38838   0.00000  Uiso   1.00
C286   C     0.90577   0.13125   0.69304   0.00000  Uiso   1.00
C287   C     0.91381   0.10896   0.76957   0.00000  Uiso   1.00
C288   C     0.84975   0.07843   0.75865   0.00000  Uiso   1.00
C289   C     0.76315   0.02570   0.77684   0.00000  Uiso   1.00
C290   C     0.84036   0.15138   0.53411   0.00000  Uiso   1.00
C291   C     0.78876   0.18274   0.58342   0.00000  Uiso   1.00
C292   C     0.68474   0.20220   0.55123   0.00000  Uiso   1.00
C293   C     0.65268   0.22991   0.60655   0.00000  Uiso   1.00
C294   C     0.98382   0.15808   0.51686   0.00000  Uiso   1.00
C295   C     0.04381   0.15679   0.42871   0.00000  Uiso   1.00
C296   C     0.17595   0.16372   0.42800   0.00000  Uiso   1.00
C297   C     0.83623   0.12332   0.60859   0.00000  Uiso   1.00
C298   C     0.77217   0.09281   0.59754   0.00000  Uiso   1.00
C299   C     0.78010   0.07048   0.67405   0.00000  Uiso   1.00
H300   H     0.02251   0.17216   0.75534   0.00000  Uiso   1.00
H301   H     0.88021   0.22449   0.78860   0.00000  Uiso   1.00
H302   H     0.23922   0.17908   0.66611   0.00000  Uiso   1.00
H303   H     0.96762   0.11511   0.83491   0.00000  Uiso   1.00
H304   H     0.69182   0.27902   0.78821   0.00000  Uiso   1.00
H305   H     0.44881   0.18326   0.52993   0.00000  Uiso   1.00
H306   H     0.87610   0.04837   0.88589   0.00000  Uiso   1.00
H307   H     0.78623   0.14520   0.46836   0.00000  Uiso   1.00
H308   H     0.63095   0.19606   0.48587   0.00000  Uiso   1.00
H309   H     0.98997   0.15065   0.36337   0.00000  Uiso   1.00
H310   H     0.71837   0.08668   0.53218   0.00000  Uiso   1.00
H311   H     0.48951   0.25595   0.54250   0.00000  Uiso   1.00
H312   H     0.24652   0.16018   0.28422   0.00000  Uiso   1.00
H313   H     0.67380   0.02529   0.64018   0.00000  Uiso   1.00
O314   O     0.49281   0.30143   0.68204   0.00000  Uiso   1.00
O315   O     0.48597   0.17579   0.34319   0.00000  Uiso   1.00
O316   O     0.73458   0.99882   0.81020   0.00000  Uiso   1.00
N317   N     0.66550   0.26661   0.72799   0.00000  Uiso   1.00
N318   N     0.37324   0.17708   0.48651   0.00000  Uiso   1.00
N319   N     0.83783   0.05097   0.81929   0.00000  Uiso   1.00
N320   N     0.55664   0.25419   0.59578   0.00000  Uiso   1.00
N321   N     0.26438   0.16466   0.35430   0.00000  Uiso   1.00
N322   N     0.72897   0.03855   0.68708   0.00000  Uiso   1.00
C323   C     0.76817   0.84574   0.69792   0.00000  Uiso   1.00
C324   C     0.86912   0.81950   0.67099   0.00000  Uiso   1.00
C325   C     0.88529   0.78820   0.71364   0.00000  Uiso   1.00
C326   C     0.98314   0.76785   0.67872   0.00000  Uiso   1.00
C327   C     0.12786   0.72549   0.64827   0.00000  Uiso   1.00
C328   C     0.69084   0.85340   0.60596   0.00000  Uiso   1.00
C329   C     0.55711   0.85061   0.59396   0.00000  Uiso   1.00
C330   C     0.50488   0.85880   0.50430   0.00000  Uiso   1.00
C331   C     0.37281   0.86910   0.37292   0.00000  Uiso   1.00
C332   C     0.84394   0.87768   0.72230   0.00000  Uiso   1.00
C333   C     0.83891   0.89530   0.80811   0.00000  Uiso   1.00
C334   C     0.91556   0.92393   0.81639   0.00000  Uiso   1.00
C335   C     0.02119   0.97192   0.86564   0.00000  Uiso   1.00
C336   C     0.91321   0.86526   0.56004   0.00000  Uiso   1.00
C337   C     0.94789   0.83011   0.59610   0.00000  Uiso   1.00
C338   C     0.04575   0.80980   0.56110   0.00000  Uiso   1.00
C339   C     0.06206   0.77847   0.60370   0.00000  Uiso   1.00
C340   C     0.76961   0.86401   0.53108   0.00000  Uiso   1.00
C341   C     0.71757   0.87221   0.44142   0.00000  Uiso   1.00
C342   C     0.58380   0.86942   0.42928   0.00000  Uiso   1.00
C343   C     0.92272   0.88828   0.64742   0.00000  Uiso   1.00
C344   C     0.99938   0.91689   0.65557   0.00000  Uiso   1.00
C345   C     0.99447   0.93455   0.74137   0.00000  Uiso   1.00
H346   H     0.70684   0.83748   0.75621   0.00000  Uiso   1.00
H347   H     0.82430   0.78000   0.77159   0.00000  Uiso   1.00
H348   H     0.49617   0.84240   0.65193   0.00000  Uiso   1.00
H349   H     0.77794   0.88708   0.86604   0.00000  Uiso   1.00
H350   H     0.98923   0.72094   0.75559   0.00000  Uiso   1.00
H351   H     0.29736   0.85253   0.50328   0.00000  Uiso   1.00
H352   H     0.89151   0.94675   0.95479   0.00000  Uiso   1.00
H353   H     0.97453   0.87352   0.50174   0.00000  Uiso   1.00
H354   H     0.10669   0.81801   0.50315   0.00000  Uiso   1.00
H355   H     0.77856   0.88041   0.38349   0.00000  Uiso   1.00
H356   H     0.06033   0.92509   0.59760   0.00000  Uiso   1.00
H357   H     0.21843   0.75179   0.53771   0.00000  Uiso   1.00
H358   H     0.52655   0.88339   0.28540   0.00000  Uiso   1.00
H359   H     0.12071   0.97760   0.73691   0.00000  Uiso   1.00
O360   O     0.18591   0.69920   0.65215   0.00000  Uiso   1.00
O361   O     0.27819   0.87185   0.32114   0.00000  Uiso   1.00
O362   O     0.05771   0.99546   0.91350   0.00000  Uiso   1.00
N363   N     0.02506   0.73582   0.70413   0.00000  Uiso   1.00
N364   N     0.37819   0.85885   0.46823   0.00000  Uiso   1.00
N365   N     0.93365   0.94694   0.89034   0.00000  Uiso   1.00
N366   N     0.14839   0.75243   0.58689   0.00000  Uiso   1.00
N367   N     0.50152   0.87545   0.35099   0.00000  Uiso   1.00
N368   N     0.05698   0.96354   0.77311   0.00000  Uiso   1.00
