data_job_02505
_audit_creation_date              2018-12-19
_audit_creation_method            'Materials Studio'
_symmetry_space_group_name_H-M    'P1'
_symmetry_Int_Tables_number       1
_symmetry_cell_setting            triclinic
loop_
_symmetry_equiv_pos_as_xyz
  x,y,z
_cell_length_a                    14.7682
_cell_length_b                    17.2655
_cell_length_c                    21.4258
_cell_angle_alpha                 90.0000
_cell_angle_beta                  90.0000
_cell_angle_gamma                 90.0000
loop_
_atom_site_label
_atom_site_type_symbol
_atom_site_fract_x
_atom_site_fract_y
_atom_site_fract_z
_atom_site_U_iso_or_equiv
_atom_site_adp_type
_atom_site_occupancy
C1     C     0.74752   0.73216   0.31051   0.00000  Uiso   1.00
C2     C     0.79467   0.78919   0.26695   0.00000  Uiso   1.00
C3     C     0.81081   0.77784   0.20380   0.00000  Uiso   1.00
C4     C     0.85493   0.83695   0.17210   0.00000  Uiso   1.00
C5     C     0.92408   0.91513   0.09983   0.00000  Uiso   1.00
C6     C     0.81370   0.71698   0.36376   0.00000  Uiso   1.00
C7     C     0.84583   0.64492   0.38201   0.00000  Uiso   1.00
C8     C     0.90596   0.64326   0.43181   0.00000  Uiso   1.00
C9     C     0.00461   0.60934   0.50987   0.00000  Uiso   1.00
C10    C     0.66821   0.77610   0.33921   0.00000  Uiso   1.00
C11    C     0.57801   0.75373   0.33683   0.00000  Uiso   1.00
C12    C     0.51565   0.80184   0.36598   0.00000  Uiso   1.00
C13    C     0.38840   0.85970   0.40592   0.00000  Uiso   1.00
C14    C     0.79715   0.85734   0.36651   0.00000  Uiso   1.00
C15    C     0.82163   0.85718   0.29736   0.00000  Uiso   1.00
C16    C     0.86573   0.91633   0.26575   0.00000  Uiso   1.00
C17    C     0.88193   0.90507   0.20256   0.00000  Uiso   1.00
C18    C     0.84066   0.78497   0.39417   0.00000  Uiso   1.00
C19    C     0.90075   0.78342   0.44396   0.00000  Uiso   1.00
C20    C     0.93297   0.71137   0.46228   0.00000  Uiso   1.00
C21    C     0.69517   0.84409   0.36962   0.00000  Uiso   1.00
C22    C     0.63293   0.89223   0.39878   0.00000  Uiso   1.00
C23    C     0.54266   0.86995   0.39645   0.00000  Uiso   1.00
H24    H     0.72653   0.67923   0.28684   0.00000  Uiso   1.00
H25    H     0.78994   0.72520   0.18028   0.00000  Uiso   1.00
H26    H     0.82495   0.59232   0.35847   0.00000  Uiso   1.00
H27    H     0.55718   0.70112   0.31329   0.00000  Uiso   1.00
H28    H     0.87217   0.80615   0.07556   0.00000  Uiso   1.00
H29    H     0.94596   0.52594   0.45129   0.00000  Uiso   1.00
H30    H     0.38130   0.75537   0.35603   0.00000  Uiso   1.00
H31    H     0.81815   0.91028   0.39019   0.00000  Uiso   1.00
H32    H     0.88658   0.96894   0.28930   0.00000  Uiso   1.00
H33    H     0.92159   0.83604   0.46748   0.00000  Uiso   1.00
H34    H     0.65382   0.94484   0.42231   0.00000  Uiso   1.00
H35    H     0.95061   0.00397   0.16404   0.00000  Uiso   1.00
H36    H     0.02440   0.72376   0.53977   0.00000  Uiso   1.00
H37    H     0.45974   0.95319   0.44451   0.00000  Uiso   1.00
O38    O     0.95478   0.93947   0.05157   0.00000  Uiso   1.00
O39    O     0.05158   0.57185   0.54452   0.00000  Uiso   1.00
O40    O     0.31076   0.87285   0.41954   0.00000  Uiso   1.00
N41    N     0.88122   0.84467   0.11023   0.00000  Uiso   1.00
N42    N     0.95022   0.58269   0.46150   0.00000  Uiso   1.00
N43    N     0.42232   0.79717   0.37246   0.00000  Uiso   1.00
N44    N     0.92343   0.95111   0.15784   0.00000  Uiso   1.00
N45    N     0.99243   0.68913   0.50911   0.00000  Uiso   1.00
N46    N     0.46452   0.90362   0.42007   0.00000  Uiso   1.00
C47    C     0.75248   0.26784   0.31051   0.00000  Uiso   1.00
C48    C     0.70533   0.21081   0.26695   0.00000  Uiso   1.00
C49    C     0.68919   0.22216   0.20380   0.00000  Uiso   1.00
C50    C     0.64507   0.16305   0.17210   0.00000  Uiso   1.00
C51    C     0.57592   0.08487   0.09983   0.00000  Uiso   1.00
C52    C     0.68630   0.28302   0.36376   0.00000  Uiso   1.00
C53    C     0.65417   0.35508   0.38201   0.00000  Uiso   1.00
C54    C     0.59404   0.35674   0.43181   0.00000  Uiso   1.00
C55    C     0.49539   0.39066   0.50987   0.00000  Uiso   1.00
C56    C     0.83179   0.22390   0.33921   0.00000  Uiso   1.00
C57    C     0.92199   0.24627   0.33683   0.00000  Uiso   1.00
C58    C     0.98435   0.19816   0.36598   0.00000  Uiso   1.00
C59    C     0.11160   0.14030   0.40592   0.00000  Uiso   1.00
C60    C     0.70285   0.14266   0.36651   0.00000  Uiso   1.00
C61    C     0.67837   0.14282   0.29736   0.00000  Uiso   1.00
C62    C     0.63427   0.08367   0.26575   0.00000  Uiso   1.00
C63    C     0.61807   0.09493   0.20256   0.00000  Uiso   1.00
C64    C     0.65934   0.21503   0.39417   0.00000  Uiso   1.00
C65    C     0.59925   0.21658   0.44396   0.00000  Uiso   1.00
C66    C     0.56703   0.28863   0.46228   0.00000  Uiso   1.00
C67    C     0.80483   0.15591   0.36962   0.00000  Uiso   1.00
C68    C     0.86707   0.10777   0.39878   0.00000  Uiso   1.00
C69    C     0.95734   0.13005   0.39645   0.00000  Uiso   1.00
H70    H     0.77347   0.32077   0.28684   0.00000  Uiso   1.00
H71    H     0.71006   0.27480   0.18028   0.00000  Uiso   1.00
H72    H     0.67505   0.40768   0.35847   0.00000  Uiso   1.00
H73    H     0.94282   0.29888   0.31329   0.00000  Uiso   1.00
H74    H     0.62783   0.19385   0.07556   0.00000  Uiso   1.00
H75    H     0.55404   0.47406   0.45129   0.00000  Uiso   1.00
H76    H     0.11870   0.24463   0.35603   0.00000  Uiso   1.00
H77    H     0.68185   0.08972   0.39019   0.00000  Uiso   1.00
H78    H     0.61342   0.03106   0.28930   0.00000  Uiso   1.00
H79    H     0.57841   0.16396   0.46748   0.00000  Uiso   1.00
H80    H     0.84618   0.05516   0.42231   0.00000  Uiso   1.00
H81    H     0.54939   0.99603   0.16404   0.00000  Uiso   1.00
H82    H     0.47560   0.27624   0.53977   0.00000  Uiso   1.00
H83    H     0.04026   0.04681   0.44451   0.00000  Uiso   1.00
O84    O     0.54522   0.06053   0.05157   0.00000  Uiso   1.00
O85    O     0.44842   0.42815   0.54452   0.00000  Uiso   1.00
O86    O     0.18924   0.12715   0.41954   0.00000  Uiso   1.00
N87    N     0.61878   0.15533   0.11023   0.00000  Uiso   1.00
N88    N     0.54978   0.41731   0.46150   0.00000  Uiso   1.00
N89    N     0.07768   0.20283   0.37246   0.00000  Uiso   1.00
N90    N     0.57657   0.04889   0.15784   0.00000  Uiso   1.00
N91    N     0.50757   0.31087   0.50911   0.00000  Uiso   1.00
N92    N     0.03548   0.09638   0.42007   0.00000  Uiso   1.00
C93    C     0.25248   0.73216   0.18949   0.00000  Uiso   1.00
C94    C     0.20533   0.78919   0.23305   0.00000  Uiso   1.00
C95    C     0.18919   0.77784   0.29620   0.00000  Uiso   1.00
C96    C     0.14507   0.83695   0.32790   0.00000  Uiso   1.00
C97    C     0.07592   0.91513   0.40017   0.00000  Uiso   1.00
C98    C     0.18630   0.71698   0.13624   0.00000  Uiso   1.00
C99    C     0.15417   0.64492   0.11799   0.00000  Uiso   1.00
C100   C     0.09404   0.64326   0.06819   0.00000  Uiso   1.00
C101   C     0.99539   0.60934   0.99013   0.00000  Uiso   1.00
C102   C     0.33179   0.77610   0.16079   0.00000  Uiso   1.00
C103   C     0.42199   0.75373   0.16317   0.00000  Uiso   1.00
C104   C     0.48435   0.80184   0.13402   0.00000  Uiso   1.00
C105   C     0.61160   0.85970   0.09408   0.00000  Uiso   1.00
C106   C     0.20285   0.85734   0.13349   0.00000  Uiso   1.00
C107   C     0.17837   0.85718   0.20264   0.00000  Uiso   1.00
C108   C     0.13427   0.91633   0.23425   0.00000  Uiso   1.00
C109   C     0.11807   0.90507   0.29744   0.00000  Uiso   1.00
C110   C     0.15934   0.78497   0.10583   0.00000  Uiso   1.00
C111   C     0.09925   0.78342   0.05604   0.00000  Uiso   1.00
C112   C     0.06703   0.71137   0.03772   0.00000  Uiso   1.00
C113   C     0.30483   0.84409   0.13038   0.00000  Uiso   1.00
C114   C     0.36707   0.89223   0.10122   0.00000  Uiso   1.00
C115   C     0.45734   0.86995   0.10355   0.00000  Uiso   1.00
H116   H     0.27347   0.67923   0.21316   0.00000  Uiso   1.00
H117   H     0.21006   0.72520   0.31972   0.00000  Uiso   1.00
H118   H     0.17505   0.59232   0.14153   0.00000  Uiso   1.00
H119   H     0.44282   0.70112   0.18671   0.00000  Uiso   1.00
H120   H     0.12783   0.80615   0.42444   0.00000  Uiso   1.00
H121   H     0.05404   0.52594   0.04871   0.00000  Uiso   1.00
H122   H     0.61870   0.75537   0.14397   0.00000  Uiso   1.00
H123   H     0.18185   0.91028   0.10981   0.00000  Uiso   1.00
H124   H     0.11342   0.96894   0.21070   0.00000  Uiso   1.00
H125   H     0.07841   0.83604   0.03252   0.00000  Uiso   1.00
H126   H     0.34618   0.94484   0.07769   0.00000  Uiso   1.00
H127   H     0.04939   0.00397   0.33596   0.00000  Uiso   1.00
H128   H     0.97560   0.72376   0.96023   0.00000  Uiso   1.00
H129   H     0.54026   0.95319   0.05549   0.00000  Uiso   1.00
O130   O     0.04522   0.93947   0.44843   0.00000  Uiso   1.00
O131   O     0.94842   0.57185   0.95548   0.00000  Uiso   1.00
O132   O     0.68924   0.87285   0.08046   0.00000  Uiso   1.00
N133   N     0.11878   0.84467   0.38977   0.00000  Uiso   1.00
N134   N     0.04978   0.58269   0.03850   0.00000  Uiso   1.00
N135   N     0.57768   0.79717   0.12754   0.00000  Uiso   1.00
N136   N     0.07657   0.95111   0.34216   0.00000  Uiso   1.00
N137   N     0.00757   0.68913   0.99089   0.00000  Uiso   1.00
N138   N     0.53548   0.90362   0.07993   0.00000  Uiso   1.00
C139   C     0.24752   0.26784   0.18949   0.00000  Uiso   1.00
C140   C     0.29467   0.21081   0.23305   0.00000  Uiso   1.00
C141   C     0.31081   0.22216   0.29620   0.00000  Uiso   1.00
C142   C     0.35493   0.16305   0.32790   0.00000  Uiso   1.00
C143   C     0.42408   0.08487   0.40017   0.00000  Uiso   1.00
C144   C     0.31370   0.28302   0.13624   0.00000  Uiso   1.00
C145   C     0.34583   0.35508   0.11799   0.00000  Uiso   1.00
C146   C     0.40596   0.35674   0.06819   0.00000  Uiso   1.00
C147   C     0.50461   0.39066   0.99013   0.00000  Uiso   1.00
C148   C     0.16821   0.22390   0.16079   0.00000  Uiso   1.00
C149   C     0.07801   0.24627   0.16317   0.00000  Uiso   1.00
C150   C     0.01565   0.19816   0.13402   0.00000  Uiso   1.00
C151   C     0.88840   0.14030   0.09408   0.00000  Uiso   1.00
C152   C     0.29715   0.14266   0.13349   0.00000  Uiso   1.00
C153   C     0.32163   0.14282   0.20264   0.00000  Uiso   1.00
C154   C     0.36573   0.08367   0.23425   0.00000  Uiso   1.00
C155   C     0.38193   0.09493   0.29744   0.00000  Uiso   1.00
C156   C     0.34066   0.21503   0.10583   0.00000  Uiso   1.00
C157   C     0.40075   0.21658   0.05604   0.00000  Uiso   1.00
C158   C     0.43297   0.28863   0.03772   0.00000  Uiso   1.00
C159   C     0.19517   0.15591   0.13038   0.00000  Uiso   1.00
C160   C     0.13293   0.10777   0.10122   0.00000  Uiso   1.00
C161   C     0.04266   0.13005   0.10355   0.00000  Uiso   1.00
H162   H     0.22653   0.32077   0.21316   0.00000  Uiso   1.00
H163   H     0.28994   0.27480   0.31972   0.00000  Uiso   1.00
H164   H     0.32495   0.40768   0.14153   0.00000  Uiso   1.00
H165   H     0.05718   0.29888   0.18671   0.00000  Uiso   1.00
H166   H     0.37217   0.19385   0.42444   0.00000  Uiso   1.00
H167   H     0.44596   0.47406   0.04871   0.00000  Uiso   1.00
H168   H     0.88130   0.24463   0.14397   0.00000  Uiso   1.00
H169   H     0.31815   0.08972   0.10981   0.00000  Uiso   1.00
H170   H     0.38658   0.03106   0.21070   0.00000  Uiso   1.00
H171   H     0.42159   0.16396   0.03252   0.00000  Uiso   1.00
H172   H     0.15382   0.05516   0.07769   0.00000  Uiso   1.00
H173   H     0.45061   0.99603   0.33596   0.00000  Uiso   1.00
H174   H     0.52440   0.27624   0.96023   0.00000  Uiso   1.00
H175   H     0.95974   0.04681   0.05549   0.00000  Uiso   1.00
O176   O     0.45478   0.06053   0.44843   0.00000  Uiso   1.00
O177   O     0.55158   0.42815   0.95548   0.00000  Uiso   1.00
O178   O     0.81076   0.12715   0.08046   0.00000  Uiso   1.00
N179   N     0.38122   0.15533   0.38977   0.00000  Uiso   1.00
N180   N     0.45022   0.41731   0.03850   0.00000  Uiso   1.00
N181   N     0.92232   0.20283   0.12754   0.00000  Uiso   1.00
N182   N     0.42343   0.04889   0.34216   0.00000  Uiso   1.00
N183   N     0.49243   0.31087   0.99089   0.00000  Uiso   1.00
N184   N     0.96452   0.09638   0.07993   0.00000  Uiso   1.00
C185   C     0.25248   0.26784   0.68949   0.00000  Uiso   1.00
C186   C     0.20533   0.21081   0.73305   0.00000  Uiso   1.00
C187   C     0.18919   0.22216   0.79620   0.00000  Uiso   1.00
C188   C     0.14507   0.16305   0.82790   0.00000  Uiso   1.00
C189   C     0.07592   0.08487   0.90017   0.00000  Uiso   1.00
C190   C     0.18630   0.28302   0.63624   0.00000  Uiso   1.00
C191   C     0.15417   0.35508   0.61799   0.00000  Uiso   1.00
C192   C     0.09404   0.35674   0.56819   0.00000  Uiso   1.00
C193   C     0.99539   0.39066   0.49013   0.00000  Uiso   1.00
C194   C     0.33179   0.22390   0.66079   0.00000  Uiso   1.00
C195   C     0.42199   0.24627   0.66317   0.00000  Uiso   1.00
C196   C     0.48435   0.19816   0.63402   0.00000  Uiso   1.00
C197   C     0.61160   0.14030   0.59408   0.00000  Uiso   1.00
C198   C     0.20285   0.14266   0.63349   0.00000  Uiso   1.00
C199   C     0.17837   0.14282   0.70264   0.00000  Uiso   1.00
C200   C     0.13427   0.08367   0.73425   0.00000  Uiso   1.00
C201   C     0.11807   0.09493   0.79744   0.00000  Uiso   1.00
C202   C     0.15934   0.21503   0.60583   0.00000  Uiso   1.00
C203   C     0.09925   0.21658   0.55604   0.00000  Uiso   1.00
C204   C     0.06703   0.28863   0.53772   0.00000  Uiso   1.00
C205   C     0.30483   0.15591   0.63038   0.00000  Uiso   1.00
C206   C     0.36707   0.10777   0.60122   0.00000  Uiso   1.00
C207   C     0.45734   0.13005   0.60355   0.00000  Uiso   1.00
H208   H     0.27347   0.32077   0.71316   0.00000  Uiso   1.00
H209   H     0.21006   0.27480   0.81972   0.00000  Uiso   1.00
H210   H     0.17505   0.40768   0.64153   0.00000  Uiso   1.00
H211   H     0.44282   0.29888   0.68671   0.00000  Uiso   1.00
H212   H     0.12783   0.19385   0.92444   0.00000  Uiso   1.00
H213   H     0.05404   0.47406   0.54871   0.00000  Uiso   1.00
H214   H     0.61870   0.24463   0.64397   0.00000  Uiso   1.00
H215   H     0.18185   0.08972   0.60981   0.00000  Uiso   1.00
H216   H     0.11342   0.03106   0.71070   0.00000  Uiso   1.00
H217   H     0.07841   0.16396   0.53252   0.00000  Uiso   1.00
H218   H     0.34618   0.05516   0.57769   0.00000  Uiso   1.00
H219   H     0.04939   0.99603   0.83596   0.00000  Uiso   1.00
H220   H     0.97560   0.27624   0.46023   0.00000  Uiso   1.00
H221   H     0.54026   0.04681   0.55549   0.00000  Uiso   1.00
O222   O     0.04522   0.06053   0.94843   0.00000  Uiso   1.00
O223   O     0.94842   0.42815   0.45548   0.00000  Uiso   1.00
O224   O     0.68924   0.12715   0.58046   0.00000  Uiso   1.00
N225   N     0.11878   0.15533   0.88977   0.00000  Uiso   1.00
N226   N     0.04978   0.41731   0.53850   0.00000  Uiso   1.00
N227   N     0.57768   0.20283   0.62754   0.00000  Uiso   1.00
N228   N     0.07657   0.04889   0.84216   0.00000  Uiso   1.00
N229   N     0.00757   0.31087   0.49089   0.00000  Uiso   1.00
N230   N     0.53548   0.09638   0.57993   0.00000  Uiso   1.00
C231   C     0.24752   0.73216   0.68949   0.00000  Uiso   1.00
C232   C     0.29467   0.78919   0.73305   0.00000  Uiso   1.00
C233   C     0.31081   0.77784   0.79620   0.00000  Uiso   1.00
C234   C     0.35493   0.83695   0.82790   0.00000  Uiso   1.00
C235   C     0.42408   0.91513   0.90017   0.00000  Uiso   1.00
C236   C     0.31370   0.71698   0.63624   0.00000  Uiso   1.00
C237   C     0.34583   0.64492   0.61799   0.00000  Uiso   1.00
C238   C     0.40596   0.64326   0.56819   0.00000  Uiso   1.00
C239   C     0.50461   0.60934   0.49013   0.00000  Uiso   1.00
C240   C     0.16821   0.77610   0.66079   0.00000  Uiso   1.00
C241   C     0.07801   0.75373   0.66317   0.00000  Uiso   1.00
C242   C     0.01565   0.80184   0.63402   0.00000  Uiso   1.00
C243   C     0.88840   0.85970   0.59408   0.00000  Uiso   1.00
C244   C     0.29715   0.85734   0.63349   0.00000  Uiso   1.00
C245   C     0.32163   0.85718   0.70264   0.00000  Uiso   1.00
C246   C     0.36573   0.91633   0.73425   0.00000  Uiso   1.00
C247   C     0.38193   0.90507   0.79744   0.00000  Uiso   1.00
C248   C     0.34066   0.78497   0.60583   0.00000  Uiso   1.00
C249   C     0.40075   0.78342   0.55604   0.00000  Uiso   1.00
C250   C     0.43297   0.71137   0.53772   0.00000  Uiso   1.00
C251   C     0.19517   0.84409   0.63038   0.00000  Uiso   1.00
C252   C     0.13293   0.89223   0.60122   0.00000  Uiso   1.00
C253   C     0.04266   0.86995   0.60355   0.00000  Uiso   1.00
H254   H     0.22653   0.67923   0.71316   0.00000  Uiso   1.00
H255   H     0.28994   0.72520   0.81972   0.00000  Uiso   1.00
H256   H     0.32495   0.59232   0.64153   0.00000  Uiso   1.00
H257   H     0.05718   0.70112   0.68671   0.00000  Uiso   1.00
H258   H     0.37217   0.80615   0.92444   0.00000  Uiso   1.00
H259   H     0.44596   0.52594   0.54871   0.00000  Uiso   1.00
H260   H     0.88130   0.75537   0.64397   0.00000  Uiso   1.00
H261   H     0.31815   0.91028   0.60981   0.00000  Uiso   1.00
H262   H     0.38658   0.96894   0.71070   0.00000  Uiso   1.00
H263   H     0.42159   0.83604   0.53252   0.00000  Uiso   1.00
H264   H     0.15382   0.94484   0.57769   0.00000  Uiso   1.00
H265   H     0.45061   0.00397   0.83596   0.00000  Uiso   1.00
H266   H     0.52440   0.72376   0.46023   0.00000  Uiso   1.00
H267   H     0.95974   0.95319   0.55549   0.00000  Uiso   1.00
O268   O     0.45478   0.93947   0.94843   0.00000  Uiso   1.00
O269   O     0.55158   0.57185   0.45548   0.00000  Uiso   1.00
O270   O     0.81076   0.87285   0.58046   0.00000  Uiso   1.00
N271   N     0.38122   0.84467   0.88977   0.00000  Uiso   1.00
N272   N     0.45022   0.58269   0.53850   0.00000  Uiso   1.00
N273   N     0.92232   0.79717   0.62754   0.00000  Uiso   1.00
N274   N     0.42343   0.95111   0.84216   0.00000  Uiso   1.00
N275   N     0.49243   0.68913   0.49089   0.00000  Uiso   1.00
N276   N     0.96452   0.90362   0.57993   0.00000  Uiso   1.00
C277   C     0.74752   0.26784   0.81051   0.00000  Uiso   1.00
C278   C     0.79467   0.21081   0.76695   0.00000  Uiso   1.00
C279   C     0.81081   0.22216   0.70380   0.00000  Uiso   1.00
C280   C     0.85493   0.16305   0.67210   0.00000  Uiso   1.00
C281   C     0.92408   0.08487   0.59983   0.00000  Uiso   1.00
C282   C     0.81370   0.28302   0.86376   0.00000  Uiso   1.00
C283   C     0.84583   0.35508   0.88201   0.00000  Uiso   1.00
C284   C     0.90596   0.35674   0.93181   0.00000  Uiso   1.00
C285   C     0.00461   0.39066   0.00987   0.00000  Uiso   1.00
C286   C     0.66821   0.22390   0.83921   0.00000  Uiso   1.00
C287   C     0.57801   0.24627   0.83683   0.00000  Uiso   1.00
C288   C     0.51565   0.19816   0.86598   0.00000  Uiso   1.00
C289   C     0.38840   0.14030   0.90592   0.00000  Uiso   1.00
C290   C     0.79715   0.14266   0.86651   0.00000  Uiso   1.00
C291   C     0.82163   0.14282   0.79736   0.00000  Uiso   1.00
C292   C     0.86573   0.08367   0.76575   0.00000  Uiso   1.00
C293   C     0.88193   0.09493   0.70256   0.00000  Uiso   1.00
C294   C     0.84066   0.21503   0.89417   0.00000  Uiso   1.00
C295   C     0.90075   0.21658   0.94396   0.00000  Uiso   1.00
C296   C     0.93297   0.28863   0.96228   0.00000  Uiso   1.00
C297   C     0.69517   0.15591   0.86962   0.00000  Uiso   1.00
C298   C     0.63293   0.10777   0.89878   0.00000  Uiso   1.00
C299   C     0.54266   0.13005   0.89645   0.00000  Uiso   1.00
H300   H     0.72653   0.32077   0.78684   0.00000  Uiso   1.00
H301   H     0.78994   0.27480   0.68028   0.00000  Uiso   1.00
H302   H     0.82495   0.40768   0.85847   0.00000  Uiso   1.00
H303   H     0.55718   0.29888   0.81329   0.00000  Uiso   1.00
H304   H     0.87217   0.19385   0.57556   0.00000  Uiso   1.00
H305   H     0.94596   0.47406   0.95129   0.00000  Uiso   1.00
H306   H     0.38130   0.24463   0.85603   0.00000  Uiso   1.00
H307   H     0.81815   0.08972   0.89019   0.00000  Uiso   1.00
H308   H     0.88658   0.03106   0.78930   0.00000  Uiso   1.00
H309   H     0.92159   0.16396   0.96748   0.00000  Uiso   1.00
H310   H     0.65382   0.05516   0.92231   0.00000  Uiso   1.00
H311   H     0.95061   0.99603   0.66404   0.00000  Uiso   1.00
H312   H     0.02440   0.27624   0.03977   0.00000  Uiso   1.00
H313   H     0.45974   0.04681   0.94451   0.00000  Uiso   1.00
O314   O     0.95478   0.06053   0.55157   0.00000  Uiso   1.00
O315   O     0.05158   0.42815   0.04452   0.00000  Uiso   1.00
O316   O     0.31076   0.12715   0.91954   0.00000  Uiso   1.00
N317   N     0.88122   0.15533   0.61023   0.00000  Uiso   1.00
N318   N     0.95022   0.41731   0.96150   0.00000  Uiso   1.00
N319   N     0.42232   0.20283   0.87246   0.00000  Uiso   1.00
N320   N     0.92343   0.04889   0.65784   0.00000  Uiso   1.00
N321   N     0.99243   0.31087   0.00911   0.00000  Uiso   1.00
N322   N     0.46452   0.09638   0.92007   0.00000  Uiso   1.00
C323   C     0.75248   0.73216   0.81051   0.00000  Uiso   1.00
C324   C     0.70533   0.78919   0.76695   0.00000  Uiso   1.00
C325   C     0.68919   0.77784   0.70380   0.00000  Uiso   1.00
C326   C     0.64507   0.83695   0.67210   0.00000  Uiso   1.00
C327   C     0.57592   0.91513   0.59983   0.00000  Uiso   1.00
C328   C     0.68630   0.71698   0.86376   0.00000  Uiso   1.00
C329   C     0.65417   0.64492   0.88201   0.00000  Uiso   1.00
C330   C     0.59404   0.64326   0.93181   0.00000  Uiso   1.00
C331   C     0.49539   0.60934   0.00987   0.00000  Uiso   1.00
C332   C     0.83179   0.77610   0.83921   0.00000  Uiso   1.00
C333   C     0.92199   0.75373   0.83683   0.00000  Uiso   1.00
C334   C     0.98435   0.80184   0.86598   0.00000  Uiso   1.00
C335   C     0.11160   0.85970   0.90592   0.00000  Uiso   1.00
C336   C     0.70285   0.85734   0.86651   0.00000  Uiso   1.00
C337   C     0.67837   0.85718   0.79736   0.00000  Uiso   1.00
C338   C     0.63427   0.91633   0.76575   0.00000  Uiso   1.00
C339   C     0.61807   0.90507   0.70256   0.00000  Uiso   1.00
C340   C     0.65934   0.78497   0.89417   0.00000  Uiso   1.00
C341   C     0.59925   0.78342   0.94396   0.00000  Uiso   1.00
C342   C     0.56703   0.71137   0.96228   0.00000  Uiso   1.00
C343   C     0.80483   0.84409   0.86962   0.00000  Uiso   1.00
C344   C     0.86707   0.89223   0.89878   0.00000  Uiso   1.00
C345   C     0.95734   0.86995   0.89645   0.00000  Uiso   1.00
H346   H     0.77347   0.67923   0.78684   0.00000  Uiso   1.00
H347   H     0.71006   0.72520   0.68028   0.00000  Uiso   1.00
H348   H     0.67505   0.59232   0.85847   0.00000  Uiso   1.00
H349   H     0.94282   0.70112   0.81329   0.00000  Uiso   1.00
H350   H     0.62783   0.80615   0.57556   0.00000  Uiso   1.00
H351   H     0.55404   0.52594   0.95129   0.00000  Uiso   1.00
H352   H     0.11870   0.75537   0.85603   0.00000  Uiso   1.00
H353   H     0.68185   0.91028   0.89019   0.00000  Uiso   1.00
H354   H     0.61342   0.96894   0.78930   0.00000  Uiso   1.00
H355   H     0.57841   0.83604   0.96748   0.00000  Uiso   1.00
H356   H     0.84618   0.94484   0.92231   0.00000  Uiso   1.00
H357   H     0.54939   0.00397   0.66404   0.00000  Uiso   1.00
H358   H     0.47560   0.72376   0.03977   0.00000  Uiso   1.00
H359   H     0.04026   0.95319   0.94451   0.00000  Uiso   1.00
O360   O     0.54522   0.93947   0.55157   0.00000  Uiso   1.00
O361   O     0.44842   0.57185   0.04452   0.00000  Uiso   1.00
O362   O     0.18924   0.87285   0.91954   0.00000  Uiso   1.00
N363   N     0.61878   0.84467   0.61023   0.00000  Uiso   1.00
N364   N     0.54978   0.58269   0.96150   0.00000  Uiso   1.00
N365   N     0.07768   0.79717   0.87246   0.00000  Uiso   1.00
N366   N     0.57657   0.95111   0.65784   0.00000  Uiso   1.00
N367   N     0.50757   0.68913   0.00911   0.00000  Uiso   1.00
N368   N     0.03548   0.90362   0.92007   0.00000  Uiso   1.00
