data_job_06258
_audit_creation_date              2018-12-19
_audit_creation_method            'Materials Studio'
_symmetry_space_group_name_H-M    'P1'
_symmetry_Int_Tables_number       1
_symmetry_cell_setting            triclinic
loop_
_symmetry_equiv_pos_as_xyz
  x,y,z
_cell_length_a                    11.2279
_cell_length_b                    22.0798
_cell_length_c                    22.1498
_cell_angle_alpha                 62.5150
_cell_angle_beta                  81.5846
_cell_angle_gamma                 98.3842
loop_
_atom_site_label
_atom_site_type_symbol
_atom_site_fract_x
_atom_site_fract_y
_atom_site_fract_z
_atom_site_U_iso_or_equiv
_atom_site_adp_type
_atom_site_occupancy
C1     C     0.58263   0.39135   0.99602   0.00000  Uiso   1.00
C2     C     0.55704   0.31474   0.01294   0.00000  Uiso   1.00
C3     C     0.44196   0.27261   0.02497   0.00000  Uiso   1.00
C4     C     0.43795   0.20394   0.03965   0.00000  Uiso   1.00
C5     C     0.38189   0.08887   0.06558   0.00000  Uiso   1.00
C6     C     0.64509   0.39446   0.05155   0.00000  Uiso   1.00
C7     C     0.60404   0.41936   0.09602   0.00000  Uiso   1.00
C8     C     0.67415   0.41780   0.14318   0.00000  Uiso   1.00
C9     C     0.75482   0.42654   0.22900   0.00000  Uiso   1.00
C10    C     0.68113   0.43260   0.92678   0.00000  Uiso   1.00
C11    C     0.67041   0.48959   0.86635   0.00000  Uiso   1.00
C12    C     0.77090   0.52016   0.80847   0.00000  Uiso   1.00
C13    C     0.90754   0.58812   0.70058   0.00000  Uiso   1.00
C14    C     0.78016   0.34431   0.00069   0.00000  Uiso   1.00
C15    C     0.66433   0.28919   0.01548   0.00000  Uiso   1.00
C16    C     0.66050   0.22057   0.03014   0.00000  Uiso   1.00
C17    C     0.54543   0.17834   0.04219   0.00000  Uiso   1.00
C18    C     0.75237   0.36891   0.05409   0.00000  Uiso   1.00
C19    C     0.82257   0.36732   0.10119   0.00000  Uiso   1.00
C20    C     0.78164   0.39221   0.14573   0.00000  Uiso   1.00
C21    C     0.78842   0.40705   0.92932   0.00000  Uiso   1.00
C22    C     0.88895   0.43754   0.87153   0.00000  Uiso   1.00
C23    C     0.87838   0.49456   0.81102   0.00000  Uiso   1.00
H24    H     0.49911   0.41124   0.99405   0.00000  Uiso   1.00
H25    H     0.35895   0.29240   0.02301   0.00000  Uiso   1.00
H26    H     0.52101   0.43914   0.09404   0.00000  Uiso   1.00
H27    H     0.58737   0.50935   0.86441   0.00000  Uiso   1.00
H28    H     0.25087   0.14937   0.05626   0.00000  Uiso   1.00
H29    H     0.59260   0.45879   0.20602   0.00000  Uiso   1.00
H30    H     0.73254   0.60685   0.72180   0.00000  Uiso   1.00
H31    H     0.86369   0.32442   0.00267   0.00000  Uiso   1.00
H32    H     0.74354   0.20081   0.03210   0.00000  Uiso   1.00
H33    H     0.90560   0.34755   0.10314   0.00000  Uiso   1.00
H34    H     0.97196   0.41776   0.87351   0.00000  Uiso   1.00
H35    H     0.56302   0.07503   0.06365   0.00000  Uiso   1.00
H36    H     0.90475   0.38446   0.21340   0.00000  Uiso   1.00
H37    H     0.04469   0.53251   0.72918   0.00000  Uiso   1.00
O38    O     0.32132   0.03245   0.07918   0.00000  Uiso   1.00
O39    O     0.76967   0.43842   0.27565   0.00000  Uiso   1.00
O40    O     0.95326   0.63266   0.64036   0.00000  Uiso   1.00
N41    N     0.34083   0.14884   0.05395   0.00000  Uiso   1.00
N42    N     0.66032   0.43813   0.19397   0.00000  Uiso   1.00
N43    N     0.79116   0.57656   0.74127   0.00000  Uiso   1.00
N44    N     0.50879   0.10884   0.05792   0.00000  Uiso   1.00
N45    N     0.82828   0.39813   0.19794   0.00000  Uiso   1.00
N46    N     0.95912   0.53656   0.74524   0.00000  Uiso   1.00
C47    C     0.20322   0.61645   0.38372   0.00000  Uiso   1.00
C48    C     0.24768   0.67544   0.30760   0.00000  Uiso   1.00
C49    C     0.17204   0.70616   0.26375   0.00000  Uiso   1.00
C50    C     0.23065   0.75935   0.19589   0.00000  Uiso   1.00
C51    C     0.27996   0.84763   0.08119   0.00000  Uiso   1.00
C52    C     0.26236   0.55714   0.38785   0.00000  Uiso   1.00
C53    C     0.19907   0.48839   0.41148   0.00000  Uiso   1.00
C54    C     0.27005   0.44199   0.41117   0.00000  Uiso   1.00
C55    C     0.34217   0.34659   0.42112   0.00000  Uiso   1.00
C56    C     0.26313   0.64407   0.42654   0.00000  Uiso   1.00
C57    C     0.20049   0.64840   0.48274   0.00000  Uiso   1.00
C58    C     0.27213   0.67517   0.51502   0.00000  Uiso   1.00
C59    C     0.34545   0.71475   0.58505   0.00000  Uiso   1.00
C60    C     0.44182   0.65628   0.34116   0.00000  Uiso   1.00
C61    C     0.37727   0.69707   0.28448   0.00000  Uiso   1.00
C62    C     0.43602   0.75023   0.21666   0.00000  Uiso   1.00
C63    C     0.36048   0.78103   0.17273   0.00000  Uiso   1.00
C64    C     0.39196   0.57877   0.36473   0.00000  Uiso   1.00
C65    C     0.46305   0.53246   0.36439   0.00000  Uiso   1.00
C66    C     0.39988   0.46366   0.38801   0.00000  Uiso   1.00
C67    C     0.39273   0.66570   0.40343   0.00000  Uiso   1.00
C68    C     0.46448   0.69247   0.43564   0.00000  Uiso   1.00
C69    C     0.40196   0.69685   0.49186   0.00000  Uiso   1.00
H70    H     0.10233   0.59961   0.40172   0.00000  Uiso   1.00
H71    H     0.07174   0.68940   0.28166   0.00000  Uiso   1.00
H72    H     0.09878   0.47167   0.42937   0.00000  Uiso   1.00
H73    H     0.10021   0.63165   0.50061   0.00000  Uiso   1.00
H74    H     0.09499   0.79848   0.13835   0.00000  Uiso   1.00
H75    H     0.15200   0.33936   0.44983   0.00000  Uiso   1.00
H76    H     0.15500   0.67673   0.60005   0.00000  Uiso   1.00
H77    H     0.54272   0.67312   0.32316   0.00000  Uiso   1.00
H78    H     0.53631   0.76696   0.19879   0.00000  Uiso   1.00
H79    H     0.56334   0.54922   0.34650   0.00000  Uiso   1.00
H80    H     0.56477   0.70921   0.41774   0.00000  Uiso   1.00
H81    H     0.47205   0.86143   0.07109   0.00000  Uiso   1.00
H82    H     0.52905   0.40231   0.38257   0.00000  Uiso   1.00
H83    H     0.53206   0.73967   0.53279   0.00000  Uiso   1.00
O84    O     0.27136   0.89034   0.02432   0.00000  Uiso   1.00
O85    O     0.34614   0.28799   0.43298   0.00000  Uiso   1.00
O86    O     0.35009   0.73061   0.63006   0.00000  Uiso   1.00
N87    N     0.18461   0.80043   0.13959   0.00000  Uiso   1.00
N88    N     0.23791   0.37118   0.43080   0.00000  Uiso   1.00
N89    N     0.24072   0.68657   0.57126   0.00000  Uiso   1.00
N90    N     0.38751   0.83430   0.10340   0.00000  Uiso   1.00
N91    N     0.44080   0.40505   0.39460   0.00000  Uiso   1.00
N92    N     0.44361   0.72044   0.53506   0.00000  Uiso   1.00
C93    C     0.56411   0.99990   0.61269   0.00000  Uiso   1.00
C94    C     0.55430   0.01743   0.67198   0.00000  Uiso   1.00
C95    C     0.45128   0.03174   0.70094   0.00000  Uiso   1.00
C96    C     0.46080   0.04659   0.75475   0.00000  Uiso   1.00
C97    C     0.42906   0.07377   0.84314   0.00000  Uiso   1.00
C98    C     0.67676   0.05379   0.55532   0.00000  Uiso   1.00
C99    C     0.67670   0.09866   0.48619   0.00000  Uiso   1.00
C100   C     0.78931   0.14411   0.44181   0.00000  Uiso   1.00
C101   C     0.94771   0.22769   0.34907   0.00000  Uiso   1.00
C102   C     0.59839   0.92912   0.64098   0.00000  Uiso   1.00
C103   C     0.53246   0.86918   0.64386   0.00000  Uiso   1.00
C104   C     0.57911   0.80968   0.67158   0.00000  Uiso   1.00
C105   C     0.61583   0.69970   0.71184   0.00000  Uiso   1.00
C106   C     0.76420   0.00081   0.65677   0.00000  Uiso   1.00
C107   C     0.66298   0.01793   0.69591   0.00000  Uiso   1.00
C108   C     0.67266   0.03275   0.74970   0.00000  Uiso   1.00
C109   C     0.56967   0.04709   0.77874   0.00000  Uiso   1.00
C110   C     0.78544   0.05428   0.57925   0.00000  Uiso   1.00
C111   C     0.89808   0.09967   0.53496   0.00000  Uiso   1.00
C112   C     0.89819   0.14461   0.46579   0.00000  Uiso   1.00
C113   C     0.70707   0.92962   0.66492   0.00000  Uiso   1.00
C114   C     0.75384   0.87019   0.69263   0.00000  Uiso   1.00
C115   C     0.68799   0.81017   0.69556   0.00000  Uiso   1.00
H116   H     0.47950   0.99952   0.59405   0.00000  Uiso   1.00
H117   H     0.36719   0.03136   0.68239   0.00000  Uiso   1.00
H118   H     0.59258   0.09826   0.46768   0.00000  Uiso   1.00
H119   H     0.44836   0.86882   0.62533   0.00000  Uiso   1.00
H120   H     0.29063   0.06691   0.79088   0.00000  Uiso   1.00
H121   H     0.76588   0.20796   0.33814   0.00000  Uiso   1.00
H122   H     0.46177   0.72413   0.67057   0.00000  Uiso   1.00
H123   H     0.84882   0.00120   0.67540   0.00000  Uiso   1.00
H124   H     0.75677   0.03313   0.76822   0.00000  Uiso   1.00
H125   H     0.98216   0.10004   0.55350   0.00000  Uiso   1.00
H126   H     0.83794   0.87059   0.71115   0.00000  Uiso   1.00
H127   H     0.60683   0.06835   0.86053   0.00000  Uiso   1.00
H128   H     0.08208   0.20940   0.40779   0.00000  Uiso   1.00
H129   H     0.77797   0.72557   0.74023   0.00000  Uiso   1.00
O130   O     0.38153   0.08863   0.88528   0.00000  Uiso   1.00
O131   O     0.00504   0.27366   0.29130   0.00000  Uiso   1.00
O132   O     0.60605   0.63890   0.72745   0.00000  Uiso   1.00
N133   N     0.37767   0.06285   0.79454   0.00000  Uiso   1.00
N134   N     0.82200   0.19473   0.37126   0.00000  Uiso   1.00
N135   N     0.53769   0.74240   0.68204   0.00000  Uiso   1.00
N136   N     0.54781   0.06363   0.83202   0.00000  Uiso   1.00
N137   N     0.99214   0.19550   0.40875   0.00000  Uiso   1.00
N138   N     0.70784   0.74317   0.71953   0.00000  Uiso   1.00
C139   C     0.41737   0.60865   0.00398   0.00000  Uiso   1.00
C140   C     0.44296   0.68526   0.98706   0.00000  Uiso   1.00
C141   C     0.55804   0.72739   0.97503   0.00000  Uiso   1.00
C142   C     0.56205   0.79606   0.96035   0.00000  Uiso   1.00
C143   C     0.61811   0.91113   0.93442   0.00000  Uiso   1.00
C144   C     0.35491   0.60554   0.94845   0.00000  Uiso   1.00
C145   C     0.39596   0.58064   0.90398   0.00000  Uiso   1.00
C146   C     0.32584   0.58220   0.85682   0.00000  Uiso   1.00
C147   C     0.24517   0.57346   0.77100   0.00000  Uiso   1.00
C148   C     0.31887   0.56740   0.07322   0.00000  Uiso   1.00
C149   C     0.32959   0.51041   0.13365   0.00000  Uiso   1.00
C150   C     0.22910   0.47984   0.19152   0.00000  Uiso   1.00
C151   C     0.09246   0.41188   0.29942   0.00000  Uiso   1.00
C152   C     0.21984   0.65569   0.99931   0.00000  Uiso   1.00
C153   C     0.33567   0.71081   0.98452   0.00000  Uiso   1.00
C154   C     0.33950   0.77943   0.96986   0.00000  Uiso   1.00
C155   C     0.45457   0.82166   0.95781   0.00000  Uiso   1.00
C156   C     0.24763   0.63109   0.94591   0.00000  Uiso   1.00
C157   C     0.17743   0.63268   0.89881   0.00000  Uiso   1.00
C158   C     0.21836   0.60779   0.85427   0.00000  Uiso   1.00
C159   C     0.21158   0.59295   0.07068   0.00000  Uiso   1.00
C160   C     0.11105   0.56246   0.12847   0.00000  Uiso   1.00
C161   C     0.12162   0.50544   0.18898   0.00000  Uiso   1.00
H162   H     0.50089   0.58876   0.00595   0.00000  Uiso   1.00
H163   H     0.64105   0.70760   0.97699   0.00000  Uiso   1.00
H164   H     0.47899   0.56086   0.90596   0.00000  Uiso   1.00
H165   H     0.41263   0.49065   0.13559   0.00000  Uiso   1.00
H166   H     0.74913   0.85063   0.94374   0.00000  Uiso   1.00
H167   H     0.40740   0.54121   0.79398   0.00000  Uiso   1.00
H168   H     0.26746   0.39315   0.27820   0.00000  Uiso   1.00
H169   H     0.13631   0.67558   0.99733   0.00000  Uiso   1.00
H170   H     0.25646   0.79919   0.96790   0.00000  Uiso   1.00
H171   H     0.09440   0.65245   0.89686   0.00000  Uiso   1.00
H172   H     0.02804   0.58224   0.12649   0.00000  Uiso   1.00
H173   H     0.43698   0.92497   0.93635   0.00000  Uiso   1.00
H174   H     0.09525   0.61554   0.78660   0.00000  Uiso   1.00
H175   H     0.95531   0.46749   0.27082   0.00000  Uiso   1.00
O176   O     0.67868   0.96755   0.92081   0.00000  Uiso   1.00
O177   O     0.23033   0.56158   0.72435   0.00000  Uiso   1.00
O178   O     0.04674   0.36734   0.35964   0.00000  Uiso   1.00
N179   N     0.65917   0.85116   0.94605   0.00000  Uiso   1.00
N180   N     0.33968   0.56187   0.80603   0.00000  Uiso   1.00
N181   N     0.20884   0.42344   0.25873   0.00000  Uiso   1.00
N182   N     0.49121   0.89116   0.94208   0.00000  Uiso   1.00
N183   N     0.17172   0.60187   0.80206   0.00000  Uiso   1.00
N184   N     0.04088   0.46344   0.25476   0.00000  Uiso   1.00
C185   C     0.79678   0.38355   0.61628   0.00000  Uiso   1.00
C186   C     0.75232   0.32456   0.69240   0.00000  Uiso   1.00
C187   C     0.82796   0.29384   0.73625   0.00000  Uiso   1.00
C188   C     0.76935   0.24065   0.80411   0.00000  Uiso   1.00
C189   C     0.72004   0.15237   0.91881   0.00000  Uiso   1.00
C190   C     0.73764   0.44286   0.61215   0.00000  Uiso   1.00
C191   C     0.80093   0.51161   0.58852   0.00000  Uiso   1.00
C192   C     0.72995   0.55801   0.58883   0.00000  Uiso   1.00
C193   C     0.65783   0.65341   0.57888   0.00000  Uiso   1.00
C194   C     0.73687   0.35593   0.57346   0.00000  Uiso   1.00
C195   C     0.79951   0.35160   0.51726   0.00000  Uiso   1.00
C196   C     0.72787   0.32482   0.48498   0.00000  Uiso   1.00
C197   C     0.65455   0.28525   0.41495   0.00000  Uiso   1.00
C198   C     0.55818   0.34372   0.65884   0.00000  Uiso   1.00
C199   C     0.62272   0.30293   0.71552   0.00000  Uiso   1.00
C200   C     0.56398   0.24977   0.78334   0.00000  Uiso   1.00
C201   C     0.63952   0.21897   0.82727   0.00000  Uiso   1.00
C202   C     0.60804   0.42123   0.63527   0.00000  Uiso   1.00
C203   C     0.53695   0.46754   0.63561   0.00000  Uiso   1.00
C204   C     0.60012   0.53634   0.61199   0.00000  Uiso   1.00
C205   C     0.60727   0.33430   0.59657   0.00000  Uiso   1.00
C206   C     0.53552   0.30753   0.56436   0.00000  Uiso   1.00
C207   C     0.59804   0.30315   0.50814   0.00000  Uiso   1.00
H208   H     0.89767   0.40039   0.59828   0.00000  Uiso   1.00
H209   H     0.92826   0.31060   0.71834   0.00000  Uiso   1.00
H210   H     0.90122   0.52833   0.57063   0.00000  Uiso   1.00
H211   H     0.89979   0.36835   0.49939   0.00000  Uiso   1.00
H212   H     0.90501   0.20152   0.86165   0.00000  Uiso   1.00
H213   H     0.84800   0.66064   0.55017   0.00000  Uiso   1.00
H214   H     0.84500   0.32327   0.39995   0.00000  Uiso   1.00
H215   H     0.45728   0.32688   0.67684   0.00000  Uiso   1.00
H216   H     0.46369   0.23304   0.80121   0.00000  Uiso   1.00
H217   H     0.43666   0.45078   0.65350   0.00000  Uiso   1.00
H218   H     0.43523   0.29079   0.58226   0.00000  Uiso   1.00
H219   H     0.52795   0.13857   0.92891   0.00000  Uiso   1.00
H220   H     0.47095   0.59769   0.61743   0.00000  Uiso   1.00
H221   H     0.46794   0.26033   0.46721   0.00000  Uiso   1.00
O222   O     0.72864   0.10966   0.97568   0.00000  Uiso   1.00
O223   O     0.65386   0.71201   0.56702   0.00000  Uiso   1.00
O224   O     0.64991   0.26939   0.36994   0.00000  Uiso   1.00
N225   N     0.81538   0.19957   0.86040   0.00000  Uiso   1.00
N226   N     0.76209   0.62882   0.56920   0.00000  Uiso   1.00
N227   N     0.75928   0.31343   0.42874   0.00000  Uiso   1.00
N228   N     0.61249   0.16570   0.89660   0.00000  Uiso   1.00
N229   N     0.55920   0.59495   0.60540   0.00000  Uiso   1.00
N230   N     0.55639   0.27956   0.46494   0.00000  Uiso   1.00
C231   C     0.43589   0.00010   0.38731   0.00000  Uiso   1.00
C232   C     0.44570   0.98257   0.32802   0.00000  Uiso   1.00
C233   C     0.54872   0.96826   0.29906   0.00000  Uiso   1.00
C234   C     0.53920   0.95341   0.24525   0.00000  Uiso   1.00
C235   C     0.57094   0.92623   0.15686   0.00000  Uiso   1.00
C236   C     0.32324   0.94621   0.44468   0.00000  Uiso   1.00
C237   C     0.32330   0.90134   0.51381   0.00000  Uiso   1.00
C238   C     0.21069   0.85589   0.55819   0.00000  Uiso   1.00
C239   C     0.05229   0.77231   0.65093   0.00000  Uiso   1.00
C240   C     0.40161   0.07088   0.35902   0.00000  Uiso   1.00
C241   C     0.46754   0.13082   0.35614   0.00000  Uiso   1.00
C242   C     0.42089   0.19033   0.32842   0.00000  Uiso   1.00
C243   C     0.38417   0.30030   0.28816   0.00000  Uiso   1.00
C244   C     0.23580   0.99919   0.34323   0.00000  Uiso   1.00
C245   C     0.33702   0.98207   0.30409   0.00000  Uiso   1.00
C246   C     0.32734   0.96725   0.25030   0.00000  Uiso   1.00
C247   C     0.43033   0.95291   0.22126   0.00000  Uiso   1.00
C248   C     0.21456   0.94572   0.42075   0.00000  Uiso   1.00
C249   C     0.10192   0.90033   0.46504   0.00000  Uiso   1.00
C250   C     0.10181   0.85539   0.53421   0.00000  Uiso   1.00
C251   C     0.29293   0.07038   0.33508   0.00000  Uiso   1.00
C252   C     0.24616   0.12981   0.30737   0.00000  Uiso   1.00
C253   C     0.31201   0.18983   0.30444   0.00000  Uiso   1.00
H254   H     0.52050   0.00048   0.40595   0.00000  Uiso   1.00
H255   H     0.63281   0.96864   0.31761   0.00000  Uiso   1.00
H256   H     0.40742   0.90174   0.53232   0.00000  Uiso   1.00
H257   H     0.55163   0.13118   0.37467   0.00000  Uiso   1.00
H258   H     0.70937   0.93309   0.20912   0.00000  Uiso   1.00
H259   H     0.23412   0.79205   0.66186   0.00000  Uiso   1.00
H260   H     0.53823   0.27587   0.32943   0.00000  Uiso   1.00
H261   H     0.15118   0.99880   0.32460   0.00000  Uiso   1.00
H262   H     0.24323   0.96687   0.23178   0.00000  Uiso   1.00
H263   H     0.01784   0.89996   0.44650   0.00000  Uiso   1.00
H264   H     0.16206   0.12941   0.28885   0.00000  Uiso   1.00
H265   H     0.39317   0.93165   0.13947   0.00000  Uiso   1.00
H266   H     0.91792   0.79060   0.59221   0.00000  Uiso   1.00
H267   H     0.22203   0.27443   0.25977   0.00000  Uiso   1.00
O268   O     0.61847   0.91137   0.11472   0.00000  Uiso   1.00
O269   O     0.99495   0.72633   0.70870   0.00000  Uiso   1.00
O270   O     0.39395   0.36110   0.27255   0.00000  Uiso   1.00
N271   N     0.62233   0.93715   0.20546   0.00000  Uiso   1.00
N272   N     0.17800   0.80527   0.62874   0.00000  Uiso   1.00
N273   N     0.46230   0.25760   0.31796   0.00000  Uiso   1.00
N274   N     0.45219   0.93637   0.16797   0.00000  Uiso   1.00
N275   N     0.00786   0.80450   0.59125   0.00000  Uiso   1.00
N276   N     0.29216   0.25683   0.28047   0.00000  Uiso   1.00
