data_job_01306
_audit_creation_date              2018-12-19
_audit_creation_method            'Materials Studio'
_symmetry_space_group_name_H-M    'P1'
_symmetry_Int_Tables_number       1
_symmetry_cell_setting            triclinic
loop_
_symmetry_equiv_pos_as_xyz
  x,y,z
_cell_length_a                    10.0649
_cell_length_b                    7.7264
_cell_length_c                    32.8473
_cell_angle_alpha                 90.0000
_cell_angle_beta                  116.3315
_cell_angle_gamma                 90.0000
loop_
_atom_site_label
_atom_site_type_symbol
_atom_site_fract_x
_atom_site_fract_y
_atom_site_fract_z
_atom_site_U_iso_or_equiv
_atom_site_adp_type
_atom_site_occupancy
C1     C     0.75877   0.15155   0.15856   0.00000  Uiso   1.00
C2     C     0.72107   0.03815   0.19000   0.00000  Uiso   1.00
C3     C     0.75670   0.07387   0.23507   0.00000  Uiso   1.00
C4     C     0.71237   0.95382   0.25804   0.00000  Uiso   1.00
C5     C     0.66564   0.80055   0.31011   0.00000  Uiso   1.00
C6     C     0.84602   0.03678   0.14123   0.00000  Uiso   1.00
C7     C     0.98668   0.07137   0.14529   0.00000  Uiso   1.00
C8     C     0.04752   0.95016   0.12720   0.00000  Uiso   1.00
C9     C     0.19473   0.79484   0.10352   0.00000  Uiso   1.00
C10    C     0.61186   0.19008   0.11749   0.00000  Uiso   1.00
C11    C     0.55566   0.35356   0.10159   0.00000  Uiso   1.00
C12    C     0.41936   0.36142   0.06351   0.00000  Uiso   1.00
C13    C     0.20300   0.44411   0.00298   0.00000  Uiso   1.00
C14    C     0.61668   0.87483   0.11920   0.00000  Uiso   1.00
C15    C     0.64390   0.88785   0.16862   0.00000  Uiso   1.00
C16    C     0.59949   0.76771   0.19153   0.00000  Uiso   1.00
C17    C     0.63504   0.80324   0.23663   0.00000  Uiso   1.00
C18    C     0.76885   0.88648   0.11985   0.00000  Uiso   1.00
C19    C     0.82948   0.76521   0.10175   0.00000  Uiso   1.00
C20    C     0.97021   0.79959   0.10578   0.00000  Uiso   1.00
C21    C     0.53468   0.03978   0.09612   0.00000  Uiso   1.00
C22    C     0.39845   0.04739   0.05805   0.00000  Uiso   1.00
C23    C     0.34205   0.21084   0.04210   0.00000  Uiso   1.00
H24    H     0.81886   0.26857   0.17520   0.00000  Uiso   1.00
H25    H     0.81644   0.19020   0.25160   0.00000  Uiso   1.00
H26    H     0.04637   0.18770   0.16183   0.00000  Uiso   1.00
H27    H     0.61541   0.46984   0.11814   0.00000  Uiso   1.00
H28    H     0.77976   0.03699   0.32689   0.00000  Uiso   1.00
H29    H     0.26458   0.03176   0.13758   0.00000  Uiso   1.00
H30    H     0.35581   0.62671   0.04545   0.00000  Uiso   1.00
H31    H     0.55659   0.75781   0.10256   0.00000  Uiso   1.00
H32    H     0.53977   0.65141   0.17498   0.00000  Uiso   1.00
H33    H     0.76972   0.64891   0.08520   0.00000  Uiso   1.00
H34    H     0.33876   0.93105   0.04152   0.00000  Uiso   1.00
H35    H     0.55522   0.59968   0.26469   0.00000  Uiso   1.00
H36    H     0.04005   0.59446   0.07538   0.00000  Uiso   1.00
H37    H     0.13127   0.18940   0.98326   0.00000  Uiso   1.00
O38    O     0.66120   0.75753   0.34474   0.00000  Uiso   1.00
O39    O     0.29726   0.75069   0.09637   0.00000  Uiso   1.00
O40    O     0.10497   0.53124   0.97551   0.00000  Uiso   1.00
N41    N     0.72920   0.94869   0.30231   0.00000  Uiso   1.00
N42    N     0.18249   0.94378   0.12532   0.00000  Uiso   1.00
N43    N     0.33288   0.50001   0.03919   0.00000  Uiso   1.00
N44    N     0.60837   0.71338   0.26884   0.00000  Uiso   1.00
N45    N     0.06166   0.70847   0.09186   0.00000  Uiso   1.00
N46    N     0.21206   0.26471   0.00572   0.00000  Uiso   1.00
C47    C     0.24123   0.65155   0.34144   0.00000  Uiso   1.00
C48    C     0.27893   0.53815   0.31000   0.00000  Uiso   1.00
C49    C     0.24330   0.57387   0.26493   0.00000  Uiso   1.00
C50    C     0.28763   0.45382   0.24196   0.00000  Uiso   1.00
C51    C     0.33436   0.30055   0.18989   0.00000  Uiso   1.00
C52    C     0.15398   0.53678   0.35877   0.00000  Uiso   1.00
C53    C     0.01332   0.57137   0.35471   0.00000  Uiso   1.00
C54    C     0.95248   0.45016   0.37280   0.00000  Uiso   1.00
C55    C     0.80527   0.29484   0.39648   0.00000  Uiso   1.00
C56    C     0.38814   0.69008   0.38251   0.00000  Uiso   1.00
C57    C     0.44434   0.85356   0.39841   0.00000  Uiso   1.00
C58    C     0.58064   0.86142   0.43649   0.00000  Uiso   1.00
C59    C     0.79700   0.94411   0.49702   0.00000  Uiso   1.00
C60    C     0.38332   0.37483   0.38080   0.00000  Uiso   1.00
C61    C     0.35610   0.38785   0.33138   0.00000  Uiso   1.00
C62    C     0.40051   0.26771   0.30847   0.00000  Uiso   1.00
C63    C     0.36496   0.30324   0.26337   0.00000  Uiso   1.00
C64    C     0.23115   0.38648   0.38015   0.00000  Uiso   1.00
C65    C     0.17052   0.26521   0.39825   0.00000  Uiso   1.00
C66    C     0.02979   0.29959   0.39422   0.00000  Uiso   1.00
C67    C     0.46532   0.53978   0.40388   0.00000  Uiso   1.00
C68    C     0.60155   0.54739   0.44195   0.00000  Uiso   1.00
C69    C     0.65795   0.71084   0.45790   0.00000  Uiso   1.00
H70    H     0.18114   0.76857   0.32480   0.00000  Uiso   1.00
H71    H     0.18356   0.69020   0.24840   0.00000  Uiso   1.00
H72    H     0.95363   0.68770   0.33817   0.00000  Uiso   1.00
H73    H     0.38459   0.96984   0.38186   0.00000  Uiso   1.00
H74    H     0.22024   0.53699   0.17311   0.00000  Uiso   1.00
H75    H     0.73542   0.53176   0.36242   0.00000  Uiso   1.00
H76    H     0.64419   0.12671   0.45455   0.00000  Uiso   1.00
H77    H     0.44341   0.25781   0.39744   0.00000  Uiso   1.00
H78    H     0.46023   0.15141   0.32502   0.00000  Uiso   1.00
H79    H     0.23028   0.14891   0.41480   0.00000  Uiso   1.00
H80    H     0.66124   0.43105   0.45848   0.00000  Uiso   1.00
H81    H     0.44478   0.09968   0.23531   0.00000  Uiso   1.00
H82    H     0.95995   0.09446   0.42462   0.00000  Uiso   1.00
H83    H     0.86873   0.68940   0.51674   0.00000  Uiso   1.00
O84    O     0.33880   0.25753   0.15526   0.00000  Uiso   1.00
O85    O     0.70274   0.25069   0.40363   0.00000  Uiso   1.00
O86    O     0.89503   0.03124   0.52449   0.00000  Uiso   1.00
N87    N     0.27080   0.44869   0.19769   0.00000  Uiso   1.00
N88    N     0.81751   0.44378   0.37468   0.00000  Uiso   1.00
N89    N     0.66712   0.00001   0.46081   0.00000  Uiso   1.00
N90    N     0.39163   0.21338   0.23116   0.00000  Uiso   1.00
N91    N     0.93834   0.20847   0.40814   0.00000  Uiso   1.00
N92    N     0.78794   0.76471   0.49428   0.00000  Uiso   1.00
C93    C     0.24123   0.84845   0.84144   0.00000  Uiso   1.00
C94    C     0.27893   0.96185   0.81000   0.00000  Uiso   1.00
C95    C     0.24330   0.92613   0.76493   0.00000  Uiso   1.00
C96    C     0.28763   0.04618   0.74196   0.00000  Uiso   1.00
C97    C     0.33436   0.19945   0.68989   0.00000  Uiso   1.00
C98    C     0.15398   0.96322   0.85877   0.00000  Uiso   1.00
C99    C     0.01332   0.92863   0.85471   0.00000  Uiso   1.00
C100   C     0.95248   0.04984   0.87280   0.00000  Uiso   1.00
C101   C     0.80527   0.20516   0.89648   0.00000  Uiso   1.00
C102   C     0.38814   0.80992   0.88251   0.00000  Uiso   1.00
C103   C     0.44434   0.64644   0.89841   0.00000  Uiso   1.00
C104   C     0.58064   0.63858   0.93649   0.00000  Uiso   1.00
C105   C     0.79700   0.55589   0.99702   0.00000  Uiso   1.00
C106   C     0.38332   0.12517   0.88080   0.00000  Uiso   1.00
C107   C     0.35610   0.11215   0.83138   0.00000  Uiso   1.00
C108   C     0.40051   0.23229   0.80847   0.00000  Uiso   1.00
C109   C     0.36496   0.19676   0.76337   0.00000  Uiso   1.00
C110   C     0.23115   0.11352   0.88015   0.00000  Uiso   1.00
C111   C     0.17052   0.23479   0.89825   0.00000  Uiso   1.00
C112   C     0.02979   0.20041   0.89422   0.00000  Uiso   1.00
C113   C     0.46532   0.96022   0.90388   0.00000  Uiso   1.00
C114   C     0.60155   0.95261   0.94195   0.00000  Uiso   1.00
C115   C     0.65795   0.78916   0.95790   0.00000  Uiso   1.00
H116   H     0.18114   0.73143   0.82480   0.00000  Uiso   1.00
H117   H     0.18356   0.80980   0.74840   0.00000  Uiso   1.00
H118   H     0.95363   0.81230   0.83817   0.00000  Uiso   1.00
H119   H     0.38459   0.53016   0.88186   0.00000  Uiso   1.00
H120   H     0.22024   0.96301   0.67311   0.00000  Uiso   1.00
H121   H     0.73542   0.96824   0.86242   0.00000  Uiso   1.00
H122   H     0.64419   0.37329   0.95455   0.00000  Uiso   1.00
H123   H     0.44341   0.24219   0.89744   0.00000  Uiso   1.00
H124   H     0.46023   0.34859   0.82502   0.00000  Uiso   1.00
H125   H     0.23028   0.35109   0.91480   0.00000  Uiso   1.00
H126   H     0.66124   0.06895   0.95848   0.00000  Uiso   1.00
H127   H     0.44478   0.40032   0.73531   0.00000  Uiso   1.00
H128   H     0.95995   0.40554   0.92462   0.00000  Uiso   1.00
H129   H     0.86873   0.81060   0.01674   0.00000  Uiso   1.00
O130   O     0.33880   0.24247   0.65526   0.00000  Uiso   1.00
O131   O     0.70274   0.24931   0.90363   0.00000  Uiso   1.00
O132   O     0.89503   0.46876   0.02449   0.00000  Uiso   1.00
N133   N     0.27080   0.05131   0.69769   0.00000  Uiso   1.00
N134   N     0.81751   0.05622   0.87468   0.00000  Uiso   1.00
N135   N     0.66712   0.49999   0.96081   0.00000  Uiso   1.00
N136   N     0.39163   0.28662   0.73116   0.00000  Uiso   1.00
N137   N     0.93834   0.29153   0.90814   0.00000  Uiso   1.00
N138   N     0.78794   0.73529   0.99428   0.00000  Uiso   1.00
C139   C     0.75877   0.34845   0.65856   0.00000  Uiso   1.00
C140   C     0.72107   0.46185   0.69000   0.00000  Uiso   1.00
C141   C     0.75670   0.42613   0.73507   0.00000  Uiso   1.00
C142   C     0.71237   0.54618   0.75804   0.00000  Uiso   1.00
C143   C     0.66564   0.69945   0.81011   0.00000  Uiso   1.00
C144   C     0.84602   0.46322   0.64123   0.00000  Uiso   1.00
C145   C     0.98668   0.42863   0.64529   0.00000  Uiso   1.00
C146   C     0.04752   0.54984   0.62720   0.00000  Uiso   1.00
C147   C     0.19473   0.70516   0.60352   0.00000  Uiso   1.00
C148   C     0.61186   0.30992   0.61749   0.00000  Uiso   1.00
C149   C     0.55566   0.14644   0.60159   0.00000  Uiso   1.00
C150   C     0.41936   0.13858   0.56351   0.00000  Uiso   1.00
C151   C     0.20300   0.05589   0.50298   0.00000  Uiso   1.00
C152   C     0.61668   0.62517   0.61920   0.00000  Uiso   1.00
C153   C     0.64390   0.61215   0.66862   0.00000  Uiso   1.00
C154   C     0.59949   0.73229   0.69153   0.00000  Uiso   1.00
C155   C     0.63504   0.69676   0.73663   0.00000  Uiso   1.00
C156   C     0.76885   0.61352   0.61985   0.00000  Uiso   1.00
C157   C     0.82948   0.73479   0.60175   0.00000  Uiso   1.00
C158   C     0.97021   0.70041   0.60578   0.00000  Uiso   1.00
C159   C     0.53468   0.46022   0.59612   0.00000  Uiso   1.00
C160   C     0.39845   0.45261   0.55805   0.00000  Uiso   1.00
C161   C     0.34205   0.28916   0.54210   0.00000  Uiso   1.00
H162   H     0.81886   0.23143   0.67520   0.00000  Uiso   1.00
H163   H     0.81644   0.30980   0.75160   0.00000  Uiso   1.00
H164   H     0.04637   0.31230   0.66183   0.00000  Uiso   1.00
H165   H     0.61541   0.03016   0.61814   0.00000  Uiso   1.00
H166   H     0.77976   0.46301   0.82689   0.00000  Uiso   1.00
H167   H     0.26458   0.46824   0.63758   0.00000  Uiso   1.00
H168   H     0.35581   0.87329   0.54545   0.00000  Uiso   1.00
H169   H     0.55659   0.74219   0.60256   0.00000  Uiso   1.00
H170   H     0.53977   0.84859   0.67498   0.00000  Uiso   1.00
H171   H     0.76972   0.85109   0.58520   0.00000  Uiso   1.00
H172   H     0.33876   0.56895   0.54152   0.00000  Uiso   1.00
H173   H     0.55522   0.90032   0.76469   0.00000  Uiso   1.00
H174   H     0.04005   0.90554   0.57538   0.00000  Uiso   1.00
H175   H     0.13127   0.31060   0.48326   0.00000  Uiso   1.00
O176   O     0.66120   0.74247   0.84474   0.00000  Uiso   1.00
O177   O     0.29726   0.74931   0.59637   0.00000  Uiso   1.00
O178   O     0.10497   0.96876   0.47551   0.00000  Uiso   1.00
N179   N     0.72920   0.55131   0.80231   0.00000  Uiso   1.00
N180   N     0.18249   0.55622   0.62532   0.00000  Uiso   1.00
N181   N     0.33288   0.99999   0.53919   0.00000  Uiso   1.00
N182   N     0.60837   0.78662   0.76884   0.00000  Uiso   1.00
N183   N     0.06166   0.79153   0.59186   0.00000  Uiso   1.00
N184   N     0.21206   0.23529   0.50572   0.00000  Uiso   1.00
