data_job_04755
_audit_creation_date              2018-12-19
_audit_creation_method            'Materials Studio'
_symmetry_space_group_name_H-M    'P1'
_symmetry_Int_Tables_number       1
_symmetry_cell_setting            triclinic
loop_
_symmetry_equiv_pos_as_xyz
  x,y,z
_cell_length_a                    9.9604
_cell_length_b                    12.4875
_cell_length_c                    19.6604
_cell_angle_alpha                 90.0000
_cell_angle_beta                  90.0000
_cell_angle_gamma                 90.0000
loop_
_atom_site_label
_atom_site_type_symbol
_atom_site_fract_x
_atom_site_fract_y
_atom_site_fract_z
_atom_site_U_iso_or_equiv
_atom_site_adp_type
_atom_site_occupancy
C1     C     0.88521   0.00494   0.19677   0.00000  Uiso   1.00
C2     C     0.80034   0.90370   0.20248   0.00000  Uiso   1.00
C3     C     0.77892   0.84508   0.26146   0.00000  Uiso   1.00
C4     C     0.69813   0.75487   0.25610   0.00000  Uiso   1.00
C5     C     0.57511   0.60227   0.27441   0.00000  Uiso   1.00
C6     C     0.99005   0.98208   0.14215   0.00000  Uiso   1.00
C7     C     0.12813   0.98937   0.15039   0.00000  Uiso   1.00
C8     C     0.20703   0.96515   0.09425   0.00000  Uiso   1.00
C9     C     0.37854   0.93430   0.01887   0.00000  Uiso   1.00
C10    C     0.79303   0.09069   0.16730   0.00000  Uiso   1.00
C11    C     0.76548   0.18932   0.19669   0.00000  Uiso   1.00
C12    C     0.67853   0.25655   0.16171   0.00000  Uiso   1.00
C13    C     0.54413   0.39433   0.12540   0.00000  Uiso   1.00
C14    C     0.77982   0.94898   0.08239   0.00000  Uiso   1.00
C15    C     0.74310   0.87331   0.14035   0.00000  Uiso   1.00
C16    C     0.66232   0.78317   0.13490   0.00000  Uiso   1.00
C17    C     0.64078   0.72442   0.19386   0.00000  Uiso   1.00
C18    C     0.93281   0.95168   0.08002   0.00000  Uiso   1.00
C19    C     0.01153   0.92745   0.02384   0.00000  Uiso   1.00
C20    C     0.14969   0.93470   0.03200   0.00000  Uiso   1.00
C21    C     0.73578   0.06029   0.10517   0.00000  Uiso   1.00
C22    C     0.64887   0.12739   0.07014   0.00000  Uiso   1.00
C23    C     0.62118   0.22610   0.09947   0.00000  Uiso   1.00
H24    H     0.92978   0.02861   0.24514   0.00000  Uiso   1.00
H25    H     0.82325   0.86863   0.30953   0.00000  Uiso   1.00
H26    H     0.17240   0.01290   0.19848   0.00000  Uiso   1.00
H27    H     0.80979   0.21281   0.24477   0.00000  Uiso   1.00
H28    H     0.67992   0.67783   0.35351   0.00000  Uiso   1.00
H29    H     0.41613   0.98208   0.11935   0.00000  Uiso   1.00
H30    H     0.65151   0.40363   0.21696   0.00000  Uiso   1.00
H31    H     0.73526   0.92532   0.03401   0.00000  Uiso   1.00
H32    H     0.61803   0.75966   0.08682   0.00000  Uiso   1.00
H33    H     0.96720   0.90394   0.97577   0.00000  Uiso   1.00
H34    H     0.60459   0.10385   0.02206   0.00000  Uiso   1.00
H35    H     0.51337   0.58939   0.17275   0.00000  Uiso   1.00
H36    H     0.24959   0.89364   0.93859   0.00000  Uiso   1.00
H37    H     0.48496   0.31519   0.03620   0.00000  Uiso   1.00
O38    O     0.52308   0.52648   0.30167   0.00000  Uiso   1.00
O39    O     0.48896   0.92567   0.99446   0.00000  Uiso   1.00
O40    O     0.48580   0.47872   0.12253   0.00000  Uiso   1.00
N41    N     0.65679   0.67976   0.30372   0.00000  Uiso   1.00
N42    N     0.34510   0.96420   0.08480   0.00000  Uiso   1.00
N43    N     0.63028   0.35833   0.17605   0.00000  Uiso   1.00
N44    N     0.56717   0.63217   0.20646   0.00000  Uiso   1.00
N45    N     0.25548   0.91661   0.98754   0.00000  Uiso   1.00
N46    N     0.54066   0.31074   0.07879   0.00000  Uiso   1.00
C47    C     0.61479   0.99506   0.69677   0.00000  Uiso   1.00
C48    C     0.69966   0.09630   0.70248   0.00000  Uiso   1.00
C49    C     0.72108   0.15492   0.76146   0.00000  Uiso   1.00
C50    C     0.80187   0.24513   0.75610   0.00000  Uiso   1.00
C51    C     0.92489   0.39773   0.77441   0.00000  Uiso   1.00
C52    C     0.50995   0.01792   0.64215   0.00000  Uiso   1.00
C53    C     0.37187   0.01063   0.65039   0.00000  Uiso   1.00
C54    C     0.29297   0.03485   0.59425   0.00000  Uiso   1.00
C55    C     0.12146   0.06570   0.51887   0.00000  Uiso   1.00
C56    C     0.70697   0.90931   0.66730   0.00000  Uiso   1.00
C57    C     0.73452   0.81068   0.69669   0.00000  Uiso   1.00
C58    C     0.82147   0.74345   0.66171   0.00000  Uiso   1.00
C59    C     0.95587   0.60567   0.62540   0.00000  Uiso   1.00
C60    C     0.72018   0.05102   0.58239   0.00000  Uiso   1.00
C61    C     0.75690   0.12669   0.64035   0.00000  Uiso   1.00
C62    C     0.83768   0.21683   0.63490   0.00000  Uiso   1.00
C63    C     0.85922   0.27558   0.69386   0.00000  Uiso   1.00
C64    C     0.56719   0.04832   0.58002   0.00000  Uiso   1.00
C65    C     0.48847   0.07255   0.52384   0.00000  Uiso   1.00
C66    C     0.35031   0.06530   0.53200   0.00000  Uiso   1.00
C67    C     0.76422   0.93971   0.60517   0.00000  Uiso   1.00
C68    C     0.85113   0.87261   0.57014   0.00000  Uiso   1.00
C69    C     0.87882   0.77390   0.59947   0.00000  Uiso   1.00
H70    H     0.57022   0.97139   0.74514   0.00000  Uiso   1.00
H71    H     0.67675   0.13137   0.80953   0.00000  Uiso   1.00
H72    H     0.32760   0.98710   0.69848   0.00000  Uiso   1.00
H73    H     0.69021   0.78719   0.74477   0.00000  Uiso   1.00
H74    H     0.82008   0.32217   0.85351   0.00000  Uiso   1.00
H75    H     0.08387   0.01792   0.61935   0.00000  Uiso   1.00
H76    H     0.84849   0.59637   0.71696   0.00000  Uiso   1.00
H77    H     0.76474   0.07468   0.53401   0.00000  Uiso   1.00
H78    H     0.88197   0.24034   0.58682   0.00000  Uiso   1.00
H79    H     0.53280   0.09606   0.47577   0.00000  Uiso   1.00
H80    H     0.89541   0.89615   0.52206   0.00000  Uiso   1.00
H81    H     0.98663   0.41061   0.67275   0.00000  Uiso   1.00
H82    H     0.25041   0.10636   0.43859   0.00000  Uiso   1.00
H83    H     0.01504   0.68481   0.53620   0.00000  Uiso   1.00
O84    O     0.97692   0.47352   0.80167   0.00000  Uiso   1.00
O85    O     0.01104   0.07433   0.49446   0.00000  Uiso   1.00
O86    O     0.01420   0.52128   0.62253   0.00000  Uiso   1.00
N87    N     0.84321   0.32024   0.80372   0.00000  Uiso   1.00
N88    N     0.15490   0.03580   0.58480   0.00000  Uiso   1.00
N89    N     0.86972   0.64167   0.67605   0.00000  Uiso   1.00
N90    N     0.93283   0.36783   0.70646   0.00000  Uiso   1.00
N91    N     0.24452   0.08339   0.48754   0.00000  Uiso   1.00
N92    N     0.95934   0.68926   0.57879   0.00000  Uiso   1.00
C93    C     0.11479   0.50494   0.30323   0.00000  Uiso   1.00
C94    C     0.19966   0.40370   0.29752   0.00000  Uiso   1.00
C95    C     0.22108   0.34508   0.23854   0.00000  Uiso   1.00
C96    C     0.30187   0.25487   0.24390   0.00000  Uiso   1.00
C97    C     0.42489   0.10227   0.22559   0.00000  Uiso   1.00
C98    C     0.00995   0.48208   0.35785   0.00000  Uiso   1.00
C99    C     0.87187   0.48937   0.34961   0.00000  Uiso   1.00
C100   C     0.79297   0.46515   0.40575   0.00000  Uiso   1.00
C101   C     0.62146   0.43430   0.48113   0.00000  Uiso   1.00
C102   C     0.20697   0.59069   0.33270   0.00000  Uiso   1.00
C103   C     0.23452   0.68932   0.30331   0.00000  Uiso   1.00
C104   C     0.32147   0.75655   0.33829   0.00000  Uiso   1.00
C105   C     0.45587   0.89433   0.37460   0.00000  Uiso   1.00
C106   C     0.22018   0.44898   0.41761   0.00000  Uiso   1.00
C107   C     0.25690   0.37331   0.35965   0.00000  Uiso   1.00
C108   C     0.33768   0.28317   0.36510   0.00000  Uiso   1.00
C109   C     0.35922   0.22442   0.30614   0.00000  Uiso   1.00
C110   C     0.06719   0.45168   0.41998   0.00000  Uiso   1.00
C111   C     0.98847   0.42745   0.47616   0.00000  Uiso   1.00
C112   C     0.85031   0.43470   0.46800   0.00000  Uiso   1.00
C113   C     0.26422   0.56029   0.39483   0.00000  Uiso   1.00
C114   C     0.35113   0.62739   0.42986   0.00000  Uiso   1.00
C115   C     0.37882   0.72610   0.40053   0.00000  Uiso   1.00
H116   H     0.07022   0.52861   0.25486   0.00000  Uiso   1.00
H117   H     0.17675   0.36863   0.19047   0.00000  Uiso   1.00
H118   H     0.82760   0.51290   0.30152   0.00000  Uiso   1.00
H119   H     0.19021   0.71281   0.25523   0.00000  Uiso   1.00
H120   H     0.32008   0.17783   0.14649   0.00000  Uiso   1.00
H121   H     0.58387   0.48208   0.38065   0.00000  Uiso   1.00
H122   H     0.34849   0.90363   0.28304   0.00000  Uiso   1.00
H123   H     0.26474   0.42532   0.46599   0.00000  Uiso   1.00
H124   H     0.38197   0.25966   0.41318   0.00000  Uiso   1.00
H125   H     0.03280   0.40394   0.52423   0.00000  Uiso   1.00
H126   H     0.39541   0.60385   0.47794   0.00000  Uiso   1.00
H127   H     0.48663   0.08939   0.32725   0.00000  Uiso   1.00
H128   H     0.75041   0.39364   0.56141   0.00000  Uiso   1.00
H129   H     0.51504   0.81519   0.46380   0.00000  Uiso   1.00
O130   O     0.47692   0.02648   0.19833   0.00000  Uiso   1.00
O131   O     0.51104   0.42567   0.50554   0.00000  Uiso   1.00
O132   O     0.51420   0.97872   0.37747   0.00000  Uiso   1.00
N133   N     0.34321   0.17976   0.19628   0.00000  Uiso   1.00
N134   N     0.65490   0.46420   0.41520   0.00000  Uiso   1.00
N135   N     0.36972   0.85833   0.32395   0.00000  Uiso   1.00
N136   N     0.43283   0.13217   0.29354   0.00000  Uiso   1.00
N137   N     0.74452   0.41661   0.51246   0.00000  Uiso   1.00
N138   N     0.45934   0.81074   0.42121   0.00000  Uiso   1.00
C139   C     0.38521   0.49506   0.80323   0.00000  Uiso   1.00
C140   C     0.30034   0.59630   0.79752   0.00000  Uiso   1.00
C141   C     0.27892   0.65492   0.73854   0.00000  Uiso   1.00
C142   C     0.19813   0.74513   0.74390   0.00000  Uiso   1.00
C143   C     0.07511   0.89773   0.72559   0.00000  Uiso   1.00
C144   C     0.49005   0.51792   0.85785   0.00000  Uiso   1.00
C145   C     0.62813   0.51063   0.84961   0.00000  Uiso   1.00
C146   C     0.70703   0.53485   0.90575   0.00000  Uiso   1.00
C147   C     0.87854   0.56570   0.98113   0.00000  Uiso   1.00
C148   C     0.29303   0.40931   0.83270   0.00000  Uiso   1.00
C149   C     0.26548   0.31068   0.80331   0.00000  Uiso   1.00
C150   C     0.17853   0.24345   0.83829   0.00000  Uiso   1.00
C151   C     0.04413   0.10567   0.87460   0.00000  Uiso   1.00
C152   C     0.27982   0.55102   0.91761   0.00000  Uiso   1.00
C153   C     0.24310   0.62669   0.85965   0.00000  Uiso   1.00
C154   C     0.16232   0.71683   0.86510   0.00000  Uiso   1.00
C155   C     0.14078   0.77558   0.80614   0.00000  Uiso   1.00
C156   C     0.43281   0.54832   0.91998   0.00000  Uiso   1.00
C157   C     0.51153   0.57255   0.97616   0.00000  Uiso   1.00
C158   C     0.64969   0.56530   0.96800   0.00000  Uiso   1.00
C159   C     0.23578   0.43971   0.89483   0.00000  Uiso   1.00
C160   C     0.14887   0.37261   0.92986   0.00000  Uiso   1.00
C161   C     0.12118   0.27390   0.90053   0.00000  Uiso   1.00
H162   H     0.42978   0.47139   0.75486   0.00000  Uiso   1.00
H163   H     0.32325   0.63137   0.69047   0.00000  Uiso   1.00
H164   H     0.67240   0.48710   0.80152   0.00000  Uiso   1.00
H165   H     0.30979   0.28719   0.75523   0.00000  Uiso   1.00
H166   H     0.17992   0.82217   0.64649   0.00000  Uiso   1.00
H167   H     0.91613   0.51792   0.88065   0.00000  Uiso   1.00
H168   H     0.15151   0.09637   0.78304   0.00000  Uiso   1.00
H169   H     0.23526   0.57468   0.96599   0.00000  Uiso   1.00
H170   H     0.11803   0.74034   0.91318   0.00000  Uiso   1.00
H171   H     0.46720   0.59606   0.02423   0.00000  Uiso   1.00
H172   H     0.10459   0.39615   0.97794   0.00000  Uiso   1.00
H173   H     0.01337   0.91061   0.82725   0.00000  Uiso   1.00
H174   H     0.74959   0.60636   0.06141   0.00000  Uiso   1.00
H175   H     0.98496   0.18481   0.96380   0.00000  Uiso   1.00
O176   O     0.02308   0.97352   0.69833   0.00000  Uiso   1.00
O177   O     0.98896   0.57433   0.00554   0.00000  Uiso   1.00
O178   O     0.98580   0.02128   0.87747   0.00000  Uiso   1.00
N179   N     0.15679   0.82024   0.69628   0.00000  Uiso   1.00
N180   N     0.84510   0.53580   0.91520   0.00000  Uiso   1.00
N181   N     0.13028   0.14167   0.82395   0.00000  Uiso   1.00
N182   N     0.06717   0.86783   0.79354   0.00000  Uiso   1.00
N183   N     0.75548   0.58339   0.01246   0.00000  Uiso   1.00
N184   N     0.04066   0.18926   0.92121   0.00000  Uiso   1.00
