data_job_00617
_audit_creation_date              2018-12-19
_audit_creation_method            'Materials Studio'
_symmetry_space_group_name_H-M    'P1'
_symmetry_Int_Tables_number       1
_symmetry_cell_setting            triclinic
loop_
_symmetry_equiv_pos_as_xyz
  x,y,z
_cell_length_a                    24.3071
_cell_length_b                    7.0640
_cell_length_c                    22.9106
_cell_angle_alpha                 90.0000
_cell_angle_beta                  119.5470
_cell_angle_gamma                 90.0000
loop_
_atom_site_label
_atom_site_type_symbol
_atom_site_fract_x
_atom_site_fract_y
_atom_site_fract_z
_atom_site_U_iso_or_equiv
_atom_site_adp_type
_atom_site_occupancy
C1     C     0.18639   0.04340   0.89052   0.00000  Uiso   1.00
C2     C     0.15995   0.17703   0.92291   0.00000  Uiso   1.00
C3     C     0.14265   0.12672   0.97020   0.00000  Uiso   1.00
C4     C     0.11946   0.26971   0.99370   0.00000  Uiso   1.00
C5     C     0.07923   0.44882   0.04747   0.00000  Uiso   1.00
C6     C     0.14255   0.06069   0.81500   0.00000  Uiso   1.00
C7     C     0.11063   0.91254   0.77156   0.00000  Uiso   1.00
C8     C     0.07280   0.95760   0.70422   0.00000  Uiso   1.00
C9     C     0.00560   0.95605   0.59045   0.00000  Uiso   1.00
C10    C     0.24951   0.12781   0.90462   0.00000  Uiso   1.00
C11    C     0.30753   0.03610   0.93651   0.00000  Uiso   1.00
C12    C     0.35975   0.13766   0.94461   0.00000  Uiso   1.00
C13    C     0.45863   0.24034   0.96999   0.00000  Uiso   1.00
C14    C     0.17596   0.38682   0.84818   0.00000  Uiso   1.00
C15    C     0.15428   0.36356   0.89991   0.00000  Uiso   1.00
C16    C     0.13111   0.50667   0.92335   0.00000  Uiso   1.00
C17    C     0.11378   0.45658   0.97067   0.00000  Uiso   1.00
C18    C     0.13688   0.24721   0.79200   0.00000  Uiso   1.00
C19    C     0.09909   0.29249   0.72471   0.00000  Uiso   1.00
C20    C     0.06712   0.14446   0.68118   0.00000  Uiso   1.00
C21    C     0.24385   0.31435   0.88162   0.00000  Uiso   1.00
C22    C     0.29599   0.41606   0.88967   0.00000  Uiso   1.00
C23    C     0.35407   0.32452   0.92157   0.00000  Uiso   1.00
H24    H     0.19080   0.89817   0.90842   0.00000  Uiso   1.00
H25    H     0.14704   0.98234   0.98798   0.00000  Uiso   1.00
H26    H     0.11503   0.76821   0.78937   0.00000  Uiso   1.00
H27    H     0.31190   0.89175   0.95430   0.00000  Uiso   1.00
H28    H     0.09600   0.15791   0.06602   0.00000  Uiso   1.00
H29    H     0.02853   0.70637   0.64724   0.00000  Uiso   1.00
H30    H     0.44366   0.96689   0.99503   0.00000  Uiso   1.00
H31    H     0.17155   0.53204   0.83027   0.00000  Uiso   1.00
H32    H     0.12673   0.65101   0.90555   0.00000  Uiso   1.00
H33    H     0.09472   0.43685   0.70694   0.00000  Uiso   1.00
H34    H     0.29158   0.56040   0.87187   0.00000  Uiso   1.00
H35    H     0.07952   0.70062   0.99912   0.00000  Uiso   1.00
H36    H     0.01205   0.24907   0.58033   0.00000  Uiso   1.00
H37    H     0.42717   0.50959   0.92813   0.00000  Uiso   1.00
O38    O     0.05861   0.49607   0.08348   0.00000  Uiso   1.00
O39    O     0.97010   0.90366   0.53405   0.00000  Uiso   1.00
O40    O     0.51473   0.24546   0.99035   0.00000  Uiso   1.00
N41    N     0.09828   0.26932   0.03996   0.00000  Uiso   1.00
N42    N     0.03520   0.84716   0.64842   0.00000  Uiso   1.00
N43    N     0.42330   0.09070   0.97356   0.00000  Uiso   1.00
N44    N     0.08941   0.56135   0.00396   0.00000  Uiso   1.00
N45    N     0.02633   0.13919   0.61242   0.00000  Uiso   1.00
N46    N     0.41443   0.38273   0.93756   0.00000  Uiso   1.00
C47    C     0.81361   0.04340   0.60948   0.00000  Uiso   1.00
C48    C     0.84005   0.17703   0.57709   0.00000  Uiso   1.00
C49    C     0.85735   0.12672   0.52980   0.00000  Uiso   1.00
C50    C     0.88054   0.26971   0.50630   0.00000  Uiso   1.00
C51    C     0.92077   0.44882   0.45253   0.00000  Uiso   1.00
C52    C     0.85745   0.06069   0.68500   0.00000  Uiso   1.00
C53    C     0.88937   0.91254   0.72844   0.00000  Uiso   1.00
C54    C     0.92720   0.95760   0.79578   0.00000  Uiso   1.00
C55    C     0.99440   0.95605   0.90955   0.00000  Uiso   1.00
C56    C     0.75049   0.12781   0.59538   0.00000  Uiso   1.00
C57    C     0.69247   0.03610   0.56349   0.00000  Uiso   1.00
C58    C     0.64025   0.13766   0.55539   0.00000  Uiso   1.00
C59    C     0.54137   0.24034   0.53001   0.00000  Uiso   1.00
C60    C     0.82404   0.38682   0.65182   0.00000  Uiso   1.00
C61    C     0.84572   0.36356   0.60009   0.00000  Uiso   1.00
C62    C     0.86889   0.50667   0.57665   0.00000  Uiso   1.00
C63    C     0.88622   0.45658   0.52933   0.00000  Uiso   1.00
C64    C     0.86312   0.24721   0.70800   0.00000  Uiso   1.00
C65    C     0.90091   0.29249   0.77529   0.00000  Uiso   1.00
C66    C     0.93288   0.14446   0.81882   0.00000  Uiso   1.00
C67    C     0.75615   0.31435   0.61838   0.00000  Uiso   1.00
C68    C     0.70401   0.41606   0.61033   0.00000  Uiso   1.00
C69    C     0.64593   0.32452   0.57843   0.00000  Uiso   1.00
H70    H     0.80920   0.89817   0.59158   0.00000  Uiso   1.00
H71    H     0.85296   0.98234   0.51202   0.00000  Uiso   1.00
H72    H     0.88497   0.76821   0.71063   0.00000  Uiso   1.00
H73    H     0.68810   0.89175   0.54570   0.00000  Uiso   1.00
H74    H     0.90400   0.15791   0.43398   0.00000  Uiso   1.00
H75    H     0.97147   0.70637   0.85276   0.00000  Uiso   1.00
H76    H     0.55634   0.96689   0.50497   0.00000  Uiso   1.00
H77    H     0.82845   0.53204   0.66973   0.00000  Uiso   1.00
H78    H     0.87327   0.65101   0.59445   0.00000  Uiso   1.00
H79    H     0.90528   0.43685   0.79306   0.00000  Uiso   1.00
H80    H     0.70842   0.56040   0.62813   0.00000  Uiso   1.00
H81    H     0.92048   0.70062   0.50088   0.00000  Uiso   1.00
H82    H     0.98795   0.24907   0.91967   0.00000  Uiso   1.00
H83    H     0.57283   0.50959   0.57187   0.00000  Uiso   1.00
O84    O     0.94139   0.49607   0.41652   0.00000  Uiso   1.00
O85    O     0.02990   0.90366   0.96595   0.00000  Uiso   1.00
O86    O     0.48527   0.24546   0.50965   0.00000  Uiso   1.00
N87    N     0.90172   0.26932   0.46004   0.00000  Uiso   1.00
N88    N     0.96480   0.84716   0.85158   0.00000  Uiso   1.00
N89    N     0.57670   0.09070   0.52644   0.00000  Uiso   1.00
N90    N     0.91059   0.56135   0.49604   0.00000  Uiso   1.00
N91    N     0.97367   0.13919   0.88758   0.00000  Uiso   1.00
N92    N     0.58557   0.38273   0.56244   0.00000  Uiso   1.00
C93    C     0.81361   0.95660   0.10948   0.00000  Uiso   1.00
C94    C     0.84005   0.82297   0.07709   0.00000  Uiso   1.00
C95    C     0.85735   0.87328   0.02980   0.00000  Uiso   1.00
C96    C     0.88054   0.73029   0.00630   0.00000  Uiso   1.00
C97    C     0.92077   0.55118   0.95253   0.00000  Uiso   1.00
C98    C     0.85745   0.93931   0.18500   0.00000  Uiso   1.00
C99    C     0.88937   0.08746   0.22844   0.00000  Uiso   1.00
C100   C     0.92720   0.04240   0.29578   0.00000  Uiso   1.00
C101   C     0.99440   0.04395   0.40955   0.00000  Uiso   1.00
C102   C     0.75049   0.87219   0.09538   0.00000  Uiso   1.00
C103   C     0.69247   0.96390   0.06349   0.00000  Uiso   1.00
C104   C     0.64025   0.86234   0.05539   0.00000  Uiso   1.00
C105   C     0.54137   0.75966   0.03001   0.00000  Uiso   1.00
C106   C     0.82404   0.61318   0.15182   0.00000  Uiso   1.00
C107   C     0.84572   0.63644   0.10009   0.00000  Uiso   1.00
C108   C     0.86889   0.49333   0.07665   0.00000  Uiso   1.00
C109   C     0.88622   0.54342   0.02933   0.00000  Uiso   1.00
C110   C     0.86312   0.75279   0.20800   0.00000  Uiso   1.00
C111   C     0.90091   0.70751   0.27529   0.00000  Uiso   1.00
C112   C     0.93288   0.85554   0.31882   0.00000  Uiso   1.00
C113   C     0.75615   0.68565   0.11838   0.00000  Uiso   1.00
C114   C     0.70401   0.58394   0.11033   0.00000  Uiso   1.00
C115   C     0.64593   0.67548   0.07843   0.00000  Uiso   1.00
H116   H     0.80920   0.10183   0.09158   0.00000  Uiso   1.00
H117   H     0.85296   0.01766   0.01202   0.00000  Uiso   1.00
H118   H     0.88497   0.23179   0.21063   0.00000  Uiso   1.00
H119   H     0.68810   0.10825   0.04570   0.00000  Uiso   1.00
H120   H     0.90400   0.84209   0.93398   0.00000  Uiso   1.00
H121   H     0.97147   0.29363   0.35276   0.00000  Uiso   1.00
H122   H     0.55634   0.03311   0.00497   0.00000  Uiso   1.00
H123   H     0.82845   0.46796   0.16973   0.00000  Uiso   1.00
H124   H     0.87327   0.34899   0.09445   0.00000  Uiso   1.00
H125   H     0.90528   0.56315   0.29306   0.00000  Uiso   1.00
H126   H     0.70842   0.43960   0.12813   0.00000  Uiso   1.00
H127   H     0.92048   0.29938   0.00088   0.00000  Uiso   1.00
H128   H     0.98795   0.75093   0.41967   0.00000  Uiso   1.00
H129   H     0.57283   0.49041   0.07187   0.00000  Uiso   1.00
O130   O     0.94139   0.50393   0.91652   0.00000  Uiso   1.00
O131   O     0.02990   0.09634   0.46595   0.00000  Uiso   1.00
O132   O     0.48527   0.75454   0.00965   0.00000  Uiso   1.00
N133   N     0.90172   0.73068   0.96004   0.00000  Uiso   1.00
N134   N     0.96480   0.15284   0.35158   0.00000  Uiso   1.00
N135   N     0.57670   0.90930   0.02644   0.00000  Uiso   1.00
N136   N     0.91059   0.43865   0.99604   0.00000  Uiso   1.00
N137   N     0.97367   0.86081   0.38758   0.00000  Uiso   1.00
N138   N     0.58557   0.61727   0.06244   0.00000  Uiso   1.00
C139   C     0.18639   0.95660   0.39052   0.00000  Uiso   1.00
C140   C     0.15995   0.82297   0.42291   0.00000  Uiso   1.00
C141   C     0.14265   0.87328   0.47020   0.00000  Uiso   1.00
C142   C     0.11946   0.73029   0.49370   0.00000  Uiso   1.00
C143   C     0.07923   0.55118   0.54747   0.00000  Uiso   1.00
C144   C     0.14255   0.93931   0.31500   0.00000  Uiso   1.00
C145   C     0.11063   0.08746   0.27156   0.00000  Uiso   1.00
C146   C     0.07280   0.04240   0.20422   0.00000  Uiso   1.00
C147   C     0.00560   0.04395   0.09045   0.00000  Uiso   1.00
C148   C     0.24951   0.87219   0.40462   0.00000  Uiso   1.00
C149   C     0.30753   0.96390   0.43651   0.00000  Uiso   1.00
C150   C     0.35975   0.86234   0.44461   0.00000  Uiso   1.00
C151   C     0.45863   0.75966   0.46999   0.00000  Uiso   1.00
C152   C     0.17596   0.61318   0.34818   0.00000  Uiso   1.00
C153   C     0.15428   0.63644   0.39991   0.00000  Uiso   1.00
C154   C     0.13111   0.49333   0.42335   0.00000  Uiso   1.00
C155   C     0.11378   0.54342   0.47067   0.00000  Uiso   1.00
C156   C     0.13688   0.75279   0.29200   0.00000  Uiso   1.00
C157   C     0.09909   0.70751   0.22471   0.00000  Uiso   1.00
C158   C     0.06712   0.85554   0.18118   0.00000  Uiso   1.00
C159   C     0.24385   0.68565   0.38162   0.00000  Uiso   1.00
C160   C     0.29599   0.58394   0.38967   0.00000  Uiso   1.00
C161   C     0.35407   0.67548   0.42157   0.00000  Uiso   1.00
H162   H     0.19080   0.10183   0.40842   0.00000  Uiso   1.00
H163   H     0.14704   0.01766   0.48798   0.00000  Uiso   1.00
H164   H     0.11503   0.23179   0.28937   0.00000  Uiso   1.00
H165   H     0.31190   0.10825   0.45430   0.00000  Uiso   1.00
H166   H     0.09600   0.84209   0.56602   0.00000  Uiso   1.00
H167   H     0.02853   0.29363   0.14724   0.00000  Uiso   1.00
H168   H     0.44366   0.03311   0.49503   0.00000  Uiso   1.00
H169   H     0.17155   0.46796   0.33027   0.00000  Uiso   1.00
H170   H     0.12673   0.34899   0.40555   0.00000  Uiso   1.00
H171   H     0.09472   0.56315   0.20694   0.00000  Uiso   1.00
H172   H     0.29158   0.43960   0.37187   0.00000  Uiso   1.00
H173   H     0.07952   0.29938   0.49912   0.00000  Uiso   1.00
H174   H     0.01205   0.75093   0.08033   0.00000  Uiso   1.00
H175   H     0.42717   0.49041   0.42813   0.00000  Uiso   1.00
O176   O     0.05861   0.50393   0.58348   0.00000  Uiso   1.00
O177   O     0.97010   0.09634   0.03405   0.00000  Uiso   1.00
O178   O     0.51473   0.75454   0.49035   0.00000  Uiso   1.00
N179   N     0.09828   0.73068   0.53996   0.00000  Uiso   1.00
N180   N     0.03520   0.15284   0.14842   0.00000  Uiso   1.00
N181   N     0.42330   0.90930   0.47356   0.00000  Uiso   1.00
N182   N     0.08941   0.43865   0.50396   0.00000  Uiso   1.00
N183   N     0.02633   0.86081   0.11242   0.00000  Uiso   1.00
N184   N     0.41443   0.61727   0.43756   0.00000  Uiso   1.00
