data_job_06677
_audit_creation_date              2018-12-19
_audit_creation_method            'Materials Studio'
_symmetry_space_group_name_H-M    'P1'
_symmetry_Int_Tables_number       1
_symmetry_cell_setting            triclinic
loop_
_symmetry_equiv_pos_as_xyz
  x,y,z
_cell_length_a                    14.3453
_cell_length_b                    16.8863
_cell_length_c                    33.2909
_cell_angle_alpha                 97.1928
_cell_angle_beta                  90.4577
_cell_angle_gamma                 76.0730
loop_
_atom_site_label
_atom_site_type_symbol
_atom_site_fract_x
_atom_site_fract_y
_atom_site_fract_z
_atom_site_U_iso_or_equiv
_atom_site_adp_type
_atom_site_occupancy
C1     C     0.93783   0.79378   0.90821   0.00000  Uiso   1.00
C2     C     0.92390   0.77316   0.95073   0.00000  Uiso   1.00
C3     C     0.98646   0.77762   0.98248   0.00000  Uiso   1.00
C4     C     0.96082   0.75616   0.01901   0.00000  Uiso   1.00
C5     C     0.95217   0.72791   0.08432   0.00000  Uiso   1.00
C6     C     0.93362   0.71715   0.87938   0.00000  Uiso   1.00
C7     C     0.00436   0.67451   0.85113   0.00000  Uiso   1.00
C8     C     0.98690   0.60590   0.82760   0.00000  Uiso   1.00
C9     C     0.99331   0.49072   0.78212   0.00000  Uiso   1.00
C10    C     0.84851   0.85949   0.90031   0.00000  Uiso   1.00
C11    C     0.84769   0.93652   0.88966   0.00000  Uiso   1.00
C12    C     0.75856   0.98775   0.88375   0.00000  Uiso   1.00
C13    C     0.63284   0.09357   0.87077   0.00000  Uiso   1.00
C14    C     0.78103   0.74777   0.91664   0.00000  Uiso   1.00
C15    C     0.83873   0.74817   0.95530   0.00000  Uiso   1.00
C16    C     0.81299   0.72671   0.99180   0.00000  Uiso   1.00
C17    C     0.87550   0.73113   0.02360   0.00000  Uiso   1.00
C18    C     0.84846   0.69215   0.88395   0.00000  Uiso   1.00
C19    C     0.83088   0.62360   0.86046   0.00000  Uiso   1.00
C20    C     0.90158   0.58086   0.83219   0.00000  Uiso   1.00
C21    C     0.76335   0.83450   0.90489   0.00000  Uiso   1.00
C22    C     0.67421   0.88561   0.89899   0.00000  Uiso   1.00
C23    C     0.67325   0.96271   0.88833   0.00000  Uiso   1.00
H24    H     0.00413   0.81323   0.90465   0.00000  Uiso   1.00
H25    H     0.05237   0.79695   0.97892   0.00000  Uiso   1.00
H26    H     0.07026   0.69387   0.84760   0.00000  Uiso   1.00
H27    H     0.91361   0.95584   0.88612   0.00000  Uiso   1.00
H28    H     0.06831   0.76785   0.06328   0.00000  Uiso   1.00
H29    H     0.10601   0.55051   0.78637   0.00000  Uiso   1.00
H30    H     0.77568   0.10293   0.86760   0.00000  Uiso   1.00
H31    H     0.71472   0.72831   0.92020   0.00000  Uiso   1.00
H32    H     0.74707   0.70737   0.99533   0.00000  Uiso   1.00
H33    H     0.76497   0.60428   0.86400   0.00000  Uiso   1.00
H34    H     0.60832   0.86625   0.90253   0.00000  Uiso   1.00
H35    H     0.82052   0.69514   0.07660   0.00000  Uiso   1.00
H36    H     0.85822   0.47779   0.79968   0.00000  Uiso   1.00
H37    H     0.52790   0.03021   0.88092   0.00000  Uiso   1.00
O38    O     0.97094   0.71923   0.11908   0.00000  Uiso   1.00
O39    O     0.02039   0.43409   0.75577   0.00000  Uiso   1.00
O40    O     0.58702   0.15885   0.86235   0.00000  Uiso   1.00
N41    N     0.00554   0.75363   0.05611   0.00000  Uiso   1.00
N42    N     0.04080   0.55041   0.79721   0.00000  Uiso   1.00
N43    N     0.73197   0.06687   0.87315   0.00000  Uiso   1.00
N44    N     0.87221   0.71450   0.06327   0.00000  Uiso   1.00
N45    N     0.90747   0.51129   0.80438   0.00000  Uiso   1.00
N46    N     0.59864   0.02775   0.88032   0.00000  Uiso   1.00
C47    C     0.30628   0.79217   0.82225   0.00000  Uiso   1.00
C48    C     0.30195   0.80403   0.86842   0.00000  Uiso   1.00
C49    C     0.22621   0.85317   0.89252   0.00000  Uiso   1.00
C50    C     0.23608   0.85582   0.93415   0.00000  Uiso   1.00
C51    C     0.21680   0.88110   0.00328   0.00000  Uiso   1.00
C52    C     0.39719   0.81606   0.81023   0.00000  Uiso   1.00
C53    C     0.40151   0.87530   0.78539   0.00000  Uiso   1.00
C54    C     0.49157   0.88807   0.77804   0.00000  Uiso   1.00
C55    C     0.62015   0.93198   0.75679   0.00000  Uiso   1.00
C56    C     0.32404   0.69978   0.80940   0.00000  Uiso   1.00
C57    C     0.26688   0.66125   0.78385   0.00000  Uiso   1.00
C58    C     0.29536   0.57612   0.77579   0.00000  Uiso   1.00
C59    C     0.31037   0.43949   0.75326   0.00000  Uiso   1.00
C60    C     0.45852   0.70950   0.85334   0.00000  Uiso   1.00
C61    C     0.38464   0.75913   0.88531   0.00000  Uiso   1.00
C62    C     0.39464   0.76171   0.92692   0.00000  Uiso   1.00
C63    C     0.31892   0.81084   0.95107   0.00000  Uiso   1.00
C64    C     0.47988   0.77116   0.82712   0.00000  Uiso   1.00
C65    C     0.56995   0.78384   0.81979   0.00000  Uiso   1.00
C66    C     0.57441   0.84309   0.79495   0.00000  Uiso   1.00
C67    C     0.40673   0.65488   0.82629   0.00000  Uiso   1.00
C68    C     0.43531   0.56979   0.81826   0.00000  Uiso   1.00
C69    C     0.37820   0.53114   0.79271   0.00000  Uiso   1.00
H70    H     0.24191   0.82713   0.80910   0.00000  Uiso   1.00
H71    H     0.16223   0.88791   0.87944   0.00000  Uiso   1.00
H72    H     0.33751   0.91003   0.77233   0.00000  Uiso   1.00
H73    H     0.20289   0.69601   0.77079   0.00000  Uiso   1.00
H74    H     0.11037   0.93552   0.96487   0.00000  Uiso   1.00
H75    H     0.47997   0.98215   0.73901   0.00000  Uiso   1.00
H76    H     0.19610   0.53085   0.73577   0.00000  Uiso   1.00
H77    H     0.52290   0.67455   0.86649   0.00000  Uiso   1.00
H78    H     0.45864   0.72695   0.93998   0.00000  Uiso   1.00
H79    H     0.63392   0.74908   0.83287   0.00000  Uiso   1.00
H80    H     0.49930   0.53506   0.83133   0.00000  Uiso   1.00
H81    H     0.35095   0.80489   0.01401   0.00000  Uiso   1.00
H82    H     0.72055   0.85151   0.78814   0.00000  Uiso   1.00
H83    H     0.43668   0.40022   0.78490   0.00000  Uiso   1.00
O84    O     0.18333   0.90745   0.03675   0.00000  Uiso   1.00
O85    O     0.66823   0.96862   0.74042   0.00000  Uiso   1.00
O86    O     0.29580   0.37653   0.73617   0.00000  Uiso   1.00
N87    N     0.17580   0.89757   0.96635   0.00000  Uiso   1.00
N88    N     0.52135   0.94117   0.75518   0.00000  Uiso   1.00
N89    N     0.25597   0.51925   0.75215   0.00000  Uiso   1.00
N90    N     0.30525   0.82728   0.99279   0.00000  Uiso   1.00
N91    N     0.65081   0.87088   0.78163   0.00000  Uiso   1.00
N92    N     0.38543   0.44896   0.77859   0.00000  Uiso   1.00
C93    C     0.94004   0.23307   0.95698   0.00000  Uiso   1.00
C94    C     0.94213   0.29935   0.99235   0.00000  Uiso   1.00
C95    C     0.91726   0.29693   0.03230   0.00000  Uiso   1.00
C96    C     0.92400   0.36364   0.06016   0.00000  Uiso   1.00
C97    C     0.92256   0.45642   0.11685   0.00000  Uiso   1.00
C98    C     0.87537   0.27598   0.92562   0.00000  Uiso   1.00
C99    C     0.79439   0.25391   0.90947   0.00000  Uiso   1.00
C100   C     0.74494   0.30093   0.88115   0.00000  Uiso   1.00
C101   C     0.63990   0.35740   0.83424   0.00000  Uiso   1.00
C102   C     0.04110   0.20802   0.93819   0.00000  Uiso   1.00
C103   C     0.09946   0.12880   0.93258   0.00000  Uiso   1.00
C104   C     0.18953   0.11860   0.91484   0.00000  Uiso   1.00
C105   C     0.34181   0.06954   0.88743   0.00000  Uiso   1.00
C106   C     0.99623   0.35582   0.93541   0.00000  Uiso   1.00
C107   C     0.97265   0.36602   0.98063   0.00000  Uiso   1.00
C108   C     0.97943   0.43274   0.00844   0.00000  Uiso   1.00
C109   C     0.95458   0.43043   0.04842   0.00000  Uiso   1.00
C110   C     0.90589   0.34265   0.91391   0.00000  Uiso   1.00
C111   C     0.85655   0.38972   0.88561   0.00000  Uiso   1.00
C112   C     0.77551   0.36773   0.86942   0.00000  Uiso   1.00
C113   C     0.07162   0.27469   0.92647   0.00000  Uiso   1.00
C114   C     0.16162   0.26461   0.90873   0.00000  Uiso   1.00
C115   C     0.22011   0.18539   0.90311   0.00000  Uiso   1.00
H116   H     0.91627   0.18117   0.96609   0.00000  Uiso   1.00
H117   H     0.89364   0.24533   0.04135   0.00000  Uiso   1.00
H118   H     0.77079   0.20230   0.91853   0.00000  Uiso   1.00
H119   H     0.07581   0.07722   0.94165   0.00000  Uiso   1.00
H120   H     0.88197   0.34588   0.11961   0.00000  Uiso   1.00
H121   H     0.62296   0.25514   0.86064   0.00000  Uiso   1.00
H122   H     0.26616   0.99137   0.90939   0.00000  Uiso   1.00
H123   H     0.01999   0.40774   0.92630   0.00000  Uiso   1.00
H124   H     0.00305   0.48433   0.99937   0.00000  Uiso   1.00
H125   H     0.88020   0.44131   0.87655   0.00000  Uiso   1.00
H126   H     0.18522   0.31622   0.89967   0.00000  Uiso   1.00
H127   H     0.97076   0.53987   0.08554   0.00000  Uiso   1.00
H128   H     0.71175   0.44913   0.82657   0.00000  Uiso   1.00
H129   H     0.35495   0.18535   0.87532   0.00000  Uiso   1.00
O130   O     0.91332   0.48919   0.15136   0.00000  Uiso   1.00
O131   O     0.57352   0.37013   0.81160   0.00000  Uiso   1.00
O132   O     0.41738   0.02407   0.87556   0.00000  Uiso   1.00
N133   N     0.90521   0.38102   0.10157   0.00000  Uiso   1.00
N134   N     0.66304   0.29619   0.85945   0.00000  Uiso   1.00
N135   N     0.26437   0.04958   0.90502   0.00000  Uiso   1.00
N136   N     0.95299   0.48540   0.08323   0.00000  Uiso   1.00
N137   N     0.71082   0.40057   0.84112   0.00000  Uiso   1.00
N138   N     0.31215   0.15396   0.88668   0.00000  Uiso   1.00
C139   C     0.14410   0.87979   0.34166   0.00000  Uiso   1.00
C140   C     0.14061   0.83777   0.37939   0.00000  Uiso   1.00
C141   C     0.12543   0.87690   0.41883   0.00000  Uiso   1.00
C142   C     0.12477   0.82757   0.44915   0.00000  Uiso   1.00
C143   C     0.11716   0.77532   0.50909   0.00000  Uiso   1.00
C144   C     0.06842   0.85528   0.31360   0.00000  Uiso   1.00
C145   C     0.99255   0.90915   0.29772   0.00000  Uiso   1.00
C146   C     0.93112   0.87456   0.27266   0.00000  Uiso   1.00
C147   C     0.81148   0.84950   0.23043   0.00000  Uiso   1.00
C148   C     0.24096   0.83858   0.32082   0.00000  Uiso   1.00
C149   C     0.31016   0.87839   0.31099   0.00000  Uiso   1.00
C150   C     0.39400   0.82974   0.29200   0.00000  Uiso   1.00
C151   C     0.54226   0.77874   0.26098   0.00000  Uiso   1.00
C152   C     0.16993   0.72258   0.32538   0.00000  Uiso   1.00
C153   C     0.15463   0.75238   0.37055   0.00000  Uiso   1.00
C154   C     0.15400   0.70297   0.40082   0.00000  Uiso   1.00
C155   C     0.13882   0.74203   0.44030   0.00000  Uiso   1.00
C156   C     0.08244   0.76990   0.30476   0.00000  Uiso   1.00
C157   C     0.02112   0.73522   0.27971   0.00000  Uiso   1.00
C158   C     0.94517   0.78902   0.26380   0.00000  Uiso   1.00
C159   C     0.25499   0.75319   0.31198   0.00000  Uiso   1.00
C160   C     0.33873   0.70446   0.29299   0.00000  Uiso   1.00
C161   C     0.40805   0.74419   0.28314   0.00000  Uiso   1.00
H162   H     0.13317   0.94626   0.34854   0.00000  Uiso   1.00
H163   H     0.11457   0.94299   0.42566   0.00000  Uiso   1.00
H164   H     0.98172   0.97523   0.30457   0.00000  Uiso   1.00
H165   H     0.29928   0.94447   0.31784   0.00000  Uiso   1.00
H166   H     0.10009   0.90170   0.50726   0.00000  Uiso   1.00
H167   H     0.81998   0.96968   0.25192   0.00000  Uiso   1.00
H168   H     0.48963   0.90483   0.27991   0.00000  Uiso   1.00
H169   H     0.18085   0.65610   0.31849   0.00000  Uiso   1.00
H170   H     0.16486   0.63689   0.39397   0.00000  Uiso   1.00
H171   H     0.03200   0.66914   0.27287   0.00000  Uiso   1.00
H172   H     0.34956   0.63838   0.28615   0.00000  Uiso   1.00
H173   H     0.14090   0.65327   0.48154   0.00000  Uiso   1.00
H174   H     0.86080   0.72125   0.22620   0.00000  Uiso   1.00
H175   H     0.53044   0.65639   0.25419   0.00000  Uiso   1.00
O176   O     0.10908   0.77009   0.54459   0.00000  Uiso   1.00
O177   O     0.74161   0.85928   0.20959   0.00000  Uiso   1.00
O178   O     0.62016   0.77420   0.24631   0.00000  Uiso   1.00
N179   N     0.11190   0.84586   0.49085   0.00000  Uiso   1.00
N180   N     0.85002   0.90942   0.25213   0.00000  Uiso   1.00
N181   N     0.47607   0.84880   0.27829   0.00000  Uiso   1.00
N182   N     0.13387   0.71218   0.47701   0.00000  Uiso   1.00
N183   N     0.87198   0.77574   0.23829   0.00000  Uiso   1.00
N184   N     0.49803   0.71511   0.26445   0.00000  Uiso   1.00
C185   C     0.42881   0.20527   0.37384   0.00000  Uiso   1.00
C186   C     0.39473   0.22713   0.41800   0.00000  Uiso   1.00
C187   C     0.43462   0.18596   0.44995   0.00000  Uiso   1.00
C188   C     0.39310   0.21554   0.48810   0.00000  Uiso   1.00
C189   C     0.35217   0.23913   0.55577   0.00000  Uiso   1.00
C190   C     0.45089   0.28269   0.36122   0.00000  Uiso   1.00
C191   C     0.53801   0.28821   0.34541   0.00000  Uiso   1.00
C192   C     0.54375   0.36457   0.33575   0.00000  Uiso   1.00
C193   C     0.59000   0.47439   0.31523   0.00000  Uiso   1.00
C194   C     0.34165   0.19217   0.34981   0.00000  Uiso   1.00
C195   C     0.33691   0.12159   0.32440   0.00000  Uiso   1.00
C196   C     0.25068   0.12174   0.30513   0.00000  Uiso   1.00
C197   C     0.12730   0.09101   0.26690   0.00000  Uiso   1.00
C198   C     0.28411   0.33103   0.38479   0.00000  Uiso   1.00
C199   C     0.31614   0.29545   0.42395   0.00000  Uiso   1.00
C200   C     0.27454   0.32510   0.46206   0.00000  Uiso   1.00
C201   C     0.31436   0.28397   0.49406   0.00000  Uiso   1.00
C202   C     0.37231   0.35100   0.36716   0.00000  Uiso   1.00
C203   C     0.37792   0.42736   0.35752   0.00000  Uiso   1.00
C204   C     0.46502   0.43300   0.34171   0.00000  Uiso   1.00
C205   C     0.26305   0.26048   0.35576   0.00000  Uiso   1.00
C206   C     0.17682   0.26073   0.33652   0.00000  Uiso   1.00
C207   C     0.17195   0.19017   0.31109   0.00000  Uiso   1.00
H208   H     0.49000   0.15209   0.36921   0.00000  Uiso   1.00
H209   H     0.49545   0.13310   0.44533   0.00000  Uiso   1.00
H210   H     0.59881   0.23534   0.34081   0.00000  Uiso   1.00
H211   H     0.39774   0.06874   0.31981   0.00000  Uiso   1.00
H212   H     0.46686   0.14219   0.53236   0.00000  Uiso   1.00
H213   H     0.68479   0.35776   0.31195   0.00000  Uiso   1.00
H214   H     0.26080   0.00645   0.26766   0.00000  Uiso   1.00
H215   H     0.22293   0.38422   0.38942   0.00000  Uiso   1.00
H216   H     0.21372   0.37797   0.46666   0.00000  Uiso   1.00
H217   H     0.31709   0.48021   0.36213   0.00000  Uiso   1.00
H218   H     0.11602   0.31361   0.34113   0.00000  Uiso   1.00
H219   H     0.23820   0.34094   0.54966   0.00000  Uiso   1.00
H220   H     0.45613   0.55651   0.32925   0.00000  Uiso   1.00
H221   H     0.03214   0.20520   0.28496   0.00000  Uiso   1.00
O222   O     0.35131   0.23328   0.59146   0.00000  Uiso   1.00
O223   O     0.63723   0.51609   0.30228   0.00000  Uiso   1.00
O224   O     0.08096   0.05519   0.24417   0.00000  Uiso   1.00
N225   N     0.41429   0.18981   0.52583   0.00000  Uiso   1.00
N226   N     0.61805   0.39136   0.31976   0.00000  Uiso   1.00
N227   N     0.22166   0.06293   0.27835   0.00000  Uiso   1.00
N228   N     0.29125   0.29676   0.53514   0.00000  Uiso   1.00
N229   N     0.49501   0.49831   0.32908   0.00000  Uiso   1.00
N230   N     0.09862   0.16987   0.28766   0.00000  Uiso   1.00
C231   C     0.67921   0.92492   0.35726   0.00000  Uiso   1.00
C232   C     0.62870   0.94392   0.39871   0.00000  Uiso   1.00
C233   C     0.53019   0.96129   0.40570   0.00000  Uiso   1.00
C234   C     0.49817   0.97702   0.44582   0.00000  Uiso   1.00
C235   C     0.40997   0.00673   0.50532   0.00000  Uiso   1.00
C236   C     0.74996   0.84145   0.35701   0.00000  Uiso   1.00
C237   C     0.75340   0.77267   0.32893   0.00000  Uiso   1.00
C238   C     0.82347   0.70213   0.33395   0.00000  Uiso   1.00
C239   C     0.92357   0.57277   0.32869   0.00000  Uiso   1.00
C240   C     0.74006   0.98735   0.35636   0.00000  Uiso   1.00
C241   C     0.73520   0.04122   0.32773   0.00000  Uiso   1.00
C242   C     0.79695   0.09351   0.33220   0.00000  Uiso   1.00
C243   C     0.88168   0.19067   0.32594   0.00000  Uiso   1.00
C244   C     0.79753   0.92195   0.41607   0.00000  Uiso   1.00
C245   C     0.69297   0.94231   0.43065   0.00000  Uiso   1.00
C246   C     0.66109   0.95801   0.47077   0.00000  Uiso   1.00
C247   C     0.56255   0.97541   0.47782   0.00000  Uiso   1.00
C248   C     0.81422   0.83984   0.38895   0.00000  Uiso   1.00
C249   C     0.88431   0.76939   0.39401   0.00000  Uiso   1.00
C250   C     0.88786   0.70051   0.36595   0.00000  Uiso   1.00
C251   C     0.80432   0.98574   0.38830   0.00000  Uiso   1.00
C252   C     0.86610   0.03794   0.39281   0.00000  Uiso   1.00
C253   C     0.86133   0.09189   0.36420   0.00000  Uiso   1.00
H254   H     0.62918   0.92617   0.33238   0.00000  Uiso   1.00
H255   H     0.48048   0.96253   0.38097   0.00000  Uiso   1.00
H256   H     0.70367   0.77393   0.30421   0.00000  Uiso   1.00
H257   H     0.68546   0.04245   0.30302   0.00000  Uiso   1.00
H258   H     0.34396   0.00210   0.44892   0.00000  Uiso   1.00
H259   H     0.81458   0.60445   0.28707   0.00000  Uiso   1.00
H260   H     0.77619   0.17067   0.28455   0.00000  Uiso   1.00
H261   H     0.84756   0.92070   0.44094   0.00000  Uiso   1.00
H262   H     0.71084   0.95676   0.49549   0.00000  Uiso   1.00
H263   H     0.93403   0.76816   0.41873   0.00000  Uiso   1.00
H264   H     0.91582   0.03668   0.41753   0.00000  Uiso   1.00
H265   H     0.53093   0.99741   0.54187   0.00000  Uiso   1.00
H266   H     0.00156   0.59976   0.38002   0.00000  Uiso   1.00
H267   H     0.96317   0.16598   0.37750   0.00000  Uiso   1.00
O268   O     0.34356   0.02355   0.52932   0.00000  Uiso   1.00
O269   O     0.96102   0.50185   0.31697   0.00000  Uiso   1.00
O270   O     0.91065   0.24472   0.31366   0.00000  Uiso   1.00
N271   N     0.40672   0.99606   0.46331   0.00000  Uiso   1.00
N272   N     0.84672   0.62428   0.31200   0.00000  Uiso   1.00
N273   N     0.81085   0.15363   0.30963   0.00000  Uiso   1.00
N274   N     0.50733   0.99354   0.51333   0.00000  Uiso   1.00
N275   N     0.94733   0.62176   0.36201   0.00000  Uiso   1.00
N276   N     0.91145   0.15111   0.35964   0.00000  Uiso   1.00
C277   C     0.32068   0.06664   0.16560   0.00000  Uiso   1.00
C278   C     0.25414   0.07519   0.12962   0.00000  Uiso   1.00
C279   C     0.16253   0.06145   0.12826   0.00000  Uiso   1.00
C280   C     0.11318   0.07259   0.09256   0.00000  Uiso   1.00
C281   C     0.00361   0.08226   0.04174   0.00000  Uiso   1.00
C282   C     0.34604   0.14946   0.17558   0.00000  Uiso   1.00
C283   C     0.33172   0.19815   0.21287   0.00000  Uiso   1.00
C284   C     0.35976   0.27181   0.21586   0.00000  Uiso   1.00
C285   C     0.39294   0.39675   0.23640   0.00000  Uiso   1.00
C286   C     0.41344   0.00557   0.14980   0.00000  Uiso   1.00
C287   C     0.45581   0.93329   0.16542   0.00000  Uiso   1.00
C288   C     0.54060   0.88582   0.14671   0.00000  Uiso   1.00
C289   C     0.67843   0.78736   0.12722   0.00000  Uiso   1.00
C290   C     0.39594   0.11086   0.10461   0.00000  Uiso   1.00
C291   C     0.29501   0.09921   0.09650   0.00000  Uiso   1.00
C292   C     0.24579   0.11037   0.06079   0.00000  Uiso   1.00
C293   C     0.15413   0.09665   0.05937   0.00000  Uiso   1.00
C294   C     0.38691   0.17348   0.14246   0.00000  Uiso   1.00
C295   C     0.41498   0.24708   0.14539   0.00000  Uiso   1.00
C296   C     0.40070   0.29588   0.18267   0.00000  Uiso   1.00
C297   C     0.45432   0.02959   0.11668   0.00000  Uiso   1.00
C298   C     0.53906   0.98222   0.09794   0.00000  Uiso   1.00
C299   C     0.58155   0.90988   0.11352   0.00000  Uiso   1.00
H300   H     0.28886   0.04794   0.19139   0.00000  Uiso   1.00
H301   H     0.13092   0.04286   0.15390   0.00000  Uiso   1.00
H302   H     0.30010   0.17954   0.23850   0.00000  Uiso   1.00
H303   H     0.42416   0.91473   0.19105   0.00000  Uiso   1.00
H304   H     0.97383   0.04786   0.09774   0.00000  Uiso   1.00
H305   H     0.33057   0.33604   0.27611   0.00000  Uiso   1.00
H306   H     0.59218   0.77762   0.17607   0.00000  Uiso   1.00
H307   H     0.42776   0.12956   0.07883   0.00000  Uiso   1.00
H308   H     0.27744   0.12896   0.03516   0.00000  Uiso   1.00
H309   H     0.44661   0.26565   0.11975   0.00000  Uiso   1.00
H310   H     0.57067   0.00083   0.07231   0.00000  Uiso   1.00
H311   H     0.09274   0.11775   0.00137   0.00000  Uiso   1.00
H312   H     0.44949   0.40593   0.17974   0.00000  Uiso   1.00
H313   H     0.71110   0.84751   0.07969   0.00000  Uiso   1.00
O314   O     0.93188   0.08096   0.02286   0.00000  Uiso   1.00
O315   O     0.39994   0.45904   0.25689   0.00000  Uiso   1.00
O316   O     0.74315   0.72641   0.12562   0.00000  Uiso   1.00
N317   N     0.02245   0.06437   0.08105   0.00000  Uiso   1.00
N318   N     0.35597   0.33382   0.24781   0.00000  Uiso   1.00
N319   N     0.60057   0.81175   0.15429   0.00000  Uiso   1.00
N320   N     0.08644   0.10198   0.02919   0.00000  Uiso   1.00
N321   N     0.41996   0.37142   0.19596   0.00000  Uiso   1.00
N322   N     0.66456   0.84935   0.10243   0.00000  Uiso   1.00
C323   C     0.80262   0.17965   0.15291   0.00000  Uiso   1.00
C324   C     0.74295   0.23561   0.12473   0.00000  Uiso   1.00
C325   C     0.74529   0.22107   0.08275   0.00000  Uiso   1.00
C326   C     0.68520   0.27972   0.06246   0.00000  Uiso   1.00
C327   C     0.60167   0.35584   0.01551   0.00000  Uiso   1.00
C328   C     0.73098   0.15983   0.18136   0.00000  Uiso   1.00
C329   C     0.72326   0.08158   0.18699   0.00000  Uiso   1.00
C330   C     0.65310   0.07645   0.21437   0.00000  Uiso   1.00
C331   C     0.55104   0.03493   0.25536   0.00000  Uiso   1.00
C332   C     0.85794   0.23260   0.17911   0.00000  Uiso   1.00
C333   C     0.95698   0.21552   0.18286   0.00000  Uiso   1.00
C334   C     0.99371   0.27164   0.20836   0.00000  Uiso   1.00
C335   C     0.08877   0.34311   0.24585   0.00000  Uiso   1.00
C336   C     0.69175   0.30966   0.19153   0.00000  Uiso   1.00
C337   C     0.68273   0.30622   0.14571   0.00000  Uiso   1.00
C338   C     0.62262   0.36491   0.12548   0.00000  Uiso   1.00
C339   C     0.62487   0.35046   0.08347   0.00000  Uiso   1.00
C340   C     0.67076   0.23045   0.20234   0.00000  Uiso   1.00
C341   C     0.60059   0.22543   0.22972   0.00000  Uiso   1.00
C342   C     0.59277   0.14719   0.23538   0.00000  Uiso   1.00
C343   C     0.79772   0.30322   0.20009   0.00000  Uiso   1.00
C344   C     0.83431   0.35937   0.22559   0.00000  Uiso   1.00
C345   C     0.93338   0.34239   0.22937   0.00000  Uiso   1.00
H346   H     0.84950   0.12467   0.13658   0.00000  Uiso   1.00
H347   H     0.79189   0.16640   0.06653   0.00000  Uiso   1.00
H348   H     0.76988   0.02694   0.17075   0.00000  Uiso   1.00
H349   H     0.00355   0.16087   0.16662   0.00000  Uiso   1.00
H350   H     0.70145   0.24381   0.99811   0.00000  Uiso   1.00
H351   H     0.65505   0.94974   0.21788   0.00000  Uiso   1.00
H352   H     0.14780   0.23215   0.20918   0.00000  Uiso   1.00
H353   H     0.64486   0.36464   0.20787   0.00000  Uiso   1.00
H354   H     0.57603   0.41956   0.14172   0.00000  Uiso   1.00
H355   H     0.55401   0.28009   0.24595   0.00000  Uiso   1.00
H356   H     0.78768   0.41401   0.24181   0.00000  Uiso   1.00
H357   H     0.52623   0.44927   0.05914   0.00000  Uiso   1.00
H358   H     0.47984   0.15521   0.27891   0.00000  Uiso   1.00
H359   H     0.97259   0.43761   0.27020   0.00000  Uiso   1.00
O360   O     0.57223   0.37832   0.98382   0.00000  Uiso   1.00
O361   O     0.51137   0.99252   0.27217   0.00000  Uiso   1.00
O362   O     0.15784   0.36302   0.26074   0.00000  Uiso   1.00
N363   N     0.66967   0.28464   0.02155   0.00000  Uiso   1.00
N364   N     0.62628   0.00970   0.22702   0.00000  Uiso   1.00
N365   N     0.08696   0.27371   0.21889   0.00000  Uiso   1.00
N366   N     0.57539   0.39520   0.05439   0.00000  Uiso   1.00
N367   N     0.53200   0.12026   0.25986   0.00000  Uiso   1.00
N368   N     0.99268   0.38427   0.25173   0.00000  Uiso   1.00
C369   C     0.39274   0.62037   0.09372   0.00000  Uiso   1.00
C370   C     0.36278   0.53980   0.08260   0.00000  Uiso   1.00
C371   C     0.37193   0.49444   0.04448   0.00000  Uiso   1.00
C372   C     0.34028   0.42241   0.04052   0.00000  Uiso   1.00
C373   C     0.29979   0.30119   0.01824   0.00000  Uiso   1.00
C374   C     0.46258   0.60618   0.12835   0.00000  Uiso   1.00
C375   C     0.55564   0.61664   0.12868   0.00000  Uiso   1.00
C376   C     0.60800   0.60050   0.16323   0.00000  Uiso   1.00
C377   C     0.72243   0.58239   0.21199   0.00000  Uiso   1.00
C378   C     0.30320   0.68274   0.11185   0.00000  Uiso   1.00
C379   C     0.26227   0.75758   0.09832   0.00000  Uiso   1.00
C380   C     0.18046   0.80590   0.11898   0.00000  Uiso   1.00
C381   C     0.04743   0.90666   0.14212   0.00000  Uiso   1.00
C382   C     0.32027   0.57311   0.15449   0.00000  Uiso   1.00
C383   C     0.32342   0.51414   0.11561   0.00000  Uiso   1.00
C384   C     0.29174   0.44216   0.11171   0.00000  Uiso   1.00
C385   C     0.30084   0.39670   0.07358   0.00000  Uiso   1.00
C386   C     0.42322   0.58051   0.16135   0.00000  Uiso   1.00
C387   C     0.47546   0.56436   0.19591   0.00000  Uiso   1.00
C388   C     0.56857   0.57478   0.19630   0.00000  Uiso   1.00
C389   C     0.26384   0.65707   0.14486   0.00000  Uiso   1.00
C390   C     0.18208   0.70529   0.16555   0.00000  Uiso   1.00
C391   C     0.14102   0.78019   0.15205   0.00000  Uiso   1.00
H392   H     0.42339   0.64035   0.06802   0.00000  Uiso   1.00
H393   H     0.40240   0.51432   0.01894   0.00000  Uiso   1.00
H394   H     0.58608   0.63651   0.10313   0.00000  Uiso   1.00
H395   H     0.29275   0.77742   0.07277   0.00000  Uiso   1.00
H396   H     0.36181   0.36325   0.97908   0.00000  Uiso   1.00
H397   H     0.74909   0.62093   0.15662   0.00000  Uiso   1.00
H398   H     0.13054   0.91807   0.09260   0.00000  Uiso   1.00
H399   H     0.28962   0.55313   0.18019   0.00000  Uiso   1.00
H400   H     0.26128   0.42231   0.13726   0.00000  Uiso   1.00
H401   H     0.44497   0.54450   0.22145   0.00000  Uiso   1.00
H402   H     0.15164   0.68541   0.19109   0.00000  Uiso   1.00
H403   H     0.24727   0.28857   0.07512   0.00000  Uiso   1.00
H404   H     0.63456   0.54625   0.25265   0.00000  Uiso   1.00
H405   H     0.01601   0.84339   0.18863   0.00000  Uiso   1.00
O406   O     0.28835   0.24141   0.99684   0.00000  Uiso   1.00
O407   O     0.79643   0.57949   0.22976   0.00000  Uiso   1.00
O408   O     0.98492   0.96932   0.14576   0.00000  Uiso   1.00
N409   N     0.33872   0.36364   0.00758   0.00000  Uiso   1.00
N410   N     0.70081   0.60454   0.17355   0.00000  Uiso   1.00
N411   N     0.12254   0.88235   0.11371   0.00000  Uiso   1.00
N412   N     0.27709   0.32345   0.05925   0.00000  Uiso   1.00
N413   N     0.63918   0.56435   0.22523   0.00000  Uiso   1.00
N414   N     0.06091   0.84216   0.16538   0.00000  Uiso   1.00
C415   C     0.47306   0.38653   0.61669   0.00000  Uiso   1.00
C416   C     0.54169   0.36667   0.58007   0.00000  Uiso   1.00
C417   C     0.58029   0.28880   0.55976   0.00000  Uiso   1.00
C418   C     0.64166   0.28354   0.52697   0.00000  Uiso   1.00
C419   C     0.74493   0.24203   0.47195   0.00000  Uiso   1.00
C420   C     0.52075   0.43268   0.64988   0.00000  Uiso   1.00
C421   C     0.54174   0.41031   0.68827   0.00000  Uiso   1.00
C422   C     0.58547   0.46063   0.71425   0.00000  Uiso   1.00
C423   C     0.65616   0.52162   0.76763   0.00000  Uiso   1.00
C424   C     0.38440   0.44874   0.60496   0.00000  Uiso   1.00
C425   C     0.29073   0.43990   0.60559   0.00000  Uiso   1.00
C426   C     0.21966   0.50376   0.59377   0.00000  Uiso   1.00
C427   C     0.07865   0.58970   0.57740   0.00000  Uiso   1.00
C428   C     0.51340   0.51567   0.59459   0.00000  Uiso   1.00
C429   C     0.56360   0.43681   0.56807   0.00000  Uiso   1.00
C430   C     0.62492   0.43168   0.53530   0.00000  Uiso   1.00
C431   C     0.66361   0.35381   0.51494   0.00000  Uiso   1.00
C432   C     0.54266   0.50282   0.63788   0.00000  Uiso   1.00
C433   C     0.58637   0.55319   0.66382   0.00000  Uiso   1.00
C434   C     0.60742   0.53090   0.70223   0.00000  Uiso   1.00
C435   C     0.40631   0.51889   0.59296   0.00000  Uiso   1.00
C436   C     0.33537   0.58278   0.58114   0.00000  Uiso   1.00
C437   C     0.24161   0.57403   0.58174   0.00000  Uiso   1.00
H438   H     0.45601   0.33192   0.62603   0.00000  Uiso   1.00
H439   H     0.56333   0.23453   0.56906   0.00000  Uiso   1.00
H440   H     0.52476   0.35603   0.69755   0.00000  Uiso   1.00
H441   H     0.27380   0.38561   0.61488   0.00000  Uiso   1.00
H442   H     0.69200   0.15748   0.50060   0.00000  Uiso   1.00
H443   H     0.61066   0.41368   0.77154   0.00000  Uiso   1.00
H444   H     0.08146   0.47606   0.59722   0.00000  Uiso   1.00
H445   H     0.53046   0.57028   0.58524   0.00000  Uiso   1.00
H446   H     0.64187   0.48597   0.52602   0.00000  Uiso   1.00
H447   H     0.60331   0.60747   0.65452   0.00000  Uiso   1.00
H448   H     0.35235   0.63705   0.57185   0.00000  Uiso   1.00
H449   H     0.75575   0.36156   0.46568   0.00000  Uiso   1.00
H450   H     0.67441   0.61776   0.73661   0.00000  Uiso   1.00
H451   H     0.14521   0.68014   0.56229   0.00000  Uiso   1.00
O452   O     0.79585   0.19975   0.44493   0.00000  Uiso   1.00
O453   O     0.68911   0.53588   0.80039   0.00000  Uiso   1.00
O454   O     0.99482   0.61772   0.57168   0.00000  Uiso   1.00
N455   N     0.69170   0.21708   0.50050   0.00000  Uiso   1.00
N456   N     0.61567   0.45661   0.75381   0.00000  Uiso   1.00
N457   N     0.12090   0.51494   0.59085   0.00000  Uiso   1.00
N458   N     0.72600   0.32689   0.48171   0.00000  Uiso   1.00
N459   N     0.64997   0.56642   0.73502   0.00000  Uiso   1.00
N460   N     0.15521   0.62475   0.57205   0.00000  Uiso   1.00
C461   C     0.31916   0.88922   0.58696   0.00000  Uiso   1.00
C462   C     0.38102   0.83800   0.55143   0.00000  Uiso   1.00
C463   C     0.35939   0.83959   0.51079   0.00000  Uiso   1.00
C464   C     0.42526   0.78808   0.48290   0.00000  Uiso   1.00
C465   C     0.50844   0.71631   0.42586   0.00000  Uiso   1.00
C466   C     0.29975   0.82803   0.61392   0.00000  Uiso   1.00
C467   C     0.20979   0.82125   0.62582   0.00000  Uiso   1.00
C468   C     0.20726   0.76136   0.65053   0.00000  Uiso   1.00
C469   C     0.16427   0.67415   0.69053   0.00000  Uiso   1.00
C470   C     0.38324   0.93700   0.61111   0.00000  Uiso   1.00
C471   C     0.36347   0.02185   0.62066   0.00000  Uiso   1.00
C472   C     0.43122   0.05371   0.64302   0.00000  Uiso   1.00
C473   C     0.51786   0.13570   0.67865   0.00000  Uiso   1.00
C474   C     0.47462   0.79492   0.60970   0.00000  Uiso   1.00
C475   C     0.46546   0.78678   0.56379   0.00000  Uiso   1.00
C476   C     0.53138   0.73526   0.53595   0.00000  Uiso   1.00
C477   C     0.50985   0.73677   0.49528   0.00000  Uiso   1.00
C478   C     0.38419   0.77681   0.62627   0.00000  Uiso   1.00
C479   C     0.38179   0.71692   0.65098   0.00000  Uiso   1.00
C480   C     0.29185   0.71004   0.66291   0.00000  Uiso   1.00
C481   C     0.46768   0.88578   0.62346   0.00000  Uiso   1.00
C482   C     0.53547   0.91752   0.64581   0.00000  Uiso   1.00
C483   C     0.51581   0.00239   0.65539   0.00000  Uiso   1.00
H484   H     0.25342   0.92909   0.57734   0.00000  Uiso   1.00
H485   H     0.29403   0.87923   0.50125   0.00000  Uiso   1.00
H486   H     0.14446   0.86090   0.61626   0.00000  Uiso   1.00
H487   H     0.29812   0.06147   0.61109   0.00000  Uiso   1.00
H488   H     0.37627   0.80134   0.42233   0.00000  Uiso   1.00
H489   H     0.06090   0.76270   0.66484   0.00000  Uiso   1.00
H490   H     0.38491   0.18564   0.65396   0.00000  Uiso   1.00
H491   H     0.54036   0.75504   0.61932   0.00000  Uiso   1.00
H492   H     0.59672   0.69562   0.54552   0.00000  Uiso   1.00
H493   H     0.44715   0.67729   0.66053   0.00000  Uiso   1.00
H494   H     0.60080   0.87786   0.65537   0.00000  Uiso   1.00
H495   H     0.62194   0.65231   0.45826   0.00000  Uiso   1.00
H496   H     0.30657   0.61368   0.70078   0.00000  Uiso   1.00
H497   H     0.63058   0.03662   0.68989   0.00000  Uiso   1.00
O498   O     0.53099   0.69086   0.39099   0.00000  Uiso   1.00
O499   O     0.11723   0.64019   0.70917   0.00000  Uiso   1.00
O500   O     0.54233   0.19507   0.69489   0.00000  Uiso   1.00
N501   N     0.42636   0.77443   0.44091   0.00000  Uiso   1.00
N502   N     0.13151   0.73830   0.66765   0.00000  Uiso   1.00
N503   N     0.43442   0.13371   0.65748   0.00000  Uiso   1.00
N504   N     0.55856   0.69424   0.46025   0.00000  Uiso   1.00
N505   N     0.26371   0.65811   0.68698   0.00000  Uiso   1.00
N506   N     0.56662   0.05352   0.67681   0.00000  Uiso   1.00
C507   C     0.00540   0.30591   0.65741   0.00000  Uiso   1.00
C508   C     0.01617   0.26043   0.61451   0.00000  Uiso   1.00
C509   C     0.10116   0.21250   0.59621   0.00000  Uiso   1.00
C510   C     0.09600   0.17604   0.55675   0.00000  Uiso   1.00
C511   C     0.12598   0.10375   0.49323   0.00000  Uiso   1.00
C512   C     0.96054   0.39595   0.65324   0.00000  Uiso   1.00
C513   C     0.99874   0.46196   0.66752   0.00000  Uiso   1.00
C514   C     0.94673   0.53958   0.66068   0.00000  Uiso   1.00
C515   C     0.89030   0.67771   0.65733   0.00000  Uiso   1.00
C516   C     0.92965   0.27539   0.67876   0.00000  Uiso   1.00
C517   C     0.94187   0.24006   0.71449   0.00000  Uiso   1.00
C518   C     0.86385   0.21620   0.72914   0.00000  Uiso   1.00
C519   C     0.75945   0.16714   0.76540   0.00000  Uiso   1.00
C520   C     0.84511   0.32638   0.61988   0.00000  Uiso   1.00
C521   C     0.92911   0.27155   0.59412   0.00000  Uiso   1.00
C522   C     0.92381   0.23515   0.55469   0.00000  Uiso   1.00
C523   C     0.00878   0.18717   0.53633   0.00000  Uiso   1.00
C524   C     0.87347   0.40707   0.63286   0.00000  Uiso   1.00
C525   C     0.82139   0.48461   0.62600   0.00000  Uiso   1.00
C526   C     0.85951   0.55073   0.64026   0.00000  Uiso   1.00
C527   C     0.84258   0.28651   0.65837   0.00000  Uiso   1.00
C528   C     0.76452   0.26271   0.67297   0.00000  Uiso   1.00
C529   C     0.77662   0.22734   0.70872   0.00000  Uiso   1.00
H530   H     0.07319   0.29726   0.67328   0.00000  Uiso   1.00
H531   H     0.16853   0.20392   0.61199   0.00000  Uiso   1.00
H532   H     0.06611   0.45334   0.68330   0.00000  Uiso   1.00
H533   H     0.00926   0.23147   0.73026   0.00000  Uiso   1.00
H534   H     0.23584   0.10535   0.53505   0.00000  Uiso   1.00
H535   H     0.01988   0.63128   0.68542   0.00000  Uiso   1.00
H536   H     0.89998   0.16343   0.78444   0.00000  Uiso   1.00
H537   H     0.77732   0.33504   0.60401   0.00000  Uiso   1.00
H538   H     0.85642   0.24376   0.53892   0.00000  Uiso   1.00
H539   H     0.75401   0.49319   0.61023   0.00000  Uiso   1.00
H540   H     0.69715   0.27132   0.65719   0.00000  Uiso   1.00
H541   H     0.98253   0.13770   0.47574   0.00000  Uiso   1.00
H542   H     0.76657   0.66363   0.62611   0.00000  Uiso   1.00
H543   H     0.64667   0.19577   0.72514   0.00000  Uiso   1.00
O544   O     0.16657   0.06082   0.46382   0.00000  Uiso   1.00
O545   O     0.88323   0.75082   0.66111   0.00000  Uiso   1.00
O546   O     0.72593   0.13700   0.79102   0.00000  Uiso   1.00
N547   N     0.16536   0.12548   0.53003   0.00000  Uiso   1.00
N548   N     0.96346   0.61719   0.67061   0.00000  Uiso   1.00
N549   N     0.85136   0.17980   0.76319   0.00000  Uiso   1.00
N550   N     0.02906   0.14288   0.49811   0.00000  Uiso   1.00
N551   N     0.82716   0.63460   0.63869   0.00000  Uiso   1.00
N552   N     0.71505   0.19721   0.73128   0.00000  Uiso   1.00
