data_job_06887
_audit_creation_date              2018-12-19
_audit_creation_method            'Materials Studio'
_symmetry_space_group_name_H-M    'P1'
_symmetry_Int_Tables_number       1
_symmetry_cell_setting            triclinic
loop_
_symmetry_equiv_pos_as_xyz
  x,y,z
_cell_length_a                    22.6388
_cell_length_b                    26.6302
_cell_length_c                    27.8401
_cell_angle_alpha                 61.9710
_cell_angle_beta                  99.0884
_cell_angle_gamma                 95.2457
loop_
_atom_site_label
_atom_site_type_symbol
_atom_site_fract_x
_atom_site_fract_y
_atom_site_fract_z
_atom_site_U_iso_or_equiv
_atom_site_adp_type
_atom_site_occupancy
C1     C     0.86829   0.82970   0.54705   0.00000  Uiso   1.00
C2     C     0.85074   0.80115   0.60490   0.00000  Uiso   1.00
C3     C     0.80511   0.76090   0.62319   0.00000  Uiso   1.00
C4     C     0.79613   0.73992   0.67757   0.00000  Uiso   1.00
C5     C     0.76348   0.69278   0.76209   0.00000  Uiso   1.00
C6     C     0.86427   0.89355   0.52656   0.00000  Uiso   1.00
C7     C     0.83002   0.93100   0.47896   0.00000  Uiso   1.00
C8     C     0.83243   0.98781   0.46740   0.00000  Uiso   1.00
C9     C     0.82083   0.08413   0.43026   0.00000  Uiso   1.00
C10    C     0.93451   0.81790   0.55361   0.00000  Uiso   1.00
C11    C     0.95932   0.79176   0.52876   0.00000  Uiso   1.00
C12    C     0.02086   0.78489   0.53996   0.00000  Uiso   1.00
C13    C     0.11831   0.76375   0.54484   0.00000  Uiso   1.00
C14    C     0.93347   0.86400   0.61113   0.00000  Uiso   1.00
C15    C     0.88615   0.81978   0.63970   0.00000  Uiso   1.00
C16    C     0.87723   0.79885   0.69408   0.00000  Uiso   1.00
C17    C     0.83160   0.75858   0.71244   0.00000  Uiso   1.00
C18    C     0.89968   0.91219   0.56136   0.00000  Uiso   1.00
C19    C     0.90214   0.96895   0.54985   0.00000  Uiso   1.00
C20    C     0.86790   0.00647   0.50226   0.00000  Uiso   1.00
C21    C     0.96992   0.83654   0.58842   0.00000  Uiso   1.00
C22    C     0.03144   0.82971   0.59965   0.00000  Uiso   1.00
C23    C     0.05633   0.80355   0.57483   0.00000  Uiso   1.00
H24    H     0.84072   0.81520   0.51996   0.00000  Uiso   1.00
H25    H     0.77772   0.74650   0.59624   0.00000  Uiso   1.00
H26    H     0.80263   0.91657   0.45204   0.00000  Uiso   1.00
H27    H     0.93190   0.77735   0.50183   0.00000  Uiso   1.00
H28    H     0.72347   0.67856   0.69615   0.00000  Uiso   1.00
H29    H     0.77602   0.03717   0.39209   0.00000  Uiso   1.00
H30    H     0.04861   0.74359   0.49708   0.00000  Uiso   1.00
H31    H     0.96104   0.87851   0.63822   0.00000  Uiso   1.00
H32    H     0.90464   0.81328   0.72100   0.00000  Uiso   1.00
H33    H     0.92955   0.98336   0.57680   0.00000  Uiso   1.00
H34    H     0.05882   0.84413   0.62659   0.00000  Uiso   1.00
H35    H     0.82648   0.73277   0.79741   0.00000  Uiso   1.00
H36    H     0.87903   0.09138   0.49334   0.00000  Uiso   1.00
H37    H     0.15162   0.79780   0.59834   0.00000  Uiso   1.00
O38    O     0.73569   0.66163   0.79910   0.00000  Uiso   1.00
O39    O     0.80464   0.13211   0.40017   0.00000  Uiso   1.00
O40    O     0.16228   0.74694   0.53792   0.00000  Uiso   1.00
N41    N     0.75546   0.70027   0.70863   0.00000  Uiso   1.00
N42    N     0.80458   0.03554   0.42435   0.00000  Uiso   1.00
N43    N     0.05944   0.76108   0.52250   0.00000  Uiso   1.00
N44    N     0.81089   0.72943   0.76312   0.00000  Uiso   1.00
N45    N     0.86001   0.06471   0.47884   0.00000  Uiso   1.00
N46    N     0.11487   0.79025   0.57699   0.00000  Uiso   1.00
C47    C     0.87329   0.57745   0.57339   0.00000  Uiso   1.00
C48    C     0.84776   0.63574   0.53307   0.00000  Uiso   1.00
C49    C     0.80099   0.66086   0.54013   0.00000  Uiso   1.00
C50    C     0.78423   0.71441   0.49850   0.00000  Uiso   1.00
C51    C     0.74015   0.80074   0.44301   0.00000  Uiso   1.00
C52    C     0.86877   0.54372   0.54128   0.00000  Uiso   1.00
C53    C     0.83967   0.49147   0.55524   0.00000  Uiso   1.00
C54    C     0.84061   0.46756   0.52052   0.00000  Uiso   1.00
C55    C     0.82919   0.41102   0.47780   0.00000  Uiso   1.00
C56    C     0.93993   0.58744   0.58656   0.00000  Uiso   1.00
C57    C     0.97068   0.57193   0.63861   0.00000  Uiso   1.00
C58    C     0.03154   0.58481   0.64202   0.00000  Uiso   1.00
C59    C     0.13062   0.59614   0.66961   0.00000  Uiso   1.00
C60    C     0.92670   0.62789   0.48690   0.00000  Uiso   1.00
C61    C     0.87677   0.66314   0.48609   0.00000  Uiso   1.00
C62    C     0.86008   0.71666   0.44443   0.00000  Uiso   1.00
C63    C     0.81329   0.74186   0.45143   0.00000  Uiso   1.00
C64    C     0.89778   0.57112   0.49430   0.00000  Uiso   1.00
C65    C     0.89876   0.54728   0.45955   0.00000  Uiso   1.00
C66    C     0.86967   0.49501   0.47345   0.00000  Uiso   1.00
C67    C     0.96895   0.61484   0.53958   0.00000  Uiso   1.00
C68    C     0.02977   0.62774   0.54291   0.00000  Uiso   1.00
C69    C     0.06060   0.61225   0.59495   0.00000  Uiso   1.00
H70    H     0.85070   0.55611   0.60997   0.00000  Uiso   1.00
H71    H     0.77854   0.63964   0.57649   0.00000  Uiso   1.00
H72    H     0.81723   0.47028   0.59160   0.00000  Uiso   1.00
H73    H     0.94822   0.55073   0.67495   0.00000  Uiso   1.00
H74    H     0.71132   0.74431   0.51864   0.00000  Uiso   1.00
H75    H     0.79291   0.38720   0.55052   0.00000  Uiso   1.00
H76    H     0.06912   0.55684   0.72629   0.00000  Uiso   1.00
H77    H     0.94928   0.64922   0.45032   0.00000  Uiso   1.00
H78    H     0.88254   0.73786   0.40808   0.00000  Uiso   1.00
H79    H     0.92122   0.56849   0.42320   0.00000  Uiso   1.00
H80    H     0.05221   0.64894   0.50655   0.00000  Uiso   1.00
H81    H     0.79572   0.82403   0.38196   0.00000  Uiso   1.00
H82    H     0.87731   0.46692   0.41384   0.00000  Uiso   1.00
H83    H     0.15352   0.63655   0.58960   0.00000  Uiso   1.00
O84    O     0.70782   0.84079   0.42539   0.00000  Uiso   1.00
O85    O     0.81487   0.37227   0.46722   0.00000  Uiso   1.00
O86    O     0.17725   0.59483   0.69781   0.00000  Uiso   1.00
N87    N     0.74035   0.75092   0.49228   0.00000  Uiso   1.00
N88    N     0.81662   0.41704   0.52208   0.00000  Uiso   1.00
N89    N     0.07486   0.57562   0.68640   0.00000  Uiso   1.00
N90    N     0.78577   0.79381   0.41873   0.00000  Uiso   1.00
N91    N     0.86204   0.45994   0.44853   0.00000  Uiso   1.00
N92    N     0.12028   0.61852   0.61285   0.00000  Uiso   1.00
C93    C     0.89432   0.59118   0.79582   0.00000  Uiso   1.00
C94    C     0.87859   0.54490   0.77809   0.00000  Uiso   1.00
C95    C     0.83032   0.54518   0.74042   0.00000  Uiso   1.00
C96    C     0.82365   0.49887   0.72977   0.00000  Uiso   1.00
C97    C     0.79309   0.43383   0.69828   0.00000  Uiso   1.00
C98    C     0.89669   0.56155   0.85811   0.00000  Uiso   1.00
C99    C     0.86365   0.57585   0.88773   0.00000  Uiso   1.00
C100   C     0.87221   0.54356   0.94444   0.00000  Uiso   1.00
C101   C     0.86980   0.50441   0.03720   0.00000  Uiso   1.00
C102   C     0.95836   0.61036   0.78420   0.00000  Uiso   1.00
C103   C     0.97718   0.66570   0.75168   0.00000  Uiso   1.00
C104   C     0.03768   0.67451   0.74617   0.00000  Uiso   1.00
C105   C     0.13101   0.71114   0.72417   0.00000  Uiso   1.00
C106   C     0.96829   0.50842   0.84389   0.00000  Uiso   1.00
C107   C     0.91877   0.49994   0.80420   0.00000  Uiso   1.00
C108   C     0.91216   0.45361   0.79360   0.00000  Uiso   1.00
C109   C     0.86390   0.45383   0.75592   0.00000  Uiso   1.00
C110   C     0.93687   0.51660   0.88422   0.00000  Uiso   1.00
C111   C     0.94549   0.48429   0.94091   0.00000  Uiso   1.00
C112   C     0.91246   0.49853   0.97060   0.00000  Uiso   1.00
C113   C     0.99854   0.56541   0.81031   0.00000  Uiso   1.00
C114   C     0.05902   0.57413   0.80486   0.00000  Uiso   1.00
C115   C     0.07793   0.62947   0.77233   0.00000  Uiso   1.00
H116   H     0.86304   0.62617   0.77550   0.00000  Uiso   1.00
H117   H     0.79924   0.57998   0.72023   0.00000  Uiso   1.00
H118   H     0.83256   0.61064   0.86751   0.00000  Uiso   1.00
H119   H     0.94608   0.70048   0.73148   0.00000  Uiso   1.00
H120   H     0.74621   0.50892   0.67048   0.00000  Uiso   1.00
H121   H     0.81649   0.57360   0.98103   0.00000  Uiso   1.00
H122   H     0.05586   0.76303   0.69419   0.00000  Uiso   1.00
H123   H     0.99957   0.47342   0.86422   0.00000  Uiso   1.00
H124   H     0.94326   0.41883   0.81381   0.00000  Uiso   1.00
H125   H     0.97659   0.44950   0.96110   0.00000  Uiso   1.00
H126   H     0.09010   0.53934   0.82507   0.00000  Uiso   1.00
H127   H     0.86310   0.37813   0.74644   0.00000  Uiso   1.00
H128   H     0.93339   0.44281   0.05699   0.00000  Uiso   1.00
H129   H     0.17275   0.63224   0.77015   0.00000  Uiso   1.00
O130   O     0.76514   0.41037   0.67371   0.00000  Uiso   1.00
O131   O     0.85735   0.49524   0.08115   0.00000  Uiso   1.00
O132   O     0.17140   0.74376   0.70482   0.00000  Uiso   1.00
N133   N     0.78145   0.48564   0.69526   0.00000  Uiso   1.00
N134   N     0.84716   0.54610   0.98562   0.00000  Uiso   1.00
N135   N     0.07095   0.72321   0.71746   0.00000  Uiso   1.00
N136   N     0.84436   0.41526   0.73613   0.00000  Uiso   1.00
N137   N     0.91006   0.47573   0.02649   0.00000  Uiso   1.00
N138   N     0.13385   0.65283   0.75833   0.00000  Uiso   1.00
C139   C     0.37181   0.58693   0.56248   0.00000  Uiso   1.00
C140   C     0.35481   0.54847   0.61973   0.00000  Uiso   1.00
C141   C     0.30921   0.55800   0.64227   0.00000  Uiso   1.00
C142   C     0.30075   0.51777   0.69527   0.00000  Uiso   1.00
C143   C     0.26887   0.46534   0.77970   0.00000  Uiso   1.00
C144   C     0.36798   0.54956   0.53407   0.00000  Uiso   1.00
C145   C     0.33345   0.56001   0.48457   0.00000  Uiso   1.00
C146   C     0.33610   0.52070   0.46546   0.00000  Uiso   1.00
C147   C     0.32470   0.46999   0.41687   0.00000  Uiso   1.00
C148   C     0.43793   0.60217   0.57067   0.00000  Uiso   1.00
C149   C     0.46222   0.65686   0.55193   0.00000  Uiso   1.00
C150   C     0.52376   0.66185   0.56362   0.00000  Uiso   1.00
C151   C     0.62096   0.69282   0.57186   0.00000  Uiso   1.00
C152   C     0.43789   0.49853   0.61653   0.00000  Uiso   1.00
C153   C     0.39070   0.50045   0.64909   0.00000  Uiso   1.00
C154   C     0.38232   0.46020   0.70208   0.00000  Uiso   1.00
C155   C     0.33671   0.46967   0.72468   0.00000  Uiso   1.00
C156   C     0.40387   0.50155   0.56343   0.00000  Uiso   1.00
C157   C     0.40656   0.46221   0.54438   0.00000  Uiso   1.00
C158   C     0.37205   0.47260   0.49487   0.00000  Uiso   1.00
C159   C     0.47382   0.55416   0.60003   0.00000  Uiso   1.00
C160   C     0.53533   0.55906   0.61175   0.00000  Uiso   1.00
C161   C     0.55972   0.61375   0.59304   0.00000  Uiso   1.00
H162   H     0.34387   0.62431   0.53962   0.00000  Uiso   1.00
H163   H     0.28144   0.59516   0.61953   0.00000  Uiso   1.00
H164   H     0.30569   0.59718   0.46186   0.00000  Uiso   1.00
H165   H     0.43443   0.69401   0.52921   0.00000  Uiso   1.00
H166   H     0.22803   0.54166   0.72107   0.00000  Uiso   1.00
H167   H     0.27919   0.54592   0.38860   0.00000  Uiso   1.00
H168   H     0.55067   0.75011   0.53063   0.00000  Uiso   1.00
H169   H     0.46584   0.46114   0.63939   0.00000  Uiso   1.00
H170   H     0.41010   0.42305   0.72479   0.00000  Uiso   1.00
H171   H     0.43435   0.42506   0.56711   0.00000  Uiso   1.00
H172   H     0.56309   0.52189   0.63447   0.00000  Uiso   1.00
H173   H     0.33246   0.40197   0.80650   0.00000  Uiso   1.00
H174   H     0.38361   0.40623   0.47403   0.00000  Uiso   1.00
H175   H     0.65510   0.61042   0.61606   0.00000  Uiso   1.00
O176   O     0.24137   0.44969   0.81815   0.00000  Uiso   1.00
O177   O     0.30848   0.45528   0.38196   0.00000  Uiso   1.00
O178   O     0.66467   0.72317   0.56831   0.00000  Uiso   1.00
N179   N     0.26027   0.51402   0.72946   0.00000  Uiso   1.00
N180   N     0.30808   0.51800   0.41863   0.00000  Uiso   1.00
N181   N     0.56190   0.70890   0.55140   0.00000  Uiso   1.00
N182   N     0.31646   0.43885   0.77543   0.00000  Uiso   1.00
N183   N     0.36427   0.44283   0.46460   0.00000  Uiso   1.00
N184   N     0.61809   0.63373   0.59737   0.00000  Uiso   1.00
C185   C     0.36365   0.83934   0.55652   0.00000  Uiso   1.00
C186   C     0.35002   0.81191   0.51858   0.00000  Uiso   1.00
C187   C     0.30502   0.77182   0.52177   0.00000  Uiso   1.00
C188   C     0.29982   0.75193   0.48324   0.00000  Uiso   1.00
C189   C     0.27278   0.70640   0.43042   0.00000  Uiso   1.00
C190   C     0.36028   0.90339   0.51939   0.00000  Uiso   1.00
C191   C     0.32392   0.94021   0.52328   0.00000  Uiso   1.00
C192   C     0.32736   0.99732   0.48544   0.00000  Uiso   1.00
C193   C     0.31629   0.09381   0.43392   0.00000  Uiso   1.00
C194   C     0.42916   0.82737   0.58081   0.00000  Uiso   1.00
C195   C     0.45071   0.80028   0.63633   0.00000  Uiso   1.00
C196   C     0.51216   0.79341   0.65020   0.00000  Uiso   1.00
C197   C     0.60803   0.77186   0.69404   0.00000  Uiso   1.00
C198   C     0.43443   0.87530   0.48242   0.00000  Uiso   1.00
C199   C     0.38846   0.83145   0.47833   0.00000  Uiso   1.00
C200   C     0.38333   0.81162   0.43978   0.00000  Uiso   1.00
C201   C     0.33834   0.77150   0.44292   0.00000  Uiso   1.00
C202   C     0.39872   0.92292   0.47914   0.00000  Uiso   1.00
C203   C     0.40223   0.98000   0.44129   0.00000  Uiso   1.00
C204   C     0.36588   0.01690   0.44511   0.00000  Uiso   1.00
C205   C     0.46760   0.84690   0.54056   0.00000  Uiso   1.00
C206   C     0.52903   0.84007   0.55434   0.00000  Uiso   1.00
C207   C     0.55067   0.81298   0.60988   0.00000  Uiso   1.00
H208   H     0.33372   0.82413   0.58785   0.00000  Uiso   1.00
H209   H     0.27527   0.75672   0.55292   0.00000  Uiso   1.00
H210   H     0.29417   0.92508   0.55443   0.00000  Uiso   1.00
H211   H     0.42095   0.78517   0.66746   0.00000  Uiso   1.00
H212   H     0.22741   0.69061   0.49642   0.00000  Uiso   1.00
H213   H     0.26728   0.04560   0.49962   0.00000  Uiso   1.00
H214   H     0.53462   0.75058   0.73798   0.00000  Uiso   1.00
H215   H     0.46437   0.89052   0.45108   0.00000  Uiso   1.00
H216   H     0.41309   0.82674   0.40864   0.00000  Uiso   1.00
H217   H     0.43199   0.99510   0.41015   0.00000  Uiso   1.00
H218   H     0.55876   0.85520   0.52319   0.00000  Uiso   1.00
H219   H     0.33927   0.74745   0.37932   0.00000  Uiso   1.00
H220   H     0.37914   0.10244   0.38252   0.00000  Uiso   1.00
H221   H     0.64647   0.80742   0.62088   0.00000  Uiso   1.00
O222   O     0.24724   0.67589   0.41241   0.00000  Uiso   1.00
O223   O     0.29956   0.14163   0.41662   0.00000  Uiso   1.00
O224   O     0.65029   0.75457   0.72934   0.00000  Uiso   1.00
N225   N     0.26078   0.71273   0.47469   0.00000  Uiso   1.00
N226   N     0.29805   0.04463   0.47768   0.00000  Uiso   1.00
N227   N     0.54799   0.76882   0.70053   0.00000  Uiso   1.00
N228   N     0.32097   0.74331   0.41168   0.00000  Uiso   1.00
N229   N     0.35824   0.07521   0.41467   0.00000  Uiso   1.00
N230   N     0.60818   0.79941   0.63752   0.00000  Uiso   1.00
C231   C     0.36942   0.64035   0.76761   0.00000  Uiso   1.00
C232   C     0.35955   0.70009   0.75891   0.00000  Uiso   1.00
C233   C     0.31985   0.73915   0.71782   0.00000  Uiso   1.00
C234   C     0.31742   0.79153   0.71684   0.00000  Uiso   1.00
C235   C     0.29661   0.88234   0.69746   0.00000  Uiso   1.00
C236   C     0.35806   0.59995   0.82633   0.00000  Uiso   1.00
C237   C     0.31712   0.55480   0.84192   0.00000  Uiso   1.00
C238   C     0.31344   0.52288   0.89769   0.00000  Uiso   1.00
C239   C     0.29034   0.45818   0.98298   0.00000  Uiso   1.00
C240   C     0.43606   0.63718   0.76646   0.00000  Uiso   1.00
C241   C     0.46070   0.62331   0.73173   0.00000  Uiso   1.00
C242   C     0.52269   0.62272   0.73711   0.00000  Uiso   1.00
C243   C     0.62069   0.61583   0.72945   0.00000  Uiso   1.00
C244   C     0.43570   0.66394   0.83893   0.00000  Uiso   1.00
C245   C     0.39555   0.71290   0.79765   0.00000  Uiso   1.00
C246   C     0.39319   0.76525   0.79673   0.00000  Uiso   1.00
C247   C     0.35349   0.80437   0.75564   0.00000  Uiso   1.00
C248   C     0.39406   0.61276   0.86507   0.00000  Uiso   1.00
C249   C     0.39045   0.58090   0.92083   0.00000  Uiso   1.00
C250   C     0.34951   0.53571   0.93650   0.00000  Uiso   1.00
C251   C     0.47206   0.64999   0.80520   0.00000  Uiso   1.00
C252   C     0.53403   0.64942   0.81064   0.00000  Uiso   1.00
C253   C     0.55876   0.63556   0.77592   0.00000  Uiso   1.00
H254   H     0.34139   0.63037   0.73745   0.00000  Uiso   1.00
H255   H     0.29199   0.72921   0.68785   0.00000  Uiso   1.00
H256   H     0.28927   0.54489   0.81193   0.00000  Uiso   1.00
H257   H     0.43282   0.61340   0.70176   0.00000  Uiso   1.00
H258   H     0.25310   0.84444   0.64996   0.00000  Uiso   1.00
H259   H     0.24736   0.45577   0.91159   0.00000  Uiso   1.00
H260   H     0.55007   0.60023   0.67927   0.00000  Uiso   1.00
H261   H     0.46373   0.67391   0.86909   0.00000  Uiso   1.00
H262   H     0.42105   0.77515   0.82671   0.00000  Uiso   1.00
H263   H     0.41832   0.59082   0.95080   0.00000  Uiso   1.00
H264   H     0.56188   0.65933   0.84062   0.00000  Uiso   1.00
H265   H     0.35784   0.88172   0.76266   0.00000  Uiso   1.00
H266   H     0.35210   0.49305   0.02430   0.00000  Uiso   1.00
H267   H     0.65482   0.63751   0.79198   0.00000  Uiso   1.00
O268   O     0.27517   0.92888   0.67607   0.00000  Uiso   1.00
O269   O     0.26765   0.41895   0.01932   0.00000  Uiso   1.00
O270   O     0.66480   0.60849   0.71452   0.00000  Uiso   1.00
N271   N     0.28361   0.83932   0.68229   0.00000  Uiso   1.00
N272   N     0.27824   0.47595   0.92691   0.00000  Uiso   1.00
N273   N     0.56125   0.61099   0.70971   0.00000  Uiso   1.00
N274   N     0.33998   0.85938   0.74294   0.00000  Uiso   1.00
N275   N     0.33460   0.49601   0.98755   0.00000  Uiso   1.00
N276   N     0.61762   0.63105   0.77036   0.00000  Uiso   1.00
C277   C     0.13171   0.17030   0.45295   0.00000  Uiso   1.00
C278   C     0.14926   0.19885   0.39510   0.00000  Uiso   1.00
C279   C     0.19489   0.23910   0.37681   0.00000  Uiso   1.00
C280   C     0.20387   0.26008   0.32243   0.00000  Uiso   1.00
C281   C     0.23652   0.30722   0.23791   0.00000  Uiso   1.00
C282   C     0.13573   0.10645   0.47344   0.00000  Uiso   1.00
C283   C     0.16998   0.06900   0.52104   0.00000  Uiso   1.00
C284   C     0.16757   0.01219   0.53260   0.00000  Uiso   1.00
C285   C     0.17917   0.91587   0.56974   0.00000  Uiso   1.00
C286   C     0.06549   0.18210   0.44639   0.00000  Uiso   1.00
C287   C     0.04068   0.20824   0.47124   0.00000  Uiso   1.00
C288   C     0.97914   0.21511   0.46004   0.00000  Uiso   1.00
C289   C     0.88169   0.23625   0.45516   0.00000  Uiso   1.00
C290   C     0.06653   0.13600   0.38887   0.00000  Uiso   1.00
C291   C     0.11385   0.18022   0.36030   0.00000  Uiso   1.00
C292   C     0.12277   0.20115   0.30592   0.00000  Uiso   1.00
C293   C     0.16840   0.24142   0.28756   0.00000  Uiso   1.00
C294   C     0.10032   0.08781   0.43864   0.00000  Uiso   1.00
C295   C     0.09786   0.03105   0.45015   0.00000  Uiso   1.00
C296   C     0.13210   0.99353   0.49774   0.00000  Uiso   1.00
C297   C     0.03008   0.16346   0.41158   0.00000  Uiso   1.00
C298   C     0.96856   0.17029   0.40035   0.00000  Uiso   1.00
C299   C     0.94367   0.19645   0.42517   0.00000  Uiso   1.00
H300   H     0.15928   0.18480   0.48004   0.00000  Uiso   1.00
H301   H     0.22228   0.25350   0.40376   0.00000  Uiso   1.00
H302   H     0.19737   0.08343   0.54796   0.00000  Uiso   1.00
H303   H     0.06810   0.22265   0.49817   0.00000  Uiso   1.00
H304   H     0.27653   0.32144   0.30385   0.00000  Uiso   1.00
H305   H     0.22398   0.96283   0.60791   0.00000  Uiso   1.00
H306   H     0.95139   0.25641   0.50292   0.00000  Uiso   1.00
H307   H     0.03896   0.12149   0.36178   0.00000  Uiso   1.00
H308   H     0.09536   0.18672   0.27900   0.00000  Uiso   1.00
H309   H     0.07045   0.01664   0.42320   0.00000  Uiso   1.00
H310   H     0.94118   0.15587   0.37341   0.00000  Uiso   1.00
H311   H     0.17352   0.26723   0.20259   0.00000  Uiso   1.00
H312   H     0.12097   0.90862   0.50666   0.00000  Uiso   1.00
H313   H     0.84838   0.20220   0.40166   0.00000  Uiso   1.00
O314   O     0.26431   0.33837   0.20090   0.00000  Uiso   1.00
O315   O     0.19536   0.86789   0.59983   0.00000  Uiso   1.00
O316   O     0.83772   0.25306   0.46208   0.00000  Uiso   1.00
N317   N     0.24454   0.29973   0.29137   0.00000  Uiso   1.00
N318   N     0.19542   0.96446   0.57565   0.00000  Uiso   1.00
N319   N     0.94056   0.23892   0.47750   0.00000  Uiso   1.00
N320   N     0.18911   0.27057   0.23688   0.00000  Uiso   1.00
N321   N     0.13999   0.93529   0.52116   0.00000  Uiso   1.00
N322   N     0.88513   0.20975   0.42301   0.00000  Uiso   1.00
C323   C     0.12671   0.42255   0.42661   0.00000  Uiso   1.00
C324   C     0.15224   0.36426   0.46693   0.00000  Uiso   1.00
C325   C     0.19901   0.33914   0.45987   0.00000  Uiso   1.00
C326   C     0.21577   0.28559   0.50150   0.00000  Uiso   1.00
C327   C     0.25985   0.19926   0.55699   0.00000  Uiso   1.00
C328   C     0.13123   0.45628   0.45872   0.00000  Uiso   1.00
C329   C     0.16033   0.50853   0.44476   0.00000  Uiso   1.00
C330   C     0.15939   0.53244   0.47948   0.00000  Uiso   1.00
C331   C     0.17081   0.58898   0.52220   0.00000  Uiso   1.00
C332   C     0.06007   0.41256   0.41344   0.00000  Uiso   1.00
C333   C     0.02932   0.42807   0.36139   0.00000  Uiso   1.00
C334   C     0.96846   0.41519   0.35798   0.00000  Uiso   1.00
C335   C     0.86938   0.40386   0.33039   0.00000  Uiso   1.00
C336   C     0.07330   0.37211   0.51310   0.00000  Uiso   1.00
C337   C     0.12323   0.33686   0.51391   0.00000  Uiso   1.00
C338   C     0.13992   0.28334   0.55557   0.00000  Uiso   1.00
C339   C     0.18671   0.25814   0.54857   0.00000  Uiso   1.00
C340   C     0.10222   0.42888   0.50570   0.00000  Uiso   1.00
C341   C     0.10124   0.45272   0.54045   0.00000  Uiso   1.00
C342   C     0.13033   0.50499   0.52655   0.00000  Uiso   1.00
C343   C     0.03105   0.38516   0.46042   0.00000  Uiso   1.00
C344   C     0.97023   0.37226   0.45709   0.00000  Uiso   1.00
C345   C     0.93940   0.38775   0.40505   0.00000  Uiso   1.00
H346   H     0.14930   0.44389   0.39003   0.00000  Uiso   1.00
H347   H     0.22146   0.36036   0.42351   0.00000  Uiso   1.00
H348   H     0.18277   0.52972   0.40840   0.00000  Uiso   1.00
H349   H     0.05178   0.44927   0.32505   0.00000  Uiso   1.00
H350   H     0.28868   0.25569   0.48136   0.00000  Uiso   1.00
H351   H     0.20709   0.61280   0.44948   0.00000  Uiso   1.00
H352   H     0.93088   0.44316   0.27371   0.00000  Uiso   1.00
H353   H     0.05072   0.35078   0.54968   0.00000  Uiso   1.00
H354   H     0.11746   0.26214   0.59192   0.00000  Uiso   1.00
H355   H     0.07878   0.43151   0.57680   0.00000  Uiso   1.00
H356   H     0.94779   0.35106   0.49345   0.00000  Uiso   1.00
H357   H     0.20428   0.17597   0.61804   0.00000  Uiso   1.00
H358   H     0.12269   0.53308   0.58616   0.00000  Uiso   1.00
H359   H     0.84648   0.36345   0.41040   0.00000  Uiso   1.00
O360   O     0.29218   0.15921   0.57461   0.00000  Uiso   1.00
O361   O     0.18513   0.62773   0.53278   0.00000  Uiso   1.00
O362   O     0.82275   0.40517   0.30219   0.00000  Uiso   1.00
N363   N     0.25965   0.24908   0.50772   0.00000  Uiso   1.00
N364   N     0.18338   0.58296   0.47792   0.00000  Uiso   1.00
N365   N     0.92514   0.42438   0.31360   0.00000  Uiso   1.00
N366   N     0.21423   0.20619   0.58127   0.00000  Uiso   1.00
N367   N     0.13796   0.54006   0.55147   0.00000  Uiso   1.00
N368   N     0.87972   0.38148   0.38715   0.00000  Uiso   1.00
C369   C     0.10568   0.40882   0.20418   0.00000  Uiso   1.00
C370   C     0.12141   0.45510   0.22191   0.00000  Uiso   1.00
C371   C     0.16968   0.45482   0.25958   0.00000  Uiso   1.00
C372   C     0.17635   0.50113   0.27023   0.00000  Uiso   1.00
C373   C     0.20691   0.56617   0.30172   0.00000  Uiso   1.00
C374   C     0.10331   0.43845   0.14189   0.00000  Uiso   1.00
C375   C     0.13635   0.42415   0.11227   0.00000  Uiso   1.00
C376   C     0.12779   0.45644   0.05556   0.00000  Uiso   1.00
C377   C     0.13020   0.49559   0.96280   0.00000  Uiso   1.00
C378   C     0.04164   0.38964   0.21580   0.00000  Uiso   1.00
C379   C     0.02282   0.33430   0.24832   0.00000  Uiso   1.00
C380   C     0.96232   0.32549   0.25383   0.00000  Uiso   1.00
C381   C     0.86899   0.28886   0.27583   0.00000  Uiso   1.00
C382   C     0.03171   0.49158   0.15611   0.00000  Uiso   1.00
C383   C     0.08123   0.50006   0.19580   0.00000  Uiso   1.00
C384   C     0.08784   0.54639   0.20640   0.00000  Uiso   1.00
C385   C     0.13610   0.54617   0.24408   0.00000  Uiso   1.00
C386   C     0.06313   0.48340   0.11578   0.00000  Uiso   1.00
C387   C     0.05451   0.51571   0.05909   0.00000  Uiso   1.00
C388   C     0.08754   0.50147   0.02940   0.00000  Uiso   1.00
C389   C     0.00146   0.43459   0.18969   0.00000  Uiso   1.00
C390   C     0.94098   0.42587   0.19514   0.00000  Uiso   1.00
C391   C     0.92207   0.37053   0.22767   0.00000  Uiso   1.00
H392   H     0.13696   0.37383   0.22450   0.00000  Uiso   1.00
H393   H     0.20076   0.42002   0.27977   0.00000  Uiso   1.00
H394   H     0.16744   0.38936   0.13249   0.00000  Uiso   1.00
H395   H     0.05392   0.29952   0.26852   0.00000  Uiso   1.00
H396   H     0.25379   0.49108   0.32952   0.00000  Uiso   1.00
H397   H     0.18351   0.42640   0.01897   0.00000  Uiso   1.00
H398   H     0.94414   0.23697   0.30581   0.00000  Uiso   1.00
H399   H     0.00043   0.52658   0.13578   0.00000  Uiso   1.00
H400   H     0.05674   0.58117   0.18619   0.00000  Uiso   1.00
H401   H     0.02341   0.55050   0.03890   0.00000  Uiso   1.00
H402   H     0.90990   0.46066   0.17493   0.00000  Uiso   1.00
H403   H     0.13690   0.62187   0.25356   0.00000  Uiso   1.00
H404   H     0.06661   0.55719   0.94301   0.00000  Uiso   1.00
H405   H     0.82725   0.36776   0.22985   0.00000  Uiso   1.00
O406   O     0.23486   0.58963   0.32629   0.00000  Uiso   1.00
O407   O     0.14265   0.50476   0.91885   0.00000  Uiso   1.00
O408   O     0.82860   0.25624   0.29518   0.00000  Uiso   1.00
N409   N     0.21855   0.51436   0.30474   0.00000  Uiso   1.00
N410   N     0.15284   0.45390   0.01438   0.00000  Uiso   1.00
N411   N     0.92905   0.27679   0.28254   0.00000  Uiso   1.00
N412   N     0.15564   0.58474   0.26387   0.00000  Uiso   1.00
N413   N     0.08994   0.52427   0.97351   0.00000  Uiso   1.00
N414   N     0.86615   0.34717   0.24167   0.00000  Uiso   1.00
C415   C     0.62819   0.41307   0.43752   0.00000  Uiso   1.00
C416   C     0.64519   0.45153   0.38027   0.00000  Uiso   1.00
C417   C     0.69079   0.44200   0.35773   0.00000  Uiso   1.00
C418   C     0.69925   0.48223   0.30473   0.00000  Uiso   1.00
C419   C     0.73113   0.53466   0.22030   0.00000  Uiso   1.00
C420   C     0.63202   0.45044   0.46593   0.00000  Uiso   1.00
C421   C     0.66655   0.43999   0.51543   0.00000  Uiso   1.00
C422   C     0.66390   0.47930   0.53454   0.00000  Uiso   1.00
C423   C     0.67530   0.53001   0.58313   0.00000  Uiso   1.00
C424   C     0.56207   0.39783   0.42933   0.00000  Uiso   1.00
C425   C     0.53778   0.34314   0.44807   0.00000  Uiso   1.00
C426   C     0.47624   0.33815   0.43638   0.00000  Uiso   1.00
C427   C     0.37904   0.30718   0.42814   0.00000  Uiso   1.00
C428   C     0.56211   0.50147   0.38347   0.00000  Uiso   1.00
C429   C     0.60930   0.49955   0.35091   0.00000  Uiso   1.00
C430   C     0.61768   0.53980   0.29792   0.00000  Uiso   1.00
C431   C     0.66329   0.53033   0.27532   0.00000  Uiso   1.00
C432   C     0.59613   0.49845   0.43657   0.00000  Uiso   1.00
C433   C     0.59344   0.53779   0.45562   0.00000  Uiso   1.00
C434   C     0.62795   0.52740   0.50513   0.00000  Uiso   1.00
C435   C     0.52618   0.44584   0.39997   0.00000  Uiso   1.00
C436   C     0.46467   0.44094   0.38825   0.00000  Uiso   1.00
C437   C     0.44028   0.38625   0.40696   0.00000  Uiso   1.00
H438   H     0.65613   0.37569   0.46038   0.00000  Uiso   1.00
H439   H     0.71856   0.40484   0.38047   0.00000  Uiso   1.00
H440   H     0.69431   0.40282   0.53814   0.00000  Uiso   1.00
H441   H     0.56557   0.30599   0.47079   0.00000  Uiso   1.00
H442   H     0.77197   0.45834   0.27893   0.00000  Uiso   1.00
H443   H     0.72081   0.45408   0.61140   0.00000  Uiso   1.00
H444   H     0.44933   0.24989   0.46937   0.00000  Uiso   1.00
H445   H     0.53416   0.53886   0.36061   0.00000  Uiso   1.00
H446   H     0.58990   0.57695   0.27521   0.00000  Uiso   1.00
H447   H     0.56565   0.57494   0.43289   0.00000  Uiso   1.00
H448   H     0.43691   0.47811   0.36553   0.00000  Uiso   1.00
H449   H     0.66754   0.59803   0.19350   0.00000  Uiso   1.00
H450   H     0.61639   0.59377   0.52597   0.00000  Uiso   1.00
H451   H     0.34490   0.38958   0.38394   0.00000  Uiso   1.00
O452   O     0.75863   0.55031   0.18185   0.00000  Uiso   1.00
O453   O     0.69152   0.54472   0.61804   0.00000  Uiso   1.00
O454   O     0.33533   0.27683   0.43169   0.00000  Uiso   1.00
N455   N     0.73973   0.48598   0.27054   0.00000  Uiso   1.00
N456   N     0.69192   0.48200   0.58137   0.00000  Uiso   1.00
N457   N     0.43810   0.29110   0.44860   0.00000  Uiso   1.00
N458   N     0.68354   0.56115   0.22457   0.00000  Uiso   1.00
N459   N     0.63573   0.55717   0.53540   0.00000  Uiso   1.00
N460   N     0.38191   0.36627   0.40263   0.00000  Uiso   1.00
C461   C     0.63635   0.16066   0.44348   0.00000  Uiso   1.00
C462   C     0.64998   0.18809   0.48142   0.00000  Uiso   1.00
C463   C     0.69498   0.22818   0.47823   0.00000  Uiso   1.00
C464   C     0.70018   0.24807   0.51676   0.00000  Uiso   1.00
C465   C     0.72722   0.29360   0.56958   0.00000  Uiso   1.00
C466   C     0.63972   0.09661   0.48061   0.00000  Uiso   1.00
C467   C     0.67608   0.05979   0.47672   0.00000  Uiso   1.00
C468   C     0.67264   0.00268   0.51456   0.00000  Uiso   1.00
C469   C     0.68371   0.90619   0.56608   0.00000  Uiso   1.00
C470   C     0.57084   0.17263   0.41919   0.00000  Uiso   1.00
C471   C     0.54929   0.19972   0.36367   0.00000  Uiso   1.00
C472   C     0.48784   0.20659   0.34980   0.00000  Uiso   1.00
C473   C     0.39197   0.22814   0.30596   0.00000  Uiso   1.00
C474   C     0.56557   0.12470   0.51758   0.00000  Uiso   1.00
C475   C     0.61154   0.16855   0.52167   0.00000  Uiso   1.00
C476   C     0.61667   0.18838   0.56022   0.00000  Uiso   1.00
C477   C     0.66166   0.22850   0.55708   0.00000  Uiso   1.00
C478   C     0.60128   0.07708   0.52086   0.00000  Uiso   1.00
C479   C     0.59777   0.02000   0.55871   0.00000  Uiso   1.00
C480   C     0.63412   0.98310   0.55489   0.00000  Uiso   1.00
C481   C     0.53240   0.15310   0.45944   0.00000  Uiso   1.00
C482   C     0.47097   0.15993   0.44566   0.00000  Uiso   1.00
C483   C     0.44933   0.18702   0.39012   0.00000  Uiso   1.00
H484   H     0.66628   0.17587   0.41215   0.00000  Uiso   1.00
H485   H     0.72473   0.24328   0.44708   0.00000  Uiso   1.00
H486   H     0.70583   0.07492   0.44557   0.00000  Uiso   1.00
H487   H     0.57905   0.21483   0.33254   0.00000  Uiso   1.00
H488   H     0.77259   0.30939   0.50358   0.00000  Uiso   1.00
H489   H     0.73272   0.95440   0.50038   0.00000  Uiso   1.00
H490   H     0.46538   0.24942   0.26202   0.00000  Uiso   1.00
H491   H     0.53563   0.10948   0.54892   0.00000  Uiso   1.00
H492   H     0.58691   0.17326   0.59136   0.00000  Uiso   1.00
H493   H     0.56801   0.00490   0.58985   0.00000  Uiso   1.00
H494   H     0.44124   0.14480   0.47681   0.00000  Uiso   1.00
H495   H     0.66073   0.25255   0.62068   0.00000  Uiso   1.00
H496   H     0.62086   0.89756   0.61748   0.00000  Uiso   1.00
H497   H     0.35353   0.19258   0.37912   0.00000  Uiso   1.00
O498   O     0.75276   0.32411   0.58759   0.00000  Uiso   1.00
O499   O     0.70044   0.85837   0.58338   0.00000  Uiso   1.00
O500   O     0.34971   0.24543   0.27066   0.00000  Uiso   1.00
N501   N     0.73922   0.28727   0.52531   0.00000  Uiso   1.00
N502   N     0.70195   0.95537   0.52232   0.00000  Uiso   1.00
N503   N     0.45201   0.23118   0.29947   0.00000  Uiso   1.00
N504   N     0.67903   0.25669   0.58832   0.00000  Uiso   1.00
N505   N     0.64176   0.92479   0.58533   0.00000  Uiso   1.00
N506   N     0.39182   0.20059   0.36248   0.00000  Uiso   1.00
C507   C     0.63058   0.35965   0.23239   0.00000  Uiso   1.00
C508   C     0.64045   0.29991   0.24109   0.00000  Uiso   1.00
C509   C     0.68015   0.26085   0.28218   0.00000  Uiso   1.00
C510   C     0.68258   0.20847   0.28316   0.00000  Uiso   1.00
C511   C     0.70339   0.11766   0.30254   0.00000  Uiso   1.00
C512   C     0.64194   0.40005   0.17367   0.00000  Uiso   1.00
C513   C     0.68288   0.44520   0.15808   0.00000  Uiso   1.00
C514   C     0.68656   0.47712   0.10231   0.00000  Uiso   1.00
C515   C     0.70966   0.54182   0.01702   0.00000  Uiso   1.00
C516   C     0.56394   0.36282   0.23354   0.00000  Uiso   1.00
C517   C     0.53930   0.37669   0.26827   0.00000  Uiso   1.00
C518   C     0.47731   0.37728   0.26289   0.00000  Uiso   1.00
C519   C     0.37931   0.38417   0.27055   0.00000  Uiso   1.00
C520   C     0.56430   0.33606   0.16107   0.00000  Uiso   1.00
C521   C     0.60445   0.28710   0.20235   0.00000  Uiso   1.00
C522   C     0.60681   0.23475   0.20327   0.00000  Uiso   1.00
C523   C     0.64651   0.19563   0.24436   0.00000  Uiso   1.00
C524   C     0.60594   0.38724   0.13493   0.00000  Uiso   1.00
C525   C     0.60955   0.41910   0.07917   0.00000  Uiso   1.00
C526   C     0.65049   0.46429   0.06350   0.00000  Uiso   1.00
C527   C     0.52794   0.35001   0.19480   0.00000  Uiso   1.00
C528   C     0.46597   0.35058   0.18936   0.00000  Uiso   1.00
C529   C     0.44124   0.36444   0.22408   0.00000  Uiso   1.00
H530   H     0.65861   0.36963   0.26255   0.00000  Uiso   1.00
H531   H     0.70801   0.27079   0.31215   0.00000  Uiso   1.00
H532   H     0.71073   0.45511   0.18807   0.00000  Uiso   1.00
H533   H     0.56718   0.38660   0.29824   0.00000  Uiso   1.00
H534   H     0.74690   0.15556   0.35004   0.00000  Uiso   1.00
H535   H     0.75264   0.54423   0.08841   0.00000  Uiso   1.00
H536   H     0.44993   0.39977   0.32073   0.00000  Uiso   1.00
H537   H     0.53627   0.32609   0.13091   0.00000  Uiso   1.00
H538   H     0.57895   0.22485   0.17329   0.00000  Uiso   1.00
H539   H     0.58168   0.40918   0.04920   0.00000  Uiso   1.00
H540   H     0.43812   0.34067   0.15938   0.00000  Uiso   1.00
H541   H     0.64216   0.11828   0.23734   0.00000  Uiso   1.00
H542   H     0.64790   0.50695   0.97570   0.00000  Uiso   1.00
H543   H     0.34518   0.36249   0.20802   0.00000  Uiso   1.00
O544   O     0.72483   0.07112   0.32393   0.00000  Uiso   1.00
O545   O     0.73235   0.58105   0.98068   0.00000  Uiso   1.00
O546   O     0.33520   0.39151   0.28548   0.00000  Uiso   1.00
N547   N     0.71639   0.16068   0.31771   0.00000  Uiso   1.00
N548   N     0.72176   0.52405   0.07309   0.00000  Uiso   1.00
N549   N     0.43875   0.38901   0.29029   0.00000  Uiso   1.00
N550   N     0.66002   0.14062   0.25706   0.00000  Uiso   1.00
N551   N     0.66540   0.50399   0.01245   0.00000  Uiso   1.00
N552   N     0.38238   0.36895   0.22964   0.00000  Uiso   1.00
