data_job_05018
_audit_creation_date              2018-12-19
_audit_creation_method            'Materials Studio'
_symmetry_space_group_name_H-M    'P1'
_symmetry_Int_Tables_number       1
_symmetry_cell_setting            triclinic
loop_
_symmetry_equiv_pos_as_xyz
  x,y,z
_cell_length_a                    11.7375
_cell_length_b                    7.1930
_cell_length_c                    34.5859
_cell_angle_alpha                 90.0000
_cell_angle_beta                  115.5539
_cell_angle_gamma                 90.0000
loop_
_atom_site_label
_atom_site_type_symbol
_atom_site_fract_x
_atom_site_fract_y
_atom_site_fract_z
_atom_site_U_iso_or_equiv
_atom_site_adp_type
_atom_site_occupancy
C1     C     0.79983   0.51202   0.88062   0.00000  Uiso   1.00
C2     C     0.90515   0.64705   0.90679   0.00000  Uiso   1.00
C3     C     0.03039   0.60004   0.93176   0.00000  Uiso   1.00
C4     C     0.11218   0.74381   0.95324   0.00000  Uiso   1.00
C5     C     0.28210   0.92546   0.99441   0.00000  Uiso   1.00
C6     C     0.69731   0.53722   0.89613   0.00000  Uiso   1.00
C7     C     0.64779   0.39786   0.91212   0.00000  Uiso   1.00
C8     C     0.55459   0.44918   0.92463   0.00000  Uiso   1.00
C9     C     0.40177   0.46029   0.94921   0.00000  Uiso   1.00
C10    C     0.74394   0.58405   0.83467   0.00000  Uiso   1.00
C11    C     0.73360   0.48405   0.79899   0.00000  Uiso   1.00
C12    C     0.67964   0.57479   0.75974   0.00000  Uiso   1.00
C13    C     0.59922   0.65861   0.68890   0.00000  Uiso   1.00
C14    C     0.72235   0.85095   0.87438   0.00000  Uiso   1.00
C15    C     0.86306   0.83115   0.90340   0.00000  Uiso   1.00
C16    C     0.94468   0.97503   0.92485   0.00000  Uiso   1.00
C17    C     0.07002   0.92824   0.94984   0.00000  Uiso   1.00
C18    C     0.65522   0.72131   0.89274   0.00000  Uiso   1.00
C19    C     0.56207   0.77285   0.90521   0.00000  Uiso   1.00
C20    C     0.51243   0.63360   0.92123   0.00000  Uiso   1.00
C21    C     0.70186   0.76815   0.83128   0.00000  Uiso   1.00
C22    C     0.64789   0.85905   0.79208   0.00000  Uiso   1.00
C23    C     0.63748   0.75921   0.75634   0.00000  Uiso   1.00
H24    H     0.83259   0.36870   0.88327   0.00000  Uiso   1.00
H25    H     0.06292   0.45755   0.93438   0.00000  Uiso   1.00
H26    H     0.68037   0.25541   0.91474   0.00000  Uiso   1.00
H27    H     0.76617   0.34160   0.80163   0.00000  Uiso   1.00
H28    H     0.29972   0.63725   0.98957   0.00000  Uiso   1.00
H29    H     0.49306   0.21099   0.94815   0.00000  Uiso   1.00
H30    H     0.67399   0.39273   0.70961   0.00000  Uiso   1.00
H31    H     0.68959   0.99428   0.87173   0.00000  Uiso   1.00
H32    H     0.91208   0.11748   0.92222   0.00000  Uiso   1.00
H33    H     0.52953   0.91532   0.90258   0.00000  Uiso   1.00
H34    H     0.61533   0.00151   0.78946   0.00000  Uiso   1.00
H35    H     0.17730   0.17286   0.97969   0.00000  Uiso   1.00
H36    H     0.37062   0.74660   0.93828   0.00000  Uiso   1.00
H37    H     0.55156   0.92834   0.69974   0.00000  Uiso   1.00
O38    O     0.38744   0.97480   0.01806   0.00000  Uiso   1.00
O39    O     0.32911   0.41556   0.96371   0.00000  Uiso   1.00
O40    O     0.56650   0.65400   0.65076   0.00000  Uiso   1.00
N41    N     0.24038   0.74640   0.98031   0.00000  Uiso   1.00
N42    N     0.48621   0.34788   0.94159   0.00000  Uiso   1.00
N43    N     0.65534   0.51778   0.71858   0.00000  Uiso   1.00
N44    N     0.17450   0.03461   0.97500   0.00000  Uiso   1.00
N45    N     0.42033   0.63609   0.93628   0.00000  Uiso   1.00
N46    N     0.58946   0.80599   0.71327   0.00000  Uiso   1.00
C47    C     0.20017   0.01202   0.61938   0.00000  Uiso   1.00
C48    C     0.09485   0.14705   0.59321   0.00000  Uiso   1.00
C49    C     0.96961   0.10004   0.56824   0.00000  Uiso   1.00
C50    C     0.88782   0.24381   0.54676   0.00000  Uiso   1.00
C51    C     0.71790   0.42546   0.50559   0.00000  Uiso   1.00
C52    C     0.30269   0.03722   0.60387   0.00000  Uiso   1.00
C53    C     0.35221   0.89786   0.58788   0.00000  Uiso   1.00
C54    C     0.44541   0.94918   0.57537   0.00000  Uiso   1.00
C55    C     0.59823   0.96029   0.55079   0.00000  Uiso   1.00
C56    C     0.25606   0.08405   0.66533   0.00000  Uiso   1.00
C57    C     0.26640   0.98405   0.70101   0.00000  Uiso   1.00
C58    C     0.32036   0.07479   0.74026   0.00000  Uiso   1.00
C59    C     0.40078   0.15861   0.81110   0.00000  Uiso   1.00
C60    C     0.27765   0.35095   0.62562   0.00000  Uiso   1.00
C61    C     0.13694   0.33115   0.59660   0.00000  Uiso   1.00
C62    C     0.05532   0.47503   0.57515   0.00000  Uiso   1.00
C63    C     0.92998   0.42824   0.55016   0.00000  Uiso   1.00
C64    C     0.34478   0.22131   0.60726   0.00000  Uiso   1.00
C65    C     0.43793   0.27285   0.59479   0.00000  Uiso   1.00
C66    C     0.48757   0.13360   0.57877   0.00000  Uiso   1.00
C67    C     0.29814   0.26815   0.66872   0.00000  Uiso   1.00
C68    C     0.35211   0.35905   0.70792   0.00000  Uiso   1.00
C69    C     0.36252   0.25921   0.74366   0.00000  Uiso   1.00
H70    H     0.16741   0.86870   0.61673   0.00000  Uiso   1.00
H71    H     0.93708   0.95755   0.56562   0.00000  Uiso   1.00
H72    H     0.31963   0.75541   0.58526   0.00000  Uiso   1.00
H73    H     0.23383   0.84160   0.69837   0.00000  Uiso   1.00
H74    H     0.70028   0.13725   0.51043   0.00000  Uiso   1.00
H75    H     0.50694   0.71099   0.55185   0.00000  Uiso   1.00
H76    H     0.32601   0.89273   0.79039   0.00000  Uiso   1.00
H77    H     0.31041   0.49428   0.62827   0.00000  Uiso   1.00
H78    H     0.08792   0.61748   0.57778   0.00000  Uiso   1.00
H79    H     0.47047   0.41532   0.59742   0.00000  Uiso   1.00
H80    H     0.38467   0.50151   0.71054   0.00000  Uiso   1.00
H81    H     0.82270   0.67286   0.52031   0.00000  Uiso   1.00
H82    H     0.62938   0.24660   0.56172   0.00000  Uiso   1.00
H83    H     0.44844   0.42834   0.80026   0.00000  Uiso   1.00
O84    O     0.61256   0.47480   0.48194   0.00000  Uiso   1.00
O85    O     0.67089   0.91556   0.53629   0.00000  Uiso   1.00
O86    O     0.43350   0.15400   0.84924   0.00000  Uiso   1.00
N87    N     0.75962   0.24640   0.51969   0.00000  Uiso   1.00
N88    N     0.51379   0.84788   0.55841   0.00000  Uiso   1.00
N89    N     0.34466   0.01778   0.78142   0.00000  Uiso   1.00
N90    N     0.82550   0.53461   0.52500   0.00000  Uiso   1.00
N91    N     0.57967   0.13609   0.56372   0.00000  Uiso   1.00
N92    N     0.41054   0.30599   0.78673   0.00000  Uiso   1.00
C93    C     0.20017   0.48798   0.11938   0.00000  Uiso   1.00
C94    C     0.09485   0.35295   0.09321   0.00000  Uiso   1.00
C95    C     0.96961   0.39996   0.06824   0.00000  Uiso   1.00
C96    C     0.88782   0.25619   0.04676   0.00000  Uiso   1.00
C97    C     0.71790   0.07454   0.00559   0.00000  Uiso   1.00
C98    C     0.30269   0.46278   0.10387   0.00000  Uiso   1.00
C99    C     0.35221   0.60214   0.08788   0.00000  Uiso   1.00
C100   C     0.44541   0.55082   0.07537   0.00000  Uiso   1.00
C101   C     0.59823   0.53971   0.05079   0.00000  Uiso   1.00
C102   C     0.25606   0.41595   0.16533   0.00000  Uiso   1.00
C103   C     0.26640   0.51595   0.20101   0.00000  Uiso   1.00
C104   C     0.32036   0.42521   0.24026   0.00000  Uiso   1.00
C105   C     0.40078   0.34139   0.31110   0.00000  Uiso   1.00
C106   C     0.27765   0.14905   0.12562   0.00000  Uiso   1.00
C107   C     0.13694   0.16885   0.09660   0.00000  Uiso   1.00
C108   C     0.05532   0.02497   0.07515   0.00000  Uiso   1.00
C109   C     0.92998   0.07176   0.05016   0.00000  Uiso   1.00
C110   C     0.34478   0.27869   0.10726   0.00000  Uiso   1.00
C111   C     0.43793   0.22715   0.09479   0.00000  Uiso   1.00
C112   C     0.48757   0.36640   0.07877   0.00000  Uiso   1.00
C113   C     0.29814   0.23185   0.16872   0.00000  Uiso   1.00
C114   C     0.35211   0.14095   0.20792   0.00000  Uiso   1.00
C115   C     0.36252   0.24079   0.24366   0.00000  Uiso   1.00
H116   H     0.16741   0.63130   0.11673   0.00000  Uiso   1.00
H117   H     0.93708   0.54245   0.06562   0.00000  Uiso   1.00
H118   H     0.31963   0.74459   0.08526   0.00000  Uiso   1.00
H119   H     0.23383   0.65840   0.19837   0.00000  Uiso   1.00
H120   H     0.70028   0.36275   0.01043   0.00000  Uiso   1.00
H121   H     0.50694   0.78901   0.05185   0.00000  Uiso   1.00
H122   H     0.32601   0.60727   0.29039   0.00000  Uiso   1.00
H123   H     0.31041   0.00572   0.12827   0.00000  Uiso   1.00
H124   H     0.08792   0.88252   0.07778   0.00000  Uiso   1.00
H125   H     0.47047   0.08468   0.09742   0.00000  Uiso   1.00
H126   H     0.38467   0.99849   0.21054   0.00000  Uiso   1.00
H127   H     0.82270   0.82714   0.02031   0.00000  Uiso   1.00
H128   H     0.62938   0.25340   0.06172   0.00000  Uiso   1.00
H129   H     0.44844   0.07166   0.30026   0.00000  Uiso   1.00
O130   O     0.61256   0.02520   0.98194   0.00000  Uiso   1.00
O131   O     0.67089   0.58444   0.03629   0.00000  Uiso   1.00
O132   O     0.43350   0.34600   0.34924   0.00000  Uiso   1.00
N133   N     0.75962   0.25360   0.01969   0.00000  Uiso   1.00
N134   N     0.51379   0.65212   0.05841   0.00000  Uiso   1.00
N135   N     0.34466   0.48222   0.28142   0.00000  Uiso   1.00
N136   N     0.82550   0.96539   0.02500   0.00000  Uiso   1.00
N137   N     0.57967   0.36391   0.06372   0.00000  Uiso   1.00
N138   N     0.41054   0.19401   0.28673   0.00000  Uiso   1.00
C139   C     0.79983   0.98798   0.38062   0.00000  Uiso   1.00
C140   C     0.90515   0.85295   0.40679   0.00000  Uiso   1.00
C141   C     0.03039   0.89996   0.43176   0.00000  Uiso   1.00
C142   C     0.11218   0.75619   0.45324   0.00000  Uiso   1.00
C143   C     0.28210   0.57454   0.49441   0.00000  Uiso   1.00
C144   C     0.69731   0.96278   0.39613   0.00000  Uiso   1.00
C145   C     0.64779   0.10214   0.41212   0.00000  Uiso   1.00
C146   C     0.55459   0.05082   0.42463   0.00000  Uiso   1.00
C147   C     0.40177   0.03971   0.44921   0.00000  Uiso   1.00
C148   C     0.74394   0.91595   0.33467   0.00000  Uiso   1.00
C149   C     0.73360   0.01595   0.29899   0.00000  Uiso   1.00
C150   C     0.67964   0.92521   0.25974   0.00000  Uiso   1.00
C151   C     0.59922   0.84139   0.18890   0.00000  Uiso   1.00
C152   C     0.72235   0.64905   0.37438   0.00000  Uiso   1.00
C153   C     0.86306   0.66885   0.40340   0.00000  Uiso   1.00
C154   C     0.94468   0.52497   0.42485   0.00000  Uiso   1.00
C155   C     0.07002   0.57176   0.44984   0.00000  Uiso   1.00
C156   C     0.65522   0.77869   0.39274   0.00000  Uiso   1.00
C157   C     0.56207   0.72715   0.40521   0.00000  Uiso   1.00
C158   C     0.51243   0.86640   0.42123   0.00000  Uiso   1.00
C159   C     0.70186   0.73185   0.33128   0.00000  Uiso   1.00
C160   C     0.64789   0.64095   0.29208   0.00000  Uiso   1.00
C161   C     0.63748   0.74079   0.25634   0.00000  Uiso   1.00
H162   H     0.83259   0.13130   0.38327   0.00000  Uiso   1.00
H163   H     0.06292   0.04245   0.43438   0.00000  Uiso   1.00
H164   H     0.68037   0.24459   0.41474   0.00000  Uiso   1.00
H165   H     0.76617   0.15840   0.30163   0.00000  Uiso   1.00
H166   H     0.29972   0.86275   0.48957   0.00000  Uiso   1.00
H167   H     0.49306   0.28901   0.44815   0.00000  Uiso   1.00
H168   H     0.67399   0.10727   0.20961   0.00000  Uiso   1.00
H169   H     0.68959   0.50572   0.37173   0.00000  Uiso   1.00
H170   H     0.91208   0.38252   0.42222   0.00000  Uiso   1.00
H171   H     0.52953   0.58468   0.40258   0.00000  Uiso   1.00
H172   H     0.61533   0.49849   0.28946   0.00000  Uiso   1.00
H173   H     0.17730   0.32714   0.47969   0.00000  Uiso   1.00
H174   H     0.37062   0.75340   0.43828   0.00000  Uiso   1.00
H175   H     0.55156   0.57166   0.19974   0.00000  Uiso   1.00
O176   O     0.38744   0.52520   0.51806   0.00000  Uiso   1.00
O177   O     0.32911   0.08444   0.46371   0.00000  Uiso   1.00
O178   O     0.56650   0.84600   0.15076   0.00000  Uiso   1.00
N179   N     0.24038   0.75360   0.48031   0.00000  Uiso   1.00
N180   N     0.48621   0.15212   0.44159   0.00000  Uiso   1.00
N181   N     0.65534   0.98222   0.21858   0.00000  Uiso   1.00
N182   N     0.17450   0.46539   0.47500   0.00000  Uiso   1.00
N183   N     0.42033   0.86391   0.43628   0.00000  Uiso   1.00
N184   N     0.58946   0.69401   0.21327   0.00000  Uiso   1.00
