data_job_00099
_audit_creation_date              2018-12-19
_audit_creation_method            'Materials Studio'
_symmetry_space_group_name_H-M    'P1'
_symmetry_Int_Tables_number       1
_symmetry_cell_setting            triclinic
loop_
_symmetry_equiv_pos_as_xyz
  x,y,z
_cell_length_a                    7.2061
_cell_length_b                    23.6987
_cell_length_c                    41.4498
_cell_angle_alpha                 93.2169
_cell_angle_beta                  87.7852
_cell_angle_gamma                 91.2206
loop_
_atom_site_label
_atom_site_type_symbol
_atom_site_fract_x
_atom_site_fract_y
_atom_site_fract_z
_atom_site_U_iso_or_equiv
_atom_site_adp_type
_atom_site_occupancy
C1     C     0.72814   0.55495   0.60385   0.00000  Uiso   1.00
C2     C     0.62860   0.55402   0.63696   0.00000  Uiso   1.00
C3     C     0.71379   0.55503   0.66645   0.00000  Uiso   1.00
C4     C     0.59833   0.55390   0.69402   0.00000  Uiso   1.00
C5     C     0.47323   0.55274   0.74572   0.00000  Uiso   1.00
C6     C     0.65838   0.50265   0.58449   0.00000  Uiso   1.00
C7     C     0.76862   0.46047   0.56987   0.00000  Uiso   1.00
C8     C     0.67823   0.41610   0.55327   0.00000  Uiso   1.00
C9     C     0.59938   0.33521   0.52350   0.00000  Uiso   1.00
C10    C     0.65310   0.60556   0.58770   0.00000  Uiso   1.00
C11    C     0.75891   0.64992   0.57576   0.00000  Uiso   1.00
C12    C     0.66407   0.69219   0.56185   0.00000  Uiso   1.00
C13    C     0.57702   0.77110   0.53705   0.00000  Uiso   1.00
C14    C     0.37160   0.55115   0.60036   0.00000  Uiso   1.00
C15    C     0.43494   0.55195   0.63506   0.00000  Uiso   1.00
C16    C     0.31931   0.55083   0.66259   0.00000  Uiso   1.00
C17    C     0.40432   0.55184   0.69212   0.00000  Uiso   1.00
C18    C     0.46473   0.50058   0.58260   0.00000  Uiso   1.00
C19    C     0.37415   0.45627   0.56601   0.00000  Uiso   1.00
C20    C     0.48422   0.41403   0.55137   0.00000  Uiso   1.00
C21    C     0.45944   0.60350   0.58580   0.00000  Uiso   1.00
C22    C     0.36442   0.64572   0.57190   0.00000  Uiso   1.00
C23    C     0.47006   0.69012   0.55995   0.00000  Uiso   1.00
H24    H     0.87891   0.55655   0.60532   0.00000  Uiso   1.00
H25    H     0.86367   0.55662   0.66791   0.00000  Uiso   1.00
H26    H     0.91849   0.46208   0.57134   0.00000  Uiso   1.00
H27    H     0.90876   0.65150   0.57723   0.00000  Uiso   1.00
H28    H     0.76136   0.55577   0.73646   0.00000  Uiso   1.00
H29    H     0.87696   0.35644   0.53283   0.00000  Uiso   1.00
H30    H     0.85646   0.75586   0.54525   0.00000  Uiso   1.00
H31    H     0.22082   0.54954   0.59888   0.00000  Uiso   1.00
H32    H     0.16945   0.54923   0.66112   0.00000  Uiso   1.00
H33    H     0.22428   0.45469   0.56455   0.00000  Uiso   1.00
H34    H     0.21456   0.64410   0.57044   0.00000  Uiso   1.00
H35    H     0.19791   0.54977   0.73095   0.00000  Uiso   1.00
H36    H     0.31352   0.35043   0.52732   0.00000  Uiso   1.00
H37    H     0.29302   0.74986   0.53974   0.00000  Uiso   1.00
O38    O     0.45772   0.55267   0.77476   0.00000  Uiso   1.00
O39    O     0.60939   0.29116   0.50760   0.00000  Uiso   1.00
O40    O     0.58250   0.81520   0.52390   0.00000  Uiso   1.00
N41    N     0.63580   0.55441   0.72662   0.00000  Uiso   1.00
N42    N     0.74388   0.36804   0.53625   0.00000  Uiso   1.00
N43    N     0.72472   0.74146   0.54785   0.00000  Uiso   1.00
N44    N     0.33261   0.55118   0.72366   0.00000  Uiso   1.00
N45    N     0.44069   0.36481   0.53328   0.00000  Uiso   1.00
N46    N     0.42153   0.73823   0.54488   0.00000  Uiso   1.00
C47    C     0.95657   0.30718   0.42763   0.00000  Uiso   1.00
C48    C     0.05619   0.30808   0.39453   0.00000  Uiso   1.00
C49    C     0.97108   0.30702   0.36503   0.00000  Uiso   1.00
C50    C     0.08660   0.30811   0.33747   0.00000  Uiso   1.00
C51    C     0.21184   0.30916   0.28577   0.00000  Uiso   1.00
C52    C     0.03158   0.25657   0.44380   0.00000  Uiso   1.00
C53    C     0.92575   0.21221   0.45573   0.00000  Uiso   1.00
C54    C     0.02057   0.16994   0.46965   0.00000  Uiso   1.00
C55    C     0.10756   0.09105   0.49448   0.00000  Uiso   1.00
C56    C     0.02627   0.35949   0.44698   0.00000  Uiso   1.00
C57    C     0.91599   0.40166   0.46160   0.00000  Uiso   1.00
C58    C     0.00633   0.44603   0.47820   0.00000  Uiso   1.00
C59    C     0.08509   0.52694   0.50796   0.00000  Uiso   1.00
C60    C     0.31310   0.31098   0.43115   0.00000  Uiso   1.00
C61    C     0.24985   0.31014   0.39644   0.00000  Uiso   1.00
C62    C     0.36554   0.31123   0.36891   0.00000  Uiso   1.00
C63    C     0.28061   0.31018   0.33938   0.00000  Uiso   1.00
C64    C     0.22522   0.25863   0.44571   0.00000  Uiso   1.00
C65    C     0.32021   0.21642   0.45962   0.00000  Uiso   1.00
C66    C     0.21457   0.17201   0.47157   0.00000  Uiso   1.00
C67    C     0.21992   0.36156   0.44889   0.00000  Uiso   1.00
C68    C     0.31045   0.40587   0.46548   0.00000  Uiso   1.00
C69    C     0.20034   0.44810   0.48012   0.00000  Uiso   1.00
H70    H     0.80581   0.30556   0.42615   0.00000  Uiso   1.00
H71    H     0.82120   0.30542   0.36356   0.00000  Uiso   1.00
H72    H     0.77590   0.21063   0.45425   0.00000  Uiso   1.00
H73    H     0.76614   0.40004   0.46011   0.00000  Uiso   1.00
H74    H     0.92368   0.30614   0.29501   0.00000  Uiso   1.00
H75    H     0.82814   0.10628   0.48625   0.00000  Uiso   1.00
H76    H     0.80755   0.50571   0.49861   0.00000  Uiso   1.00
H77    H     0.46387   0.31259   0.43263   0.00000  Uiso   1.00
H78    H     0.51539   0.31283   0.37040   0.00000  Uiso   1.00
H79    H     0.47007   0.21804   0.46109   0.00000  Uiso   1.00
H80    H     0.46031   0.40746   0.46695   0.00000  Uiso   1.00
H81    H     0.48711   0.31216   0.30056   0.00000  Uiso   1.00
H82    H     0.39155   0.11230   0.49181   0.00000  Uiso   1.00
H83    H     0.37098   0.51172   0.50416   0.00000  Uiso   1.00
O84    O     0.22741   0.30916   0.25673   0.00000  Uiso   1.00
O85    O     0.10205   0.04696   0.50764   0.00000  Uiso   1.00
O86    O     0.07505   0.57099   0.52385   0.00000  Uiso   1.00
N87    N     0.04922   0.30754   0.30486   0.00000  Uiso   1.00
N88    N     0.95988   0.12068   0.48365   0.00000  Uiso   1.00
N89    N     0.94064   0.49410   0.49522   0.00000  Uiso   1.00
N90    N     0.35239   0.31078   0.30784   0.00000  Uiso   1.00
N91    N     0.26306   0.12391   0.48664   0.00000  Uiso   1.00
N92    N     0.24381   0.49733   0.49820   0.00000  Uiso   1.00
C93    C     0.16406   0.79475   0.10075   0.00000  Uiso   1.00
C94    C     0.24384   0.79415   0.13427   0.00000  Uiso   1.00
C95    C     0.14132   0.79187   0.16322   0.00000  Uiso   1.00
C96    C     0.24029   0.79171   0.19129   0.00000  Uiso   1.00
C97    C     0.33459   0.79050   0.24348   0.00000  Uiso   1.00
C98    C     0.24421   0.84779   0.08581   0.00000  Uiso   1.00
C99    C     0.14200   0.89060   0.07402   0.00000  Uiso   1.00
C100   C     0.24129   0.93559   0.06130   0.00000  Uiso   1.00
C101   C     0.33617   0.01763   0.03824   0.00000  Uiso   1.00
C102   C     0.24949   0.74490   0.08105   0.00000  Uiso   1.00
C103   C     0.15171   0.70121   0.06525   0.00000  Uiso   1.00
C104   C     0.25545   0.65958   0.04851   0.00000  Uiso   1.00
C105   C     0.35851   0.58187   0.01805   0.00000  Uiso   1.00
C106   C     0.52212   0.79852   0.09912   0.00000  Uiso   1.00
C107   C     0.43833   0.79620   0.13338   0.00000  Uiso   1.00
C108   C     0.53748   0.79604   0.16142   0.00000  Uiso   1.00
C109   C     0.43512   0.79376   0.19041   0.00000  Uiso   1.00
C110   C     0.43869   0.84983   0.08493   0.00000  Uiso   1.00
C111   C     0.53816   0.89477   0.07223   0.00000  Uiso   1.00
C112   C     0.43612   0.93764   0.06042   0.00000  Uiso   1.00
C113   C     0.44398   0.74694   0.08017   0.00000  Uiso   1.00
C114   C     0.54788   0.70537   0.06345   0.00000  Uiso   1.00
C115   C     0.45028   0.66163   0.04763   0.00000  Uiso   1.00
H116   H     0.01264   0.79316   0.10143   0.00000  Uiso   1.00
H117   H     0.99081   0.79030   0.16389   0.00000  Uiso   1.00
H118   H     0.99150   0.88901   0.07471   0.00000  Uiso   1.00
H119   H     0.00121   0.69964   0.06593   0.00000  Uiso   1.00
H120   H     0.05238   0.78804   0.23275   0.00000  Uiso   1.00
H121   H     0.05382   0.99616   0.04469   0.00000  Uiso   1.00
H122   H     0.07430   0.59686   0.02619   0.00000  Uiso   1.00
H123   H     0.67355   0.80011   0.09844   0.00000  Uiso   1.00
H124   H     0.68799   0.79762   0.16073   0.00000  Uiso   1.00
H125   H     0.68866   0.89633   0.07154   0.00000  Uiso   1.00
H126   H     0.69838   0.70697   0.06277   0.00000  Uiso   1.00
H127   H     0.61823   0.79399   0.23019   0.00000  Uiso   1.00
H128   H     0.61967   0.00211   0.04212   0.00000  Uiso   1.00
H129   H     0.64016   0.60280   0.02362   0.00000  Uiso   1.00
O130   O     0.33288   0.78927   0.27250   0.00000  Uiso   1.00
O131   O     0.33476   0.06231   0.02576   0.00000  Uiso   1.00
O132   O     0.36164   0.53843   0.00150   0.00000  Uiso   1.00
N133   N     0.18357   0.78977   0.22360   0.00000  Uiso   1.00
N134   N     0.18492   0.98436   0.04777   0.00000  Uiso   1.00
N135   N     0.20407   0.61105   0.03047   0.00000  Uiso   1.00
N136   N     0.48805   0.79297   0.22222   0.00000  Uiso   1.00
N137   N     0.48940   0.98756   0.04639   0.00000  Uiso   1.00
N138   N     0.50855   0.61425   0.02909   0.00000  Uiso   1.00
C139   C     0.52141   0.06727   0.93065   0.00000  Uiso   1.00
C140   C     0.44131   0.06793   0.89716   0.00000  Uiso   1.00
C141   C     0.54357   0.07030   0.86819   0.00000  Uiso   1.00
C142   C     0.44435   0.07053   0.84014   0.00000  Uiso   1.00
C143   C     0.34957   0.07190   0.78800   0.00000  Uiso   1.00
C144   C     0.43605   0.11708   0.95040   0.00000  Uiso   1.00
C145   C     0.53391   0.16076   0.96620   0.00000  Uiso   1.00
C146   C     0.43025   0.20236   0.98298   0.00000  Uiso   1.00
C147   C     0.32731   0.28001   0.01351   0.00000  Uiso   1.00
C148   C     0.44147   0.01420   0.94557   0.00000  Uiso   1.00
C149   C     0.54386   0.97138   0.95732   0.00000  Uiso   1.00
C150   C     0.44476   0.92636   0.97004   0.00000  Uiso   1.00
C151   C     0.35023   0.84427   0.99307   0.00000  Uiso   1.00
C152   C     0.16334   0.06346   0.93237   0.00000  Uiso   1.00
C153   C     0.24682   0.06587   0.89810   0.00000  Uiso   1.00
C154   C     0.14741   0.06609   0.87009   0.00000  Uiso   1.00
C155   C     0.24951   0.06845   0.84108   0.00000  Uiso   1.00
C156   C     0.24157   0.11501   0.95134   0.00000  Uiso   1.00
C157   C     0.13774   0.15655   0.96810   0.00000  Uiso   1.00
C158   C     0.23541   0.20029   0.98391   0.00000  Uiso   1.00
C159   C     0.24698   0.01213   0.94651   0.00000  Uiso   1.00
C160   C     0.14770   0.96717   0.95922   0.00000  Uiso   1.00
C161   C     0.24992   0.92429   0.97098   0.00000  Uiso   1.00
H162   H     0.67282   0.06888   0.92993   0.00000  Uiso   1.00
H163   H     0.69409   0.07190   0.86748   0.00000  Uiso   1.00
H164   H     0.68441   0.16235   0.96547   0.00000  Uiso   1.00
H165   H     0.69437   0.97299   0.95659   0.00000  Uiso   1.00
H166   H     0.63189   0.07436   0.79865   0.00000  Uiso   1.00
H167   H     0.61149   0.26506   0.00529   0.00000  Uiso   1.00
H168   H     0.63249   0.86577   0.98656   0.00000  Uiso   1.00
H169   H     0.01191   0.06185   0.93310   0.00000  Uiso   1.00
H170   H     0.99691   0.06449   0.87082   0.00000  Uiso   1.00
H171   H     0.98724   0.15494   0.96882   0.00000  Uiso   1.00
H172   H     0.99719   0.96558   0.95994   0.00000  Uiso   1.00
H173   H     0.06603   0.06835   0.80136   0.00000  Uiso   1.00
H174   H     0.04564   0.25905   0.00801   0.00000  Uiso   1.00
H175   H     0.06663   0.85976   0.98928   0.00000  Uiso   1.00
O176   O     0.35102   0.07324   0.75898   0.00000  Uiso   1.00
O177   O     0.32426   0.32342   0.03009   0.00000  Uiso   1.00
O178   O     0.35181   0.79956   0.00552   0.00000  Uiso   1.00
N179   N     0.50078   0.07257   0.80783   0.00000  Uiso   1.00
N180   N     0.48171   0.25087   0.00103   0.00000  Uiso   1.00
N181   N     0.50134   0.87758   0.98353   0.00000  Uiso   1.00
N182   N     0.19629   0.06934   0.80929   0.00000  Uiso   1.00
N183   N     0.17723   0.24763   0.00249   0.00000  Uiso   1.00
N184   N     0.19685   0.87434   0.98499   0.00000  Uiso   1.00
C185   C     0.49763   0.80158   0.42255   0.00000  Uiso   1.00
C186   C     0.61210   0.80045   0.39081   0.00000  Uiso   1.00
C187   C     0.54129   0.79802   0.36009   0.00000  Uiso   1.00
C188   C     0.66898   0.79735   0.33412   0.00000  Uiso   1.00
C189   C     0.81759   0.79537   0.28413   0.00000  Uiso   1.00
C190   C     0.56060   0.85467   0.44195   0.00000  Uiso   1.00
C191   C     0.44647   0.89783   0.45422   0.00000  Uiso   1.00
C192   C     0.53081   0.94280   0.47131   0.00000  Uiso   1.00
C193   C     0.59944   0.02497   0.50072   0.00000  Uiso   1.00
C194   C     0.56188   0.75179   0.44074   0.00000  Uiso   1.00
C195   C     0.44884   0.70844   0.45200   0.00000  Uiso   1.00
C196   C     0.53425   0.66679   0.46808   0.00000  Uiso   1.00
C197   C     0.60487   0.58922   0.49561   0.00000  Uiso   1.00
C198   C     0.85032   0.80473   0.43107   0.00000  Uiso   1.00
C199   C     0.80367   0.80216   0.39543   0.00000  Uiso   1.00
C200   C     0.93150   0.80150   0.36951   0.00000  Uiso   1.00
C201   C     0.86089   0.79906   0.33875   0.00000  Uiso   1.00
C202   C     0.75216   0.85638   0.44657   0.00000  Uiso   1.00
C203   C     0.83669   0.90130   0.46364   0.00000  Uiso   1.00
C204   C     0.72272   0.94451   0.47594   0.00000  Uiso   1.00
C205   C     0.75345   0.75349   0.44536   0.00000  Uiso   1.00
C206   C     0.83905   0.71191   0.46142   0.00000  Uiso   1.00
C207   C     0.72616   0.66850   0.47271   0.00000  Uiso   1.00
H208   H     0.34849   0.80026   0.41895   0.00000  Uiso   1.00
H209   H     0.39303   0.79670   0.35652   0.00000  Uiso   1.00
H210   H     0.29823   0.89649   0.45064   0.00000  Uiso   1.00
H211   H     0.30060   0.70713   0.44842   0.00000  Uiso   1.00
H212   H     0.52690   0.79354   0.28934   0.00000  Uiso   1.00
H213   H     0.32700   0.00393   0.48781   0.00000  Uiso   1.00
H214   H     0.33198   0.60463   0.48313   0.00000  Uiso   1.00
H215   H     0.99947   0.80606   0.43467   0.00000  Uiso   1.00
H216   H     0.07974   0.80282   0.37309   0.00000  Uiso   1.00
H217   H     0.98493   0.90261   0.46722   0.00000  Uiso   1.00
H218   H     0.98730   0.71325   0.46499   0.00000  Uiso   1.00
H219   H     0.08425   0.79850   0.30279   0.00000  Uiso   1.00
H220   H     0.88435   0.00890   0.50126   0.00000  Uiso   1.00
H221   H     0.88934   0.60959   0.49658   0.00000  Uiso   1.00
O222   O     0.84663   0.79381   0.25528   0.00000  Uiso   1.00
O223   O     0.58436   0.06983   0.51567   0.00000  Uiso   1.00
O224   O     0.59091   0.54595   0.50952   0.00000  Uiso   1.00
N225   N     0.64706   0.79514   0.30096   0.00000  Uiso   1.00
N226   N     0.46016   0.99185   0.48651   0.00000  Uiso   1.00
N227   N     0.46482   0.61854   0.48214   0.00000  Uiso   1.00
N228   N     0.94697   0.79781   0.30819   0.00000  Uiso   1.00
N229   N     0.76007   0.99452   0.49375   0.00000  Uiso   1.00
N230   N     0.76473   0.62121   0.48938   0.00000  Uiso   1.00
C231   C     0.18669   0.06060   0.60892   0.00000  Uiso   1.00
C232   C     0.07216   0.06176   0.64066   0.00000  Uiso   1.00
C233   C     0.14292   0.06424   0.67138   0.00000  Uiso   1.00
C234   C     0.01519   0.06494   0.69735   0.00000  Uiso   1.00
C235   C     0.86651   0.06702   0.74733   0.00000  Uiso   1.00
C236   C     0.12245   0.11039   0.59072   0.00000  Uiso   1.00
C237   C     0.23550   0.15375   0.57946   0.00000  Uiso   1.00
C238   C     0.15010   0.19538   0.56338   0.00000  Uiso   1.00
C239   C     0.07951   0.27295   0.53583   0.00000  Uiso   1.00
C240   C     0.12376   0.00750   0.58953   0.00000  Uiso   1.00
C241   C     0.23792   0.96436   0.57726   0.00000  Uiso   1.00
C242   C     0.15362   0.91938   0.56018   0.00000  Uiso   1.00
C243   C     0.08507   0.83719   0.53077   0.00000  Uiso   1.00
C244   C     0.83401   0.05745   0.60039   0.00000  Uiso   1.00
C245   C     0.88060   0.06005   0.63602   0.00000  Uiso   1.00
C246   C     0.75273   0.06074   0.66195   0.00000  Uiso   1.00
C247   C     0.82329   0.06322   0.69270   0.00000  Uiso   1.00
C248   C     0.93090   0.10868   0.58609   0.00000  Uiso   1.00
C249   C     0.84531   0.15026   0.57002   0.00000  Uiso   1.00
C250   C     0.95819   0.19367   0.55874   0.00000  Uiso   1.00
C251   C     0.93220   0.00579   0.58490   0.00000  Uiso   1.00
C252   C     0.84772   0.96087   0.56783   0.00000  Uiso   1.00
C253   C     0.96172   0.91766   0.55553   0.00000  Uiso   1.00
H254   H     0.33582   0.06194   0.61253   0.00000  Uiso   1.00
H255   H     0.29118   0.06557   0.67496   0.00000  Uiso   1.00
H256   H     0.38374   0.15506   0.58305   0.00000  Uiso   1.00
H257   H     0.38615   0.96570   0.58085   0.00000  Uiso   1.00
H258   H     0.15720   0.06885   0.74213   0.00000  Uiso   1.00
H259   H     0.35238   0.25754   0.54833   0.00000  Uiso   1.00
H260   H     0.35747   0.85824   0.54369   0.00000  Uiso   1.00
H261   H     0.68487   0.05612   0.59678   0.00000  Uiso   1.00
H262   H     0.60450   0.05942   0.65835   0.00000  Uiso   1.00
H263   H     0.69707   0.14892   0.56644   0.00000  Uiso   1.00
H264   H     0.69948   0.95956   0.56425   0.00000  Uiso   1.00
H265   H     0.59987   0.06386   0.72866   0.00000  Uiso   1.00
H266   H     0.79506   0.25256   0.53485   0.00000  Uiso   1.00
H267   H     0.80014   0.85326   0.53021   0.00000  Uiso   1.00
O268   O     0.83741   0.06865   0.77618   0.00000  Uiso   1.00
O269   O     0.09349   0.31621   0.52191   0.00000  Uiso   1.00
O270   O     0.10017   0.79233   0.51583   0.00000  Uiso   1.00
N271   N     0.03706   0.06721   0.73051   0.00000  Uiso   1.00
N272   N     0.21954   0.24363   0.54932   0.00000  Uiso   1.00
N273   N     0.22431   0.87033   0.54498   0.00000  Uiso   1.00
N274   N     0.73717   0.06453   0.72326   0.00000  Uiso   1.00
N275   N     0.91965   0.24095   0.54207   0.00000  Uiso   1.00
N276   N     0.92441   0.86764   0.53773   0.00000  Uiso   1.00
C277   C     0.06060   0.55887   0.92891   0.00000  Uiso   1.00
C278   C     0.99723   0.55746   0.89419   0.00000  Uiso   1.00
C279   C     0.11284   0.55692   0.86662   0.00000  Uiso   1.00
C280   C     0.02783   0.55560   0.83708   0.00000  Uiso   1.00
C281   C     0.95889   0.55349   0.78346   0.00000  Uiso   1.00
C282   C     0.96869   0.50763   0.94403   0.00000  Uiso   1.00
C283   C     0.06031   0.46519   0.95837   0.00000  Uiso   1.00
C284   C     0.95126   0.42193   0.97079   0.00000  Uiso   1.00
C285   C     0.83800   0.34248   0.99456   0.00000  Uiso   1.00
C286   C     0.97152   0.61058   0.94617   0.00000  Uiso   1.00
C287   C     0.06552   0.65471   0.96231   0.00000  Uiso   1.00
C288   C     0.95885   0.69812   0.97654   0.00000  Uiso   1.00
C289   C     0.85000   0.77852   0.00364   0.00000  Uiso   1.00
C290   C     0.70402   0.55750   0.92550   0.00000  Uiso   1.00
C291   C     0.80354   0.55672   0.89234   0.00000  Uiso   1.00
C292   C     0.71833   0.55540   0.86284   0.00000  Uiso   1.00
C293   C     0.83380   0.55485   0.83523   0.00000  Uiso   1.00
C294   C     0.77501   0.50688   0.94218   0.00000  Uiso   1.00
C295   C     0.66580   0.46368   0.95459   0.00000  Uiso   1.00
C296   C     0.75723   0.42118   0.96894   0.00000  Uiso   1.00
C297   C     0.77784   0.60984   0.94432   0.00000  Uiso   1.00
C298   C     0.67101   0.65319   0.95853   0.00000  Uiso   1.00
C299   C     0.76482   0.69737   0.97469   0.00000  Uiso   1.00
H300   H     0.21138   0.55945   0.93036   0.00000  Uiso   1.00
H301   H     0.26273   0.55749   0.86806   0.00000  Uiso   1.00
H302   H     0.21019   0.46578   0.95980   0.00000  Uiso   1.00
H303   H     0.21540   0.65527   0.96374   0.00000  Uiso   1.00
H304   H     0.23423   0.55496   0.79818   0.00000  Uiso   1.00
H305   H     0.12346   0.36160   0.99162   0.00000  Uiso   1.00
H306   H     0.13445   0.76117   0.99994   0.00000  Uiso   1.00
H307   H     0.55322   0.55692   0.92406   0.00000  Uiso   1.00
H308   H     0.56845   0.55482   0.86141   0.00000  Uiso   1.00
H309   H     0.51592   0.46311   0.95315   0.00000  Uiso   1.00
H310   H     0.52113   0.65260   0.95709   0.00000  Uiso   1.00
H311   H     0.67073   0.55280   0.79278   0.00000  Uiso   1.00
H312   H     0.55996   0.35944   0.98623   0.00000  Uiso   1.00
H313   H     0.57095   0.75901   0.99454   0.00000  Uiso   1.00
O314   O     0.97437   0.55252   0.75439   0.00000  Uiso   1.00
O315   O     0.82905   0.29885   0.00818   0.00000  Uiso   1.00
O316   O     0.84346   0.82308   0.01909   0.00000  Uiso   1.00
N317   N     0.09952   0.55475   0.80551   0.00000  Uiso   1.00
N318   N     0.99596   0.37397   0.98636   0.00000  Uiso   1.00
N319   N     0.00623   0.74752   0.99414   0.00000  Uiso   1.00
N320   N     0.79631   0.55359   0.80260   0.00000  Uiso   1.00
N321   N     0.69275   0.37280   0.98346   0.00000  Uiso   1.00
N322   N     0.70302   0.74636   0.99124   0.00000  Uiso   1.00
C323   C     0.62513   0.30306   0.10256   0.00000  Uiso   1.00
C324   C     0.68836   0.30448   0.13729   0.00000  Uiso   1.00
C325   C     0.57263   0.30500   0.16485   0.00000  Uiso   1.00
C326   C     0.65752   0.30631   0.19439   0.00000  Uiso   1.00
C327   C     0.72623   0.30837   0.24803   0.00000  Uiso   1.00
C328   C     0.71433   0.25135   0.08532   0.00000  Uiso   1.00
C329   C     0.62043   0.20721   0.06918   0.00000  Uiso   1.00
C330   C     0.72720   0.16380   0.05497   0.00000  Uiso   1.00
C331   C     0.83624   0.08340   0.02790   0.00000  Uiso   1.00
C332   C     0.71705   0.35431   0.08745   0.00000  Uiso   1.00
C333   C     0.62545   0.39672   0.07309   0.00000  Uiso   1.00
C334   C     0.73451   0.43999   0.06066   0.00000  Uiso   1.00
C335   C     0.84778   0.51944   0.03690   0.00000  Uiso   1.00
C336   C     0.98169   0.30447   0.10602   0.00000  Uiso   1.00
C337   C     0.88203   0.30524   0.13917   0.00000  Uiso   1.00
C338   C     0.96712   0.30656   0.16868   0.00000  Uiso   1.00
C339   C     0.85153   0.30708   0.19628   0.00000  Uiso   1.00
C340   C     0.90799   0.25212   0.08720   0.00000  Uiso   1.00
C341   C     0.01492   0.20877   0.07300   0.00000  Uiso   1.00
C342   C     0.92121   0.16457   0.05685   0.00000  Uiso   1.00
C343   C     0.91072   0.35507   0.08933   0.00000  Uiso   1.00
C344   C     0.01994   0.39828   0.07692   0.00000  Uiso   1.00
C345   C     0.92853   0.44075   0.06254   0.00000  Uiso   1.00
H346   H     0.47436   0.30247   0.10110   0.00000  Uiso   1.00
H347   H     0.42276   0.30440   0.16339   0.00000  Uiso   1.00
H348   H     0.47056   0.20663   0.06773   0.00000  Uiso   1.00
H349   H     0.47558   0.39612   0.07164   0.00000  Uiso   1.00
H350   H     0.45096   0.30687   0.23327   0.00000  Uiso   1.00
H351   H     0.55176   0.10072   0.03156   0.00000  Uiso   1.00
H352   H     0.56234   0.50029   0.03981   0.00000  Uiso   1.00
H353   H     0.13248   0.30506   0.10748   0.00000  Uiso   1.00
H354   H     0.11699   0.30715   0.17012   0.00000  Uiso   1.00
H355   H     0.16479   0.20937   0.07446   0.00000  Uiso   1.00
H356   H     0.16981   0.39886   0.07837   0.00000  Uiso   1.00
H357   H     0.01443   0.30909   0.23874   0.00000  Uiso   1.00
H358   H     0.11522   0.10295   0.03702   0.00000  Uiso   1.00
H359   H     0.12581   0.50251   0.04527   0.00000  Uiso   1.00
O360   O     0.71063   0.30929   0.27710   0.00000  Uiso   1.00
O361   O     0.84288   0.03884   0.01245   0.00000  Uiso   1.00
O362   O     0.85676   0.56306   0.02328   0.00000  Uiso   1.00
N363   N     0.58570   0.30712   0.22596   0.00000  Uiso   1.00
N364   N     0.67994   0.11438   0.03738   0.00000  Uiso   1.00
N365   N     0.68983   0.48793   0.04508   0.00000  Uiso   1.00
N366   N     0.88889   0.30832   0.22891   0.00000  Uiso   1.00
N367   N     0.98313   0.11558   0.04032   0.00000  Uiso   1.00
N368   N     0.99303   0.48913   0.04802   0.00000  Uiso   1.00
