data_job_02173
_audit_creation_date              2018-12-19
_audit_creation_method            'Materials Studio'
_symmetry_space_group_name_H-M    'P1'
_symmetry_Int_Tables_number       1
_symmetry_cell_setting            triclinic
loop_
_symmetry_equiv_pos_as_xyz
  x,y,z
_cell_length_a                    19.8784
_cell_length_b                    25.9938
_cell_length_c                    9.6550
_cell_angle_alpha                 90.0000
_cell_angle_beta                  90.0000
_cell_angle_gamma                 90.0000
loop_
_atom_site_label
_atom_site_type_symbol
_atom_site_fract_x
_atom_site_fract_y
_atom_site_fract_z
_atom_site_U_iso_or_equiv
_atom_site_adp_type
_atom_site_occupancy
C1     C     0.37751   0.85073   0.82788   0.00000  Uiso   1.00
C2     C     0.44934   0.83652   0.86801   0.00000  Uiso   1.00
C3     C     0.46779   0.79718   0.95743   0.00000  Uiso   1.00
C4     C     0.53613   0.79036   0.98079   0.00000  Uiso   1.00
C5     C     0.64035   0.76354   0.05287   0.00000  Uiso   1.00
C6     C     0.36917   0.90740   0.86489   0.00000  Uiso   1.00
C7     C     0.32021   0.92765   0.95166   0.00000  Uiso   1.00
C8     C     0.32105   0.98050   0.97237   0.00000  Uiso   1.00
C9     C     0.30077   0.06373   0.03951   0.00000  Uiso   1.00
C10    C     0.37469   0.84791   0.67024   0.00000  Uiso   1.00
C11    C     0.33037   0.81815   0.59333   0.00000  Uiso   1.00
C12    C     0.33585   0.82093   0.45017   0.00000  Uiso   1.00
C13    C     0.32416   0.81179   0.21508   0.00000  Uiso   1.00
C14    C     0.46605   0.90859   0.71037   0.00000  Uiso   1.00
C15    C     0.49743   0.86795   0.80419   0.00000  Uiso   1.00
C16    C     0.56576   0.86119   0.82742   0.00000  Uiso   1.00
C17    C     0.58431   0.82184   0.91685   0.00000  Uiso   1.00
C18    C     0.41726   0.93883   0.80106   0.00000  Uiso   1.00
C19    C     0.41817   0.99167   0.82165   0.00000  Uiso   1.00
C20    C     0.36923   0.01199   0.90843   0.00000  Uiso   1.00
C21    C     0.42279   0.87934   0.60641   0.00000  Uiso   1.00
C22    C     0.42834   0.88217   0.46333   0.00000  Uiso   1.00
C23    C     0.38403   0.85242   0.38623   0.00000  Uiso   1.00
H24    H     0.34006   0.82626   0.87758   0.00000  Uiso   1.00
H25    H     0.43056   0.77286   0.00681   0.00000  Uiso   1.00
H26    H     0.28299   0.90332   0.00102   0.00000  Uiso   1.00
H27    H     0.29316   0.79384   0.64276   0.00000  Uiso   1.00
H28    H     0.55210   0.72754   0.12198   0.00000  Uiso   1.00
H29    H     0.24093   0.00261   0.10975   0.00000  Uiso   1.00
H30    H     0.26236   0.77175   0.35428   0.00000  Uiso   1.00
H31    H     0.50350   0.93306   0.66068   0.00000  Uiso   1.00
H32    H     0.60297   0.88552   0.77801   0.00000  Uiso   1.00
H33    H     0.45540   0.01597   0.77223   0.00000  Uiso   1.00
H34    H     0.46556   0.90649   0.41397   0.00000  Uiso   1.00
H35    H     0.69203   0.81897   0.93629   0.00000  Uiso   1.00
H36    H     0.38086   0.09404   0.92405   0.00000  Uiso   1.00
H37    H     0.40230   0.86319   0.16858   0.00000  Uiso   1.00
O38    O     0.68455   0.74007   0.11027   0.00000  Uiso   1.00
O39    O     0.27630   0.10095   0.09420   0.00000  Uiso   1.00
O40    O     0.30442   0.79807   0.10305   0.00000  Uiso   1.00
N41    N     0.57138   0.75557   0.06215   0.00000  Uiso   1.00
N42    N     0.28046   0.01275   0.05074   0.00000  Uiso   1.00
N43    N     0.30049   0.79692   0.34444   0.00000  Uiso   1.00
N44    N     0.64668   0.80477   0.96223   0.00000  Uiso   1.00
N45    N     0.35576   0.06195   0.95081   0.00000  Uiso   1.00
N46    N     0.37579   0.84613   0.24451   0.00000  Uiso   1.00
C47    C     0.12249   0.14927   0.32788   0.00000  Uiso   1.00
C48    C     0.05066   0.16348   0.36801   0.00000  Uiso   1.00
C49    C     0.03221   0.20282   0.45743   0.00000  Uiso   1.00
C50    C     0.96387   0.20964   0.48079   0.00000  Uiso   1.00
C51    C     0.85965   0.23646   0.55287   0.00000  Uiso   1.00
C52    C     0.13083   0.09260   0.36489   0.00000  Uiso   1.00
C53    C     0.17979   0.07235   0.45166   0.00000  Uiso   1.00
C54    C     0.17895   0.01950   0.47237   0.00000  Uiso   1.00
C55    C     0.19923   0.93627   0.53951   0.00000  Uiso   1.00
C56    C     0.12531   0.15209   0.17024   0.00000  Uiso   1.00
C57    C     0.16963   0.18185   0.09333   0.00000  Uiso   1.00
C58    C     0.16415   0.17907   0.95017   0.00000  Uiso   1.00
C59    C     0.17584   0.18821   0.71508   0.00000  Uiso   1.00
C60    C     0.03395   0.09141   0.21037   0.00000  Uiso   1.00
C61    C     0.00257   0.13205   0.30419   0.00000  Uiso   1.00
C62    C     0.93424   0.13881   0.32742   0.00000  Uiso   1.00
C63    C     0.91569   0.17816   0.41685   0.00000  Uiso   1.00
C64    C     0.08274   0.06117   0.30106   0.00000  Uiso   1.00
C65    C     0.08183   0.00833   0.32165   0.00000  Uiso   1.00
C66    C     0.13077   0.98801   0.40843   0.00000  Uiso   1.00
C67    C     0.07721   0.12066   0.10641   0.00000  Uiso   1.00
C68    C     0.07166   0.11783   0.96333   0.00000  Uiso   1.00
C69    C     0.11597   0.14758   0.88623   0.00000  Uiso   1.00
H70    H     0.15994   0.17374   0.37758   0.00000  Uiso   1.00
H71    H     0.06944   0.22714   0.50681   0.00000  Uiso   1.00
H72    H     0.21701   0.09668   0.50102   0.00000  Uiso   1.00
H73    H     0.20684   0.20616   0.14276   0.00000  Uiso   1.00
H74    H     0.94790   0.27246   0.62198   0.00000  Uiso   1.00
H75    H     0.25907   0.99739   0.60975   0.00000  Uiso   1.00
H76    H     0.23764   0.22825   0.85428   0.00000  Uiso   1.00
H77    H     0.99650   0.06694   0.16068   0.00000  Uiso   1.00
H78    H     0.89703   0.11448   0.27801   0.00000  Uiso   1.00
H79    H     0.04460   0.98403   0.27223   0.00000  Uiso   1.00
H80    H     0.03444   0.09351   0.91397   0.00000  Uiso   1.00
H81    H     0.80797   0.18103   0.43629   0.00000  Uiso   1.00
H82    H     0.11914   0.90596   0.42405   0.00000  Uiso   1.00
H83    H     0.09770   0.13681   0.66858   0.00000  Uiso   1.00
O84    O     0.81545   0.25993   0.61027   0.00000  Uiso   1.00
O85    O     0.22370   0.89905   0.59420   0.00000  Uiso   1.00
O86    O     0.19558   0.20193   0.60305   0.00000  Uiso   1.00
N87    N     0.92862   0.24443   0.56215   0.00000  Uiso   1.00
N88    N     0.21954   0.98725   0.55074   0.00000  Uiso   1.00
N89    N     0.19951   0.20308   0.84444   0.00000  Uiso   1.00
N90    N     0.85332   0.19523   0.46223   0.00000  Uiso   1.00
N91    N     0.14424   0.93805   0.45081   0.00000  Uiso   1.00
N92    N     0.12421   0.15387   0.74451   0.00000  Uiso   1.00
C93    C     0.62249   0.35073   0.67212   0.00000  Uiso   1.00
C94    C     0.55066   0.33652   0.63199   0.00000  Uiso   1.00
C95    C     0.53221   0.29718   0.54257   0.00000  Uiso   1.00
C96    C     0.46387   0.29036   0.51921   0.00000  Uiso   1.00
C97    C     0.35965   0.26354   0.44713   0.00000  Uiso   1.00
C98    C     0.63083   0.40740   0.63511   0.00000  Uiso   1.00
C99    C     0.67979   0.42765   0.54834   0.00000  Uiso   1.00
C100   C     0.67895   0.48050   0.52763   0.00000  Uiso   1.00
C101   C     0.69923   0.56373   0.46049   0.00000  Uiso   1.00
C102   C     0.62531   0.34791   0.82976   0.00000  Uiso   1.00
C103   C     0.66963   0.31815   0.90667   0.00000  Uiso   1.00
C104   C     0.66415   0.32093   0.04983   0.00000  Uiso   1.00
C105   C     0.67584   0.31179   0.28492   0.00000  Uiso   1.00
C106   C     0.53395   0.40859   0.78963   0.00000  Uiso   1.00
C107   C     0.50257   0.36795   0.69581   0.00000  Uiso   1.00
C108   C     0.43424   0.36119   0.67258   0.00000  Uiso   1.00
C109   C     0.41569   0.32184   0.58315   0.00000  Uiso   1.00
C110   C     0.58274   0.43883   0.69894   0.00000  Uiso   1.00
C111   C     0.58183   0.49167   0.67835   0.00000  Uiso   1.00
C112   C     0.63077   0.51199   0.59157   0.00000  Uiso   1.00
C113   C     0.57721   0.37934   0.89359   0.00000  Uiso   1.00
C114   C     0.57166   0.38217   0.03667   0.00000  Uiso   1.00
C115   C     0.61597   0.35242   0.11377   0.00000  Uiso   1.00
H116   H     0.65994   0.32626   0.62242   0.00000  Uiso   1.00
H117   H     0.56944   0.27286   0.49319   0.00000  Uiso   1.00
H118   H     0.71701   0.40332   0.49898   0.00000  Uiso   1.00
H119   H     0.70684   0.29384   0.85724   0.00000  Uiso   1.00
H120   H     0.44790   0.22754   0.37802   0.00000  Uiso   1.00
H121   H     0.75907   0.50261   0.39025   0.00000  Uiso   1.00
H122   H     0.73764   0.27175   0.14572   0.00000  Uiso   1.00
H123   H     0.49650   0.43306   0.83932   0.00000  Uiso   1.00
H124   H     0.39703   0.38552   0.72199   0.00000  Uiso   1.00
H125   H     0.54460   0.51597   0.72777   0.00000  Uiso   1.00
H126   H     0.53444   0.40649   0.08603   0.00000  Uiso   1.00
H127   H     0.30797   0.31897   0.56371   0.00000  Uiso   1.00
H128   H     0.61914   0.59404   0.57595   0.00000  Uiso   1.00
H129   H     0.59770   0.36319   0.33142   0.00000  Uiso   1.00
O130   O     0.31545   0.24007   0.38973   0.00000  Uiso   1.00
O131   O     0.72370   0.60095   0.40580   0.00000  Uiso   1.00
O132   O     0.69558   0.29807   0.39695   0.00000  Uiso   1.00
N133   N     0.42862   0.25557   0.43785   0.00000  Uiso   1.00
N134   N     0.71954   0.51275   0.44926   0.00000  Uiso   1.00
N135   N     0.69951   0.29692   0.15556   0.00000  Uiso   1.00
N136   N     0.35332   0.30477   0.53777   0.00000  Uiso   1.00
N137   N     0.64424   0.56195   0.54919   0.00000  Uiso   1.00
N138   N     0.62421   0.34613   0.25549   0.00000  Uiso   1.00
C139   C     0.87751   0.64927   0.17212   0.00000  Uiso   1.00
C140   C     0.94934   0.66348   0.13199   0.00000  Uiso   1.00
C141   C     0.96779   0.70282   0.04257   0.00000  Uiso   1.00
C142   C     0.03613   0.70964   0.01921   0.00000  Uiso   1.00
C143   C     0.14035   0.73646   0.94713   0.00000  Uiso   1.00
C144   C     0.86917   0.59260   0.13511   0.00000  Uiso   1.00
C145   C     0.82021   0.57235   0.04834   0.00000  Uiso   1.00
C146   C     0.82105   0.51950   0.02763   0.00000  Uiso   1.00
C147   C     0.80077   0.43627   0.96049   0.00000  Uiso   1.00
C148   C     0.87469   0.65209   0.32976   0.00000  Uiso   1.00
C149   C     0.83037   0.68185   0.40667   0.00000  Uiso   1.00
C150   C     0.83585   0.67907   0.54983   0.00000  Uiso   1.00
C151   C     0.82416   0.68821   0.78492   0.00000  Uiso   1.00
C152   C     0.96605   0.59141   0.28963   0.00000  Uiso   1.00
C153   C     0.99743   0.63205   0.19581   0.00000  Uiso   1.00
C154   C     0.06576   0.63881   0.17258   0.00000  Uiso   1.00
C155   C     0.08431   0.67816   0.08315   0.00000  Uiso   1.00
C156   C     0.91726   0.56117   0.19894   0.00000  Uiso   1.00
C157   C     0.91817   0.50833   0.17835   0.00000  Uiso   1.00
C158   C     0.86923   0.48801   0.09157   0.00000  Uiso   1.00
C159   C     0.92279   0.62066   0.39359   0.00000  Uiso   1.00
C160   C     0.92834   0.61783   0.53667   0.00000  Uiso   1.00
C161   C     0.88403   0.64758   0.61377   0.00000  Uiso   1.00
H162   H     0.84006   0.67374   0.12242   0.00000  Uiso   1.00
H163   H     0.93056   0.72714   0.99319   0.00000  Uiso   1.00
H164   H     0.78299   0.59668   0.99898   0.00000  Uiso   1.00
H165   H     0.79316   0.70616   0.35724   0.00000  Uiso   1.00
H166   H     0.05210   0.77246   0.87802   0.00000  Uiso   1.00
H167   H     0.74093   0.49739   0.89025   0.00000  Uiso   1.00
H168   H     0.76236   0.72825   0.64572   0.00000  Uiso   1.00
H169   H     0.00350   0.56694   0.33932   0.00000  Uiso   1.00
H170   H     0.10297   0.61448   0.22199   0.00000  Uiso   1.00
H171   H     0.95540   0.48403   0.22777   0.00000  Uiso   1.00
H172   H     0.96556   0.59351   0.58603   0.00000  Uiso   1.00
H173   H     0.19203   0.68103   0.06371   0.00000  Uiso   1.00
H174   H     0.88086   0.40596   0.07595   0.00000  Uiso   1.00
H175   H     0.90230   0.63681   0.83142   0.00000  Uiso   1.00
O176   O     0.18455   0.75993   0.88973   0.00000  Uiso   1.00
O177   O     0.77630   0.39905   0.90580   0.00000  Uiso   1.00
O178   O     0.80442   0.70193   0.89695   0.00000  Uiso   1.00
N179   N     0.07138   0.74443   0.93785   0.00000  Uiso   1.00
N180   N     0.78046   0.48725   0.94926   0.00000  Uiso   1.00
N181   N     0.80049   0.70308   0.65556   0.00000  Uiso   1.00
N182   N     0.14668   0.69523   0.03777   0.00000  Uiso   1.00
N183   N     0.85576   0.43805   0.04919   0.00000  Uiso   1.00
N184   N     0.87579   0.65387   0.75549   0.00000  Uiso   1.00
C185   C     0.62249   0.14927   0.17212   0.00000  Uiso   1.00
C186   C     0.55066   0.16348   0.13199   0.00000  Uiso   1.00
C187   C     0.53221   0.20282   0.04257   0.00000  Uiso   1.00
C188   C     0.46387   0.20964   0.01921   0.00000  Uiso   1.00
C189   C     0.35965   0.23646   0.94713   0.00000  Uiso   1.00
C190   C     0.63083   0.09260   0.13511   0.00000  Uiso   1.00
C191   C     0.67979   0.07235   0.04834   0.00000  Uiso   1.00
C192   C     0.67895   0.01950   0.02763   0.00000  Uiso   1.00
C193   C     0.69923   0.93627   0.96049   0.00000  Uiso   1.00
C194   C     0.62531   0.15209   0.32976   0.00000  Uiso   1.00
C195   C     0.66963   0.18185   0.40667   0.00000  Uiso   1.00
C196   C     0.66415   0.17907   0.54983   0.00000  Uiso   1.00
C197   C     0.67584   0.18821   0.78492   0.00000  Uiso   1.00
C198   C     0.53395   0.09141   0.28963   0.00000  Uiso   1.00
C199   C     0.50257   0.13205   0.19581   0.00000  Uiso   1.00
C200   C     0.43424   0.13881   0.17258   0.00000  Uiso   1.00
C201   C     0.41569   0.17816   0.08315   0.00000  Uiso   1.00
C202   C     0.58274   0.06117   0.19894   0.00000  Uiso   1.00
C203   C     0.58183   0.00833   0.17835   0.00000  Uiso   1.00
C204   C     0.63077   0.98801   0.09157   0.00000  Uiso   1.00
C205   C     0.57721   0.12066   0.39359   0.00000  Uiso   1.00
C206   C     0.57166   0.11783   0.53667   0.00000  Uiso   1.00
C207   C     0.61597   0.14758   0.61377   0.00000  Uiso   1.00
H208   H     0.65994   0.17374   0.12242   0.00000  Uiso   1.00
H209   H     0.56944   0.22714   0.99319   0.00000  Uiso   1.00
H210   H     0.71701   0.09668   0.99898   0.00000  Uiso   1.00
H211   H     0.70684   0.20616   0.35724   0.00000  Uiso   1.00
H212   H     0.44790   0.27246   0.87802   0.00000  Uiso   1.00
H213   H     0.75907   0.99739   0.89025   0.00000  Uiso   1.00
H214   H     0.73764   0.22825   0.64572   0.00000  Uiso   1.00
H215   H     0.49650   0.06694   0.33932   0.00000  Uiso   1.00
H216   H     0.39703   0.11448   0.22199   0.00000  Uiso   1.00
H217   H     0.54460   0.98403   0.22777   0.00000  Uiso   1.00
H218   H     0.53444   0.09351   0.58603   0.00000  Uiso   1.00
H219   H     0.30797   0.18103   0.06371   0.00000  Uiso   1.00
H220   H     0.61914   0.90596   0.07595   0.00000  Uiso   1.00
H221   H     0.59770   0.13681   0.83142   0.00000  Uiso   1.00
O222   O     0.31545   0.25993   0.88973   0.00000  Uiso   1.00
O223   O     0.72370   0.89905   0.90580   0.00000  Uiso   1.00
O224   O     0.69558   0.20193   0.89695   0.00000  Uiso   1.00
N225   N     0.42862   0.24443   0.93785   0.00000  Uiso   1.00
N226   N     0.71954   0.98725   0.94926   0.00000  Uiso   1.00
N227   N     0.69951   0.20308   0.65556   0.00000  Uiso   1.00
N228   N     0.35332   0.19523   0.03777   0.00000  Uiso   1.00
N229   N     0.64424   0.93805   0.04919   0.00000  Uiso   1.00
N230   N     0.62421   0.15387   0.75549   0.00000  Uiso   1.00
C231   C     0.87751   0.85073   0.67212   0.00000  Uiso   1.00
C232   C     0.94934   0.83652   0.63199   0.00000  Uiso   1.00
C233   C     0.96779   0.79718   0.54257   0.00000  Uiso   1.00
C234   C     0.03613   0.79036   0.51921   0.00000  Uiso   1.00
C235   C     0.14035   0.76354   0.44713   0.00000  Uiso   1.00
C236   C     0.86917   0.90740   0.63511   0.00000  Uiso   1.00
C237   C     0.82021   0.92765   0.54834   0.00000  Uiso   1.00
C238   C     0.82105   0.98050   0.52763   0.00000  Uiso   1.00
C239   C     0.80077   0.06373   0.46049   0.00000  Uiso   1.00
C240   C     0.87469   0.84791   0.82976   0.00000  Uiso   1.00
C241   C     0.83037   0.81815   0.90667   0.00000  Uiso   1.00
C242   C     0.83585   0.82093   0.04983   0.00000  Uiso   1.00
C243   C     0.82416   0.81179   0.28492   0.00000  Uiso   1.00
C244   C     0.96605   0.90859   0.78963   0.00000  Uiso   1.00
C245   C     0.99743   0.86795   0.69581   0.00000  Uiso   1.00
C246   C     0.06576   0.86119   0.67258   0.00000  Uiso   1.00
C247   C     0.08431   0.82184   0.58315   0.00000  Uiso   1.00
C248   C     0.91726   0.93883   0.69894   0.00000  Uiso   1.00
C249   C     0.91817   0.99167   0.67835   0.00000  Uiso   1.00
C250   C     0.86923   0.01199   0.59157   0.00000  Uiso   1.00
C251   C     0.92279   0.87934   0.89359   0.00000  Uiso   1.00
C252   C     0.92834   0.88217   0.03667   0.00000  Uiso   1.00
C253   C     0.88403   0.85242   0.11377   0.00000  Uiso   1.00
H254   H     0.84006   0.82626   0.62242   0.00000  Uiso   1.00
H255   H     0.93056   0.77286   0.49319   0.00000  Uiso   1.00
H256   H     0.78299   0.90332   0.49898   0.00000  Uiso   1.00
H257   H     0.79316   0.79384   0.85724   0.00000  Uiso   1.00
H258   H     0.05210   0.72754   0.37802   0.00000  Uiso   1.00
H259   H     0.74093   0.00261   0.39025   0.00000  Uiso   1.00
H260   H     0.76236   0.77175   0.14572   0.00000  Uiso   1.00
H261   H     0.00350   0.93306   0.83932   0.00000  Uiso   1.00
H262   H     0.10297   0.88552   0.72199   0.00000  Uiso   1.00
H263   H     0.95540   0.01597   0.72777   0.00000  Uiso   1.00
H264   H     0.96556   0.90649   0.08603   0.00000  Uiso   1.00
H265   H     0.19203   0.81897   0.56371   0.00000  Uiso   1.00
H266   H     0.88086   0.09404   0.57595   0.00000  Uiso   1.00
H267   H     0.90230   0.86319   0.33142   0.00000  Uiso   1.00
O268   O     0.18455   0.74007   0.38973   0.00000  Uiso   1.00
O269   O     0.77630   0.10095   0.40580   0.00000  Uiso   1.00
O270   O     0.80442   0.79807   0.39695   0.00000  Uiso   1.00
N271   N     0.07138   0.75557   0.43785   0.00000  Uiso   1.00
N272   N     0.78046   0.01275   0.44926   0.00000  Uiso   1.00
N273   N     0.80049   0.79692   0.15556   0.00000  Uiso   1.00
N274   N     0.14668   0.80477   0.53777   0.00000  Uiso   1.00
N275   N     0.85576   0.06195   0.54919   0.00000  Uiso   1.00
N276   N     0.87579   0.84613   0.25549   0.00000  Uiso   1.00
C277   C     0.37751   0.64927   0.32788   0.00000  Uiso   1.00
C278   C     0.44934   0.66348   0.36801   0.00000  Uiso   1.00
C279   C     0.46779   0.70282   0.45743   0.00000  Uiso   1.00
C280   C     0.53613   0.70964   0.48079   0.00000  Uiso   1.00
C281   C     0.64035   0.73646   0.55287   0.00000  Uiso   1.00
C282   C     0.36917   0.59260   0.36489   0.00000  Uiso   1.00
C283   C     0.32021   0.57235   0.45166   0.00000  Uiso   1.00
C284   C     0.32105   0.51950   0.47237   0.00000  Uiso   1.00
C285   C     0.30077   0.43627   0.53951   0.00000  Uiso   1.00
C286   C     0.37469   0.65209   0.17024   0.00000  Uiso   1.00
C287   C     0.33037   0.68185   0.09333   0.00000  Uiso   1.00
C288   C     0.33585   0.67907   0.95017   0.00000  Uiso   1.00
C289   C     0.32416   0.68821   0.71508   0.00000  Uiso   1.00
C290   C     0.46605   0.59141   0.21037   0.00000  Uiso   1.00
C291   C     0.49743   0.63205   0.30419   0.00000  Uiso   1.00
C292   C     0.56576   0.63881   0.32742   0.00000  Uiso   1.00
C293   C     0.58431   0.67816   0.41685   0.00000  Uiso   1.00
C294   C     0.41726   0.56117   0.30106   0.00000  Uiso   1.00
C295   C     0.41817   0.50833   0.32165   0.00000  Uiso   1.00
C296   C     0.36923   0.48801   0.40843   0.00000  Uiso   1.00
C297   C     0.42279   0.62066   0.10641   0.00000  Uiso   1.00
C298   C     0.42834   0.61783   0.96333   0.00000  Uiso   1.00
C299   C     0.38403   0.64758   0.88623   0.00000  Uiso   1.00
H300   H     0.34006   0.67374   0.37758   0.00000  Uiso   1.00
H301   H     0.43056   0.72714   0.50681   0.00000  Uiso   1.00
H302   H     0.28299   0.59668   0.50102   0.00000  Uiso   1.00
H303   H     0.29316   0.70616   0.14276   0.00000  Uiso   1.00
H304   H     0.55210   0.77246   0.62198   0.00000  Uiso   1.00
H305   H     0.24093   0.49739   0.60975   0.00000  Uiso   1.00
H306   H     0.26236   0.72825   0.85428   0.00000  Uiso   1.00
H307   H     0.50350   0.56694   0.16068   0.00000  Uiso   1.00
H308   H     0.60297   0.61448   0.27801   0.00000  Uiso   1.00
H309   H     0.45540   0.48403   0.27223   0.00000  Uiso   1.00
H310   H     0.46556   0.59351   0.91397   0.00000  Uiso   1.00
H311   H     0.69203   0.68103   0.43629   0.00000  Uiso   1.00
H312   H     0.38086   0.40596   0.42405   0.00000  Uiso   1.00
H313   H     0.40230   0.63681   0.66858   0.00000  Uiso   1.00
O314   O     0.68455   0.75993   0.61027   0.00000  Uiso   1.00
O315   O     0.27630   0.39905   0.59420   0.00000  Uiso   1.00
O316   O     0.30442   0.70193   0.60305   0.00000  Uiso   1.00
N317   N     0.57138   0.74443   0.56215   0.00000  Uiso   1.00
N318   N     0.28046   0.48725   0.55074   0.00000  Uiso   1.00
N319   N     0.30049   0.70308   0.84444   0.00000  Uiso   1.00
N320   N     0.64668   0.69523   0.46223   0.00000  Uiso   1.00
N321   N     0.35576   0.43805   0.45081   0.00000  Uiso   1.00
N322   N     0.37579   0.65387   0.74451   0.00000  Uiso   1.00
C323   C     0.12249   0.35073   0.82788   0.00000  Uiso   1.00
C324   C     0.05066   0.33652   0.86801   0.00000  Uiso   1.00
C325   C     0.03221   0.29718   0.95743   0.00000  Uiso   1.00
C326   C     0.96387   0.29036   0.98079   0.00000  Uiso   1.00
C327   C     0.85965   0.26354   0.05287   0.00000  Uiso   1.00
C328   C     0.13083   0.40740   0.86489   0.00000  Uiso   1.00
C329   C     0.17979   0.42765   0.95166   0.00000  Uiso   1.00
C330   C     0.17895   0.48050   0.97237   0.00000  Uiso   1.00
C331   C     0.19923   0.56373   0.03951   0.00000  Uiso   1.00
C332   C     0.12531   0.34791   0.67024   0.00000  Uiso   1.00
C333   C     0.16963   0.31815   0.59333   0.00000  Uiso   1.00
C334   C     0.16415   0.32093   0.45017   0.00000  Uiso   1.00
C335   C     0.17584   0.31179   0.21508   0.00000  Uiso   1.00
C336   C     0.03395   0.40859   0.71037   0.00000  Uiso   1.00
C337   C     0.00257   0.36795   0.80419   0.00000  Uiso   1.00
C338   C     0.93424   0.36119   0.82742   0.00000  Uiso   1.00
C339   C     0.91569   0.32184   0.91685   0.00000  Uiso   1.00
C340   C     0.08274   0.43883   0.80106   0.00000  Uiso   1.00
C341   C     0.08183   0.49167   0.82165   0.00000  Uiso   1.00
C342   C     0.13077   0.51199   0.90843   0.00000  Uiso   1.00
C343   C     0.07721   0.37934   0.60641   0.00000  Uiso   1.00
C344   C     0.07166   0.38217   0.46333   0.00000  Uiso   1.00
C345   C     0.11597   0.35242   0.38623   0.00000  Uiso   1.00
H346   H     0.15994   0.32626   0.87758   0.00000  Uiso   1.00
H347   H     0.06944   0.27286   0.00681   0.00000  Uiso   1.00
H348   H     0.21701   0.40332   0.00102   0.00000  Uiso   1.00
H349   H     0.20684   0.29384   0.64276   0.00000  Uiso   1.00
H350   H     0.94790   0.22754   0.12198   0.00000  Uiso   1.00
H351   H     0.25907   0.50261   0.10975   0.00000  Uiso   1.00
H352   H     0.23764   0.27175   0.35428   0.00000  Uiso   1.00
H353   H     0.99650   0.43306   0.66068   0.00000  Uiso   1.00
H354   H     0.89703   0.38552   0.77801   0.00000  Uiso   1.00
H355   H     0.04460   0.51597   0.77223   0.00000  Uiso   1.00
H356   H     0.03444   0.40649   0.41397   0.00000  Uiso   1.00
H357   H     0.80797   0.31897   0.93629   0.00000  Uiso   1.00
H358   H     0.11914   0.59404   0.92405   0.00000  Uiso   1.00
H359   H     0.09770   0.36319   0.16858   0.00000  Uiso   1.00
O360   O     0.81545   0.24007   0.11027   0.00000  Uiso   1.00
O361   O     0.22370   0.60095   0.09420   0.00000  Uiso   1.00
O362   O     0.19558   0.29807   0.10305   0.00000  Uiso   1.00
N363   N     0.92862   0.25557   0.06215   0.00000  Uiso   1.00
N364   N     0.21954   0.51275   0.05074   0.00000  Uiso   1.00
N365   N     0.19951   0.29692   0.34444   0.00000  Uiso   1.00
N366   N     0.85332   0.30477   0.96223   0.00000  Uiso   1.00
N367   N     0.14424   0.56195   0.95081   0.00000  Uiso   1.00
N368   N     0.12421   0.34613   0.24451   0.00000  Uiso   1.00
