data_job_04933
_audit_creation_date              2018-12-19
_audit_creation_method            'Materials Studio'
_symmetry_space_group_name_H-M    'P1'
_symmetry_Int_Tables_number       1
_symmetry_cell_setting            triclinic
loop_
_symmetry_equiv_pos_as_xyz
  x,y,z
_cell_length_a                    23.6953
_cell_length_b                    16.1681
_cell_length_c                    15.1859
_cell_angle_alpha                 90.0000
_cell_angle_beta                  90.0000
_cell_angle_gamma                 90.0000
loop_
_atom_site_label
_atom_site_type_symbol
_atom_site_fract_x
_atom_site_fract_y
_atom_site_fract_z
_atom_site_U_iso_or_equiv
_atom_site_adp_type
_atom_site_occupancy
C1     C     0.58305   0.62160   0.69512   0.00000  Uiso   1.00
C2     C     0.57471   0.68625   0.62318   0.00000  Uiso   1.00
C3     C     0.54876   0.76256   0.63374   0.00000  Uiso   1.00
C4     C     0.54528   0.81287   0.55985   0.00000  Uiso   1.00
C5     C     0.52901   0.91708   0.46052   0.00000  Uiso   1.00
C6     C     0.55556   0.54255   0.66105   0.00000  Uiso   1.00
C7     C     0.51350   0.49802   0.70347   0.00000  Uiso   1.00
C8     C     0.49391   0.42735   0.66146   0.00000  Uiso   1.00
C9     C     0.44793   0.30842   0.62098   0.00000  Uiso   1.00
C10    C     0.64627   0.60423   0.69833   0.00000  Uiso   1.00
C11    C     0.68048   0.61155   0.77209   0.00000  Uiso   1.00
C12    C     0.73726   0.59280   0.76147   0.00000  Uiso   1.00
C13    C     0.83212   0.56964   0.77886   0.00000  Uiso   1.00
C14    C     0.62303   0.57526   0.54511   0.00000  Uiso   1.00
C15    C     0.59643   0.66109   0.54170   0.00000  Uiso   1.00
C16    C     0.59300   0.71130   0.46778   0.00000  Uiso   1.00
C17    C     0.56704   0.78767   0.47823   0.00000  Uiso   1.00
C18    C     0.57727   0.51738   0.57958   0.00000  Uiso   1.00
C19    C     0.55774   0.44676   0.53751   0.00000  Uiso   1.00
C20    C     0.51567   0.40214   0.57984   0.00000  Uiso   1.00
C21    C     0.66799   0.57907   0.61685   0.00000  Uiso   1.00
C22    C     0.72472   0.56030   0.60612   0.00000  Uiso   1.00
C23    C     0.75902   0.56759   0.67985   0.00000  Uiso   1.00
H24    H     0.56614   0.64118   0.75855   0.00000  Uiso   1.00
H25    H     0.53195   0.78201   0.69680   0.00000  Uiso   1.00
H26    H     0.49671   0.51750   0.76652   0.00000  Uiso   1.00
H27    H     0.66366   0.63102   0.83513   0.00000  Uiso   1.00
H28    H     0.50361   0.92703   0.59240   0.00000  Uiso   1.00
H29    H     0.42931   0.36929   0.73942   0.00000  Uiso   1.00
H30    H     0.78137   0.60867   0.88410   0.00000  Uiso   1.00
H31    H     0.63994   0.55567   0.48168   0.00000  Uiso   1.00
H32    H     0.60981   0.69181   0.40473   0.00000  Uiso   1.00
H33    H     0.57456   0.42730   0.47446   0.00000  Uiso   1.00
H34    H     0.74151   0.54082   0.54307   0.00000  Uiso   1.00
H35    H     0.56680   0.85382   0.35535   0.00000  Uiso   1.00
H36    H     0.49250   0.29608   0.50238   0.00000  Uiso   1.00
H37    H     0.84455   0.53546   0.64705   0.00000  Uiso   1.00
O38    O     0.51403   0.98151   0.42824   0.00000  Uiso   1.00
O39    O     0.41656   0.24977   0.62115   0.00000  Uiso   1.00
O40    O     0.87845   0.56384   0.81095   0.00000  Uiso   1.00
N41    N     0.52263   0.89112   0.54717   0.00000  Uiso   1.00
N42    N     0.45315   0.36968   0.68463   0.00000  Uiso   1.00
N43    N     0.78229   0.59345   0.81989   0.00000  Uiso   1.00
N44    N     0.55663   0.85173   0.41962   0.00000  Uiso   1.00
N45    N     0.48715   0.33029   0.55707   0.00000  Uiso   1.00
N46    N     0.81629   0.55406   0.69234   0.00000  Uiso   1.00
C47    C     0.81468   0.12444   0.30694   0.00000  Uiso   1.00
C48    C     0.82053   0.19488   0.37308   0.00000  Uiso   1.00
C49    C     0.84479   0.27143   0.35647   0.00000  Uiso   1.00
C50    C     0.84610   0.32748   0.42570   0.00000  Uiso   1.00
C51    C     0.85859   0.43987   0.51582   0.00000  Uiso   1.00
C52    C     0.84358   0.04983   0.34867   0.00000  Uiso   1.00
C53    C     0.88721   0.00442   0.31151   0.00000  Uiso   1.00
C54    C     0.90792   0.93837   0.36019   0.00000  Uiso   1.00
C55    C     0.95616   0.82553   0.41237   0.00000  Uiso   1.00
C56    C     0.75197   0.10352   0.30357   0.00000  Uiso   1.00
C57    C     0.71857   0.10323   0.22850   0.00000  Uiso   1.00
C58    C     0.66214   0.08236   0.23920   0.00000  Uiso   1.00
C59    C     0.56814   0.05289   0.22136   0.00000  Uiso   1.00
C60    C     0.77387   0.08785   0.45943   0.00000  Uiso   1.00
C61    C     0.79837   0.17501   0.45591   0.00000  Uiso   1.00
C62    C     0.79964   0.23096   0.52519   0.00000  Uiso   1.00
C63    C     0.82390   0.30758   0.50868   0.00000  Uiso   1.00
C64    C     0.82142   0.02996   0.43149   0.00000  Uiso   1.00
C65    C     0.84206   0.96395   0.48023   0.00000  Uiso   1.00
C66    C     0.88572   0.91846   0.44317   0.00000  Uiso   1.00
C67    C     0.72980   0.08365   0.38640   0.00000  Uiso   1.00
C68    C     0.67342   0.06277   0.39722   0.00000  Uiso   1.00
C69    C     0.63994   0.06246   0.32218   0.00000  Uiso   1.00
H70    H     0.83194   0.13990   0.24245   0.00000  Uiso   1.00
H71    H     0.86195   0.28678   0.29236   0.00000  Uiso   1.00
H72    H     0.90435   0.01981   0.24741   0.00000  Uiso   1.00
H73    H     0.73574   0.11861   0.16441   0.00000  Uiso   1.00
H74    H     0.88546   0.44085   0.38424   0.00000  Uiso   1.00
H75    H     0.97486   0.87791   0.28944   0.00000  Uiso   1.00
H76    H     0.61930   0.08626   0.11441   0.00000  Uiso   1.00
H77    H     0.75661   0.07238   0.52392   0.00000  Uiso   1.00
H78    H     0.78248   0.21557   0.58928   0.00000  Uiso   1.00
H79    H     0.82490   0.94859   0.54432   0.00000  Uiso   1.00
H80    H     0.65628   0.04740   0.46132   0.00000  Uiso   1.00
H81    H     0.82097   0.38305   0.62522   0.00000  Uiso   1.00
H82    H     0.91037   0.82011   0.53042   0.00000  Uiso   1.00
H83    H     0.55481   0.02845   0.35540   0.00000  Uiso   1.00
O84    O     0.87161   0.50735   0.54266   0.00000  Uiso   1.00
O85    O     0.98890   0.76879   0.41827   0.00000  Uiso   1.00
O86    O     0.52241   0.04213   0.18864   0.00000  Uiso   1.00
N87    N     0.86672   0.40760   0.43198   0.00000  Uiso   1.00
N88    N     0.95032   0.88130   0.34335   0.00000  Uiso   1.00
N89    N     0.61790   0.07606   0.17971   0.00000  Uiso   1.00
N90    N     0.83201   0.37650   0.56165   0.00000  Uiso   1.00
N91    N     0.91561   0.85020   0.47303   0.00000  Uiso   1.00
N92    N     0.58319   0.04496   0.30939   0.00000  Uiso   1.00
C93    C     0.41695   0.37840   0.19512   0.00000  Uiso   1.00
C94    C     0.42529   0.31375   0.12318   0.00000  Uiso   1.00
C95    C     0.45124   0.23744   0.13374   0.00000  Uiso   1.00
C96    C     0.45472   0.18713   0.05985   0.00000  Uiso   1.00
C97    C     0.47099   0.08292   0.96052   0.00000  Uiso   1.00
C98    C     0.44444   0.45745   0.16105   0.00000  Uiso   1.00
C99    C     0.48650   0.50198   0.20347   0.00000  Uiso   1.00
C100   C     0.50609   0.57265   0.16146   0.00000  Uiso   1.00
C101   C     0.55207   0.69158   0.12098   0.00000  Uiso   1.00
C102   C     0.35373   0.39577   0.19833   0.00000  Uiso   1.00
C103   C     0.31952   0.38845   0.27209   0.00000  Uiso   1.00
C104   C     0.26274   0.40720   0.26147   0.00000  Uiso   1.00
C105   C     0.16788   0.43036   0.27886   0.00000  Uiso   1.00
C106   C     0.37697   0.42474   0.04511   0.00000  Uiso   1.00
C107   C     0.40357   0.33891   0.04170   0.00000  Uiso   1.00
C108   C     0.40700   0.28870   0.96778   0.00000  Uiso   1.00
C109   C     0.43296   0.21233   0.97823   0.00000  Uiso   1.00
C110   C     0.42273   0.48262   0.07958   0.00000  Uiso   1.00
C111   C     0.44226   0.55324   0.03751   0.00000  Uiso   1.00
C112   C     0.48433   0.59786   0.07984   0.00000  Uiso   1.00
C113   C     0.33201   0.42093   0.11685   0.00000  Uiso   1.00
C114   C     0.27528   0.43970   0.10612   0.00000  Uiso   1.00
C115   C     0.24098   0.43241   0.17985   0.00000  Uiso   1.00
H116   H     0.43386   0.35882   0.25855   0.00000  Uiso   1.00
H117   H     0.46805   0.21799   0.19680   0.00000  Uiso   1.00
H118   H     0.50329   0.48250   0.26652   0.00000  Uiso   1.00
H119   H     0.33634   0.36898   0.33513   0.00000  Uiso   1.00
H120   H     0.49639   0.07297   0.09240   0.00000  Uiso   1.00
H121   H     0.57069   0.63071   0.23942   0.00000  Uiso   1.00
H122   H     0.21863   0.39133   0.38410   0.00000  Uiso   1.00
H123   H     0.36006   0.44433   0.98168   0.00000  Uiso   1.00
H124   H     0.39019   0.30819   0.90473   0.00000  Uiso   1.00
H125   H     0.42544   0.57270   0.97446   0.00000  Uiso   1.00
H126   H     0.25849   0.45918   0.04307   0.00000  Uiso   1.00
H127   H     0.43320   0.14618   0.85535   0.00000  Uiso   1.00
H128   H     0.50750   0.70392   0.00238   0.00000  Uiso   1.00
H129   H     0.15545   0.46454   0.14705   0.00000  Uiso   1.00
O130   O     0.48597   0.01849   0.92824   0.00000  Uiso   1.00
O131   O     0.58344   0.75023   0.12115   0.00000  Uiso   1.00
O132   O     0.12155   0.43616   0.31095   0.00000  Uiso   1.00
N133   N     0.47737   0.10888   0.04717   0.00000  Uiso   1.00
N134   N     0.54685   0.63032   0.18463   0.00000  Uiso   1.00
N135   N     0.21771   0.40655   0.31989   0.00000  Uiso   1.00
N136   N     0.44337   0.14827   0.91962   0.00000  Uiso   1.00
N137   N     0.51285   0.66971   0.05707   0.00000  Uiso   1.00
N138   N     0.18371   0.44594   0.19234   0.00000  Uiso   1.00
C139   C     0.18532   0.87556   0.80694   0.00000  Uiso   1.00
C140   C     0.17947   0.80512   0.87308   0.00000  Uiso   1.00
C141   C     0.15521   0.72857   0.85647   0.00000  Uiso   1.00
C142   C     0.15390   0.67252   0.92570   0.00000  Uiso   1.00
C143   C     0.14141   0.56013   0.01582   0.00000  Uiso   1.00
C144   C     0.15642   0.95017   0.84867   0.00000  Uiso   1.00
C145   C     0.11279   0.99558   0.81151   0.00000  Uiso   1.00
C146   C     0.09208   0.06163   0.86019   0.00000  Uiso   1.00
C147   C     0.04384   0.17447   0.91237   0.00000  Uiso   1.00
C148   C     0.24803   0.89648   0.80357   0.00000  Uiso   1.00
C149   C     0.28143   0.89677   0.72850   0.00000  Uiso   1.00
C150   C     0.33786   0.91764   0.73920   0.00000  Uiso   1.00
C151   C     0.43186   0.94711   0.72136   0.00000  Uiso   1.00
C152   C     0.22613   0.91215   0.95943   0.00000  Uiso   1.00
C153   C     0.20163   0.82499   0.95591   0.00000  Uiso   1.00
C154   C     0.20036   0.76904   0.02519   0.00000  Uiso   1.00
C155   C     0.17610   0.69242   0.00868   0.00000  Uiso   1.00
C156   C     0.17858   0.97004   0.93149   0.00000  Uiso   1.00
C157   C     0.15794   0.03605   0.98023   0.00000  Uiso   1.00
C158   C     0.11428   0.08154   0.94317   0.00000  Uiso   1.00
C159   C     0.27020   0.91635   0.88640   0.00000  Uiso   1.00
C160   C     0.32658   0.93723   0.89722   0.00000  Uiso   1.00
C161   C     0.36006   0.93754   0.82218   0.00000  Uiso   1.00
H162   H     0.16806   0.86010   0.74245   0.00000  Uiso   1.00
H163   H     0.13805   0.71322   0.79236   0.00000  Uiso   1.00
H164   H     0.09565   0.98019   0.74741   0.00000  Uiso   1.00
H165   H     0.26426   0.88139   0.66441   0.00000  Uiso   1.00
H166   H     0.11454   0.55915   0.88424   0.00000  Uiso   1.00
H167   H     0.02514   0.12209   0.78944   0.00000  Uiso   1.00
H168   H     0.38070   0.91374   0.61441   0.00000  Uiso   1.00
H169   H     0.24339   0.92762   0.02392   0.00000  Uiso   1.00
H170   H     0.21752   0.78443   0.08928   0.00000  Uiso   1.00
H171   H     0.17510   0.05141   0.04432   0.00000  Uiso   1.00
H172   H     0.34372   0.95260   0.96132   0.00000  Uiso   1.00
H173   H     0.17903   0.61695   0.12522   0.00000  Uiso   1.00
H174   H     0.08963   0.17989   0.03042   0.00000  Uiso   1.00
H175   H     0.44519   0.97155   0.85540   0.00000  Uiso   1.00
O176   O     0.12839   0.49265   0.04266   0.00000  Uiso   1.00
O177   O     0.01110   0.23121   0.91827   0.00000  Uiso   1.00
O178   O     0.47759   0.95787   0.68864   0.00000  Uiso   1.00
N179   N     0.13328   0.59240   0.93198   0.00000  Uiso   1.00
N180   N     0.04968   0.11870   0.84335   0.00000  Uiso   1.00
N181   N     0.38210   0.92394   0.67971   0.00000  Uiso   1.00
N182   N     0.16799   0.62350   0.06165   0.00000  Uiso   1.00
N183   N     0.08439   0.14980   0.97303   0.00000  Uiso   1.00
N184   N     0.41681   0.95504   0.80939   0.00000  Uiso   1.00
C185   C     0.08305   0.37840   0.69512   0.00000  Uiso   1.00
C186   C     0.07471   0.31375   0.62318   0.00000  Uiso   1.00
C187   C     0.04876   0.23744   0.63374   0.00000  Uiso   1.00
C188   C     0.04528   0.18713   0.55985   0.00000  Uiso   1.00
C189   C     0.02901   0.08292   0.46052   0.00000  Uiso   1.00
C190   C     0.05556   0.45745   0.66105   0.00000  Uiso   1.00
C191   C     0.01350   0.50198   0.70347   0.00000  Uiso   1.00
C192   C     0.99391   0.57265   0.66146   0.00000  Uiso   1.00
C193   C     0.94793   0.69158   0.62098   0.00000  Uiso   1.00
C194   C     0.14627   0.39577   0.69833   0.00000  Uiso   1.00
C195   C     0.18048   0.38845   0.77209   0.00000  Uiso   1.00
C196   C     0.23726   0.40720   0.76147   0.00000  Uiso   1.00
C197   C     0.33212   0.43036   0.77886   0.00000  Uiso   1.00
C198   C     0.12303   0.42474   0.54511   0.00000  Uiso   1.00
C199   C     0.09643   0.33891   0.54170   0.00000  Uiso   1.00
C200   C     0.09300   0.28870   0.46778   0.00000  Uiso   1.00
C201   C     0.06704   0.21233   0.47823   0.00000  Uiso   1.00
C202   C     0.07727   0.48262   0.57958   0.00000  Uiso   1.00
C203   C     0.05774   0.55324   0.53751   0.00000  Uiso   1.00
C204   C     0.01567   0.59786   0.57984   0.00000  Uiso   1.00
C205   C     0.16799   0.42093   0.61685   0.00000  Uiso   1.00
C206   C     0.22472   0.43970   0.60612   0.00000  Uiso   1.00
C207   C     0.25902   0.43241   0.67985   0.00000  Uiso   1.00
H208   H     0.06614   0.35882   0.75855   0.00000  Uiso   1.00
H209   H     0.03195   0.21799   0.69680   0.00000  Uiso   1.00
H210   H     0.99671   0.48250   0.76652   0.00000  Uiso   1.00
H211   H     0.16366   0.36898   0.83513   0.00000  Uiso   1.00
H212   H     0.00361   0.07297   0.59240   0.00000  Uiso   1.00
H213   H     0.92931   0.63071   0.73942   0.00000  Uiso   1.00
H214   H     0.28137   0.39133   0.88410   0.00000  Uiso   1.00
H215   H     0.13994   0.44433   0.48168   0.00000  Uiso   1.00
H216   H     0.10981   0.30819   0.40473   0.00000  Uiso   1.00
H217   H     0.07456   0.57270   0.47446   0.00000  Uiso   1.00
H218   H     0.24151   0.45918   0.54307   0.00000  Uiso   1.00
H219   H     0.06680   0.14618   0.35535   0.00000  Uiso   1.00
H220   H     0.99250   0.70392   0.50238   0.00000  Uiso   1.00
H221   H     0.34455   0.46454   0.64705   0.00000  Uiso   1.00
O222   O     0.01403   0.01849   0.42824   0.00000  Uiso   1.00
O223   O     0.91656   0.75023   0.62115   0.00000  Uiso   1.00
O224   O     0.37845   0.43616   0.81095   0.00000  Uiso   1.00
N225   N     0.02263   0.10888   0.54717   0.00000  Uiso   1.00
N226   N     0.95315   0.63032   0.68463   0.00000  Uiso   1.00
N227   N     0.28229   0.40655   0.81989   0.00000  Uiso   1.00
N228   N     0.05663   0.14827   0.41962   0.00000  Uiso   1.00
N229   N     0.98715   0.66971   0.55707   0.00000  Uiso   1.00
N230   N     0.31629   0.44594   0.69234   0.00000  Uiso   1.00
C231   C     0.31468   0.87556   0.30694   0.00000  Uiso   1.00
C232   C     0.32053   0.80512   0.37308   0.00000  Uiso   1.00
C233   C     0.34479   0.72857   0.35647   0.00000  Uiso   1.00
C234   C     0.34610   0.67252   0.42570   0.00000  Uiso   1.00
C235   C     0.35859   0.56013   0.51582   0.00000  Uiso   1.00
C236   C     0.34358   0.95017   0.34867   0.00000  Uiso   1.00
C237   C     0.38721   0.99558   0.31151   0.00000  Uiso   1.00
C238   C     0.40792   0.06163   0.36019   0.00000  Uiso   1.00
C239   C     0.45616   0.17447   0.41237   0.00000  Uiso   1.00
C240   C     0.25197   0.89648   0.30357   0.00000  Uiso   1.00
C241   C     0.21857   0.89677   0.22850   0.00000  Uiso   1.00
C242   C     0.16214   0.91764   0.23920   0.00000  Uiso   1.00
C243   C     0.06814   0.94711   0.22136   0.00000  Uiso   1.00
C244   C     0.27387   0.91215   0.45943   0.00000  Uiso   1.00
C245   C     0.29837   0.82499   0.45591   0.00000  Uiso   1.00
C246   C     0.29964   0.76904   0.52519   0.00000  Uiso   1.00
C247   C     0.32390   0.69242   0.50868   0.00000  Uiso   1.00
C248   C     0.32142   0.97004   0.43149   0.00000  Uiso   1.00
C249   C     0.34206   0.03605   0.48023   0.00000  Uiso   1.00
C250   C     0.38572   0.08154   0.44317   0.00000  Uiso   1.00
C251   C     0.22980   0.91635   0.38640   0.00000  Uiso   1.00
C252   C     0.17342   0.93723   0.39722   0.00000  Uiso   1.00
C253   C     0.13994   0.93754   0.32218   0.00000  Uiso   1.00
H254   H     0.33194   0.86010   0.24245   0.00000  Uiso   1.00
H255   H     0.36195   0.71322   0.29236   0.00000  Uiso   1.00
H256   H     0.40435   0.98019   0.24741   0.00000  Uiso   1.00
H257   H     0.23574   0.88139   0.16441   0.00000  Uiso   1.00
H258   H     0.38546   0.55915   0.38424   0.00000  Uiso   1.00
H259   H     0.47486   0.12209   0.28944   0.00000  Uiso   1.00
H260   H     0.11930   0.91374   0.11441   0.00000  Uiso   1.00
H261   H     0.25661   0.92762   0.52392   0.00000  Uiso   1.00
H262   H     0.28248   0.78443   0.58928   0.00000  Uiso   1.00
H263   H     0.32490   0.05141   0.54432   0.00000  Uiso   1.00
H264   H     0.15628   0.95260   0.46132   0.00000  Uiso   1.00
H265   H     0.32097   0.61695   0.62522   0.00000  Uiso   1.00
H266   H     0.41037   0.17989   0.53042   0.00000  Uiso   1.00
H267   H     0.05481   0.97155   0.35540   0.00000  Uiso   1.00
O268   O     0.37161   0.49265   0.54266   0.00000  Uiso   1.00
O269   O     0.48890   0.23121   0.41827   0.00000  Uiso   1.00
O270   O     0.02241   0.95787   0.18864   0.00000  Uiso   1.00
N271   N     0.36672   0.59240   0.43198   0.00000  Uiso   1.00
N272   N     0.45032   0.11870   0.34335   0.00000  Uiso   1.00
N273   N     0.11790   0.92394   0.17971   0.00000  Uiso   1.00
N274   N     0.33201   0.62350   0.56165   0.00000  Uiso   1.00
N275   N     0.41561   0.14980   0.47303   0.00000  Uiso   1.00
N276   N     0.08319   0.95504   0.30939   0.00000  Uiso   1.00
C277   C     0.91695   0.62160   0.19512   0.00000  Uiso   1.00
C278   C     0.92529   0.68625   0.12318   0.00000  Uiso   1.00
C279   C     0.95124   0.76256   0.13374   0.00000  Uiso   1.00
C280   C     0.95472   0.81287   0.05985   0.00000  Uiso   1.00
C281   C     0.97099   0.91708   0.96052   0.00000  Uiso   1.00
C282   C     0.94444   0.54255   0.16105   0.00000  Uiso   1.00
C283   C     0.98650   0.49802   0.20347   0.00000  Uiso   1.00
C284   C     0.00609   0.42735   0.16146   0.00000  Uiso   1.00
C285   C     0.05207   0.30842   0.12098   0.00000  Uiso   1.00
C286   C     0.85373   0.60423   0.19833   0.00000  Uiso   1.00
C287   C     0.81952   0.61155   0.27209   0.00000  Uiso   1.00
C288   C     0.76274   0.59280   0.26147   0.00000  Uiso   1.00
C289   C     0.66788   0.56964   0.27886   0.00000  Uiso   1.00
C290   C     0.87697   0.57526   0.04511   0.00000  Uiso   1.00
C291   C     0.90357   0.66109   0.04170   0.00000  Uiso   1.00
C292   C     0.90700   0.71130   0.96778   0.00000  Uiso   1.00
C293   C     0.93296   0.78767   0.97823   0.00000  Uiso   1.00
C294   C     0.92273   0.51738   0.07958   0.00000  Uiso   1.00
C295   C     0.94226   0.44676   0.03751   0.00000  Uiso   1.00
C296   C     0.98433   0.40214   0.07984   0.00000  Uiso   1.00
C297   C     0.83201   0.57907   0.11685   0.00000  Uiso   1.00
C298   C     0.77528   0.56030   0.10612   0.00000  Uiso   1.00
C299   C     0.74098   0.56759   0.17985   0.00000  Uiso   1.00
H300   H     0.93386   0.64118   0.25855   0.00000  Uiso   1.00
H301   H     0.96805   0.78201   0.19680   0.00000  Uiso   1.00
H302   H     0.00329   0.51750   0.26652   0.00000  Uiso   1.00
H303   H     0.83634   0.63102   0.33513   0.00000  Uiso   1.00
H304   H     0.99639   0.92703   0.09240   0.00000  Uiso   1.00
H305   H     0.07069   0.36929   0.23942   0.00000  Uiso   1.00
H306   H     0.71863   0.60867   0.38410   0.00000  Uiso   1.00
H307   H     0.86006   0.55567   0.98168   0.00000  Uiso   1.00
H308   H     0.89019   0.69181   0.90473   0.00000  Uiso   1.00
H309   H     0.92544   0.42730   0.97446   0.00000  Uiso   1.00
H310   H     0.75849   0.54082   0.04307   0.00000  Uiso   1.00
H311   H     0.93320   0.85382   0.85535   0.00000  Uiso   1.00
H312   H     0.00750   0.29608   0.00238   0.00000  Uiso   1.00
H313   H     0.65545   0.53546   0.14705   0.00000  Uiso   1.00
O314   O     0.98597   0.98151   0.92824   0.00000  Uiso   1.00
O315   O     0.08344   0.24977   0.12115   0.00000  Uiso   1.00
O316   O     0.62155   0.56384   0.31095   0.00000  Uiso   1.00
N317   N     0.97737   0.89112   0.04717   0.00000  Uiso   1.00
N318   N     0.04685   0.36968   0.18463   0.00000  Uiso   1.00
N319   N     0.71771   0.59345   0.31989   0.00000  Uiso   1.00
N320   N     0.94337   0.85173   0.91962   0.00000  Uiso   1.00
N321   N     0.01285   0.33029   0.05707   0.00000  Uiso   1.00
N322   N     0.68371   0.55406   0.19234   0.00000  Uiso   1.00
C323   C     0.68532   0.12444   0.80694   0.00000  Uiso   1.00
C324   C     0.67947   0.19488   0.87308   0.00000  Uiso   1.00
C325   C     0.65521   0.27143   0.85647   0.00000  Uiso   1.00
C326   C     0.65390   0.32748   0.92570   0.00000  Uiso   1.00
C327   C     0.64141   0.43987   0.01582   0.00000  Uiso   1.00
C328   C     0.65642   0.04983   0.84867   0.00000  Uiso   1.00
C329   C     0.61279   0.00442   0.81151   0.00000  Uiso   1.00
C330   C     0.59208   0.93837   0.86019   0.00000  Uiso   1.00
C331   C     0.54384   0.82553   0.91237   0.00000  Uiso   1.00
C332   C     0.74803   0.10352   0.80357   0.00000  Uiso   1.00
C333   C     0.78143   0.10323   0.72850   0.00000  Uiso   1.00
C334   C     0.83786   0.08236   0.73920   0.00000  Uiso   1.00
C335   C     0.93186   0.05289   0.72136   0.00000  Uiso   1.00
C336   C     0.72613   0.08785   0.95943   0.00000  Uiso   1.00
C337   C     0.70163   0.17501   0.95591   0.00000  Uiso   1.00
C338   C     0.70036   0.23096   0.02519   0.00000  Uiso   1.00
C339   C     0.67610   0.30758   0.00868   0.00000  Uiso   1.00
C340   C     0.67858   0.02996   0.93149   0.00000  Uiso   1.00
C341   C     0.65794   0.96395   0.98023   0.00000  Uiso   1.00
C342   C     0.61428   0.91846   0.94317   0.00000  Uiso   1.00
C343   C     0.77020   0.08365   0.88640   0.00000  Uiso   1.00
C344   C     0.82658   0.06277   0.89722   0.00000  Uiso   1.00
C345   C     0.86006   0.06246   0.82218   0.00000  Uiso   1.00
H346   H     0.66806   0.13990   0.74245   0.00000  Uiso   1.00
H347   H     0.63805   0.28678   0.79236   0.00000  Uiso   1.00
H348   H     0.59565   0.01981   0.74741   0.00000  Uiso   1.00
H349   H     0.76426   0.11861   0.66441   0.00000  Uiso   1.00
H350   H     0.61454   0.44085   0.88424   0.00000  Uiso   1.00
H351   H     0.52514   0.87791   0.78944   0.00000  Uiso   1.00
H352   H     0.88070   0.08626   0.61441   0.00000  Uiso   1.00
H353   H     0.74339   0.07238   0.02392   0.00000  Uiso   1.00
H354   H     0.71752   0.21557   0.08928   0.00000  Uiso   1.00
H355   H     0.67510   0.94859   0.04432   0.00000  Uiso   1.00
H356   H     0.84372   0.04740   0.96132   0.00000  Uiso   1.00
H357   H     0.67903   0.38305   0.12522   0.00000  Uiso   1.00
H358   H     0.58963   0.82011   0.03042   0.00000  Uiso   1.00
H359   H     0.94519   0.02845   0.85540   0.00000  Uiso   1.00
O360   O     0.62839   0.50735   0.04266   0.00000  Uiso   1.00
O361   O     0.51110   0.76879   0.91827   0.00000  Uiso   1.00
O362   O     0.97759   0.04213   0.68864   0.00000  Uiso   1.00
N363   N     0.63328   0.40760   0.93198   0.00000  Uiso   1.00
N364   N     0.54968   0.88130   0.84335   0.00000  Uiso   1.00
N365   N     0.88210   0.07606   0.67971   0.00000  Uiso   1.00
N366   N     0.66799   0.37650   0.06165   0.00000  Uiso   1.00
N367   N     0.58439   0.85020   0.97303   0.00000  Uiso   1.00
N368   N     0.91681   0.04496   0.80939   0.00000  Uiso   1.00
