data_job_06574
_audit_creation_date              2018-12-19
_audit_creation_method            'Materials Studio'
_symmetry_space_group_name_H-M    'P1'
_symmetry_Int_Tables_number       1
_symmetry_cell_setting            triclinic
loop_
_symmetry_equiv_pos_as_xyz
  x,y,z
_cell_length_a                    14.2713
_cell_length_b                    14.9657
_cell_length_c                    37.7187
_cell_angle_alpha                 95.3531
_cell_angle_beta                  89.8061
_cell_angle_gamma                 65.1289
loop_
_atom_site_label
_atom_site_type_symbol
_atom_site_fract_x
_atom_site_fract_y
_atom_site_fract_z
_atom_site_U_iso_or_equiv
_atom_site_adp_type
_atom_site_occupancy
C1     C     0.43256   0.03550   0.09718   0.00000  Uiso   1.00
C2     C     0.43022   0.94429   0.11137   0.00000  Uiso   1.00
C3     C     0.34507   0.93988   0.12761   0.00000  Uiso   1.00
C4     C     0.35870   0.84955   0.13875   0.00000  Uiso   1.00
C5     C     0.34058   0.72054   0.16155   0.00000  Uiso   1.00
C6     C     0.51910   0.05246   0.11592   0.00000  Uiso   1.00
C7     C     0.50867   0.13900   0.13598   0.00000  Uiso   1.00
C8     C     0.59713   0.13972   0.15095   0.00000  Uiso   1.00
C9     C     0.71700   0.17867   0.18079   0.00000  Uiso   1.00
C10    C     0.46871   0.00520   0.05804   0.00000  Uiso   1.00
C11    C     0.41594   0.05201   0.02942   0.00000  Uiso   1.00
C12    C     0.46198   0.01296   0.99565   0.00000  Uiso   1.00
C13    C     0.50362   0.97852   0.93562   0.00000  Uiso   1.00
C14    C     0.60818   0.88292   0.08811   0.00000  Uiso   1.00
C15    C     0.52561   0.86141   0.10644   0.00000  Uiso   1.00
C16    C     0.53938   0.77106   0.11757   0.00000  Uiso   1.00
C17    C     0.45426   0.76652   0.13382   0.00000  Uiso   1.00
C18    C     0.61448   0.96958   0.11100   0.00000  Uiso   1.00
C19    C     0.70298   0.97018   0.12594   0.00000  Uiso   1.00
C20    C     0.69269   0.05669   0.14601   0.00000  Uiso   1.00
C21    C     0.56410   0.92232   0.05311   0.00000  Uiso   1.00
C22    C     0.61024   0.88319   0.01938   0.00000  Uiso   1.00
C23    C     0.55755   0.92993   0.99071   0.00000  Uiso   1.00
H24    H     0.35830   0.10003   0.10102   0.00000  Uiso   1.00
H25    H     0.27127   0.00404   0.13142   0.00000  Uiso   1.00
H26    H     0.43485   0.20312   0.13979   0.00000  Uiso   1.00
H27    H     0.34212   0.11615   0.03324   0.00000  Uiso   1.00
H28    H     0.21686   0.86108   0.16296   0.00000  Uiso   1.00
H29    H     0.56178   0.28087   0.18059   0.00000  Uiso   1.00
H30    H     0.36625   0.09747   0.95592   0.00000  Uiso   1.00
H31    H     0.68245   0.81839   0.08427   0.00000  Uiso   1.00
H32    H     0.61320   0.70694   0.11375   0.00000  Uiso   1.00
H33    H     0.77678   0.90603   0.12212   0.00000  Uiso   1.00
H34    H     0.68406   0.81905   0.01557   0.00000  Uiso   1.00
H35    H     0.49439   0.61994   0.14862   0.00000  Uiso   1.00
H36    H     0.83931   0.03974   0.16625   0.00000  Uiso   1.00
H37    H     0.64378   0.85633   0.94158   0.00000  Uiso   1.00
O38    O     0.30423   0.67228   0.17550   0.00000  Uiso   1.00
O39    O     0.75676   0.22305   0.19862   0.00000  Uiso   1.00
O40    O     0.50023   0.98242   0.90386   0.00000  Uiso   1.00
N41    N     0.29167   0.81961   0.15553   0.00000  Uiso   1.00
N42    N     0.61415   0.21209   0.17202   0.00000  Uiso   1.00
N43    N     0.43136   0.04064   0.96198   0.00000  Uiso   1.00
N44    N     0.44101   0.68986   0.14782   0.00000  Uiso   1.00
N45    N     0.76349   0.08234   0.16431   0.00000  Uiso   1.00
N46    N     0.58070   0.91089   0.95426   0.00000  Uiso   1.00
C47    C     0.52152   0.41985   0.09754   0.00000  Uiso   1.00
C48    C     0.56991   0.44391   0.13095   0.00000  Uiso   1.00
C49    C     0.53163   0.45473   0.16573   0.00000  Uiso   1.00
C50    C     0.58717   0.47677   0.19260   0.00000  Uiso   1.00
C51    C     0.64851   0.51253   0.24565   0.00000  Uiso   1.00
C52    C     0.50357   0.50275   0.07410   0.00000  Uiso   1.00
C53    C     0.40951   0.56304   0.06107   0.00000  Uiso   1.00
C54    C     0.40920   0.63460   0.04008   0.00000  Uiso   1.00
C55    C     0.36755   0.76167   0.00484   0.00000  Uiso   1.00
C56    C     0.60531   0.32653   0.07790   0.00000  Uiso   1.00
C57    C     0.59679   0.23865   0.06806   0.00000  Uiso   1.00
C58    C     0.68214   0.16185   0.05027   0.00000  Uiso   1.00
C59    C     0.79846   0.01531   0.02093   0.00000  Uiso   1.00
C60    C     0.68822   0.43974   0.08344   0.00000  Uiso   1.00
C61    C     0.66046   0.45471   0.12330   0.00000  Uiso   1.00
C62    C     0.71607   0.47674   0.15013   0.00000  Uiso   1.00
C63    C     0.67788   0.48759   0.18493   0.00000  Uiso   1.00
C64    C     0.59411   0.51356   0.06644   0.00000  Uiso   1.00
C65    C     0.59394   0.58504   0.04547   0.00000  Uiso   1.00
C66    C     0.49990   0.64542   0.03241   0.00000  Uiso   1.00
C67    C     0.69586   0.33733   0.07025   0.00000  Uiso   1.00
C68    C     0.78123   0.26065   0.05246   0.00000  Uiso   1.00
C69    C     0.77284   0.17267   0.04260   0.00000  Uiso   1.00
H70    H     0.45103   0.41145   0.10350   0.00000  Uiso   1.00
H71    H     0.46155   0.44638   0.17164   0.00000  Uiso   1.00
H72    H     0.33945   0.55465   0.06699   0.00000  Uiso   1.00
H73    H     0.52671   0.23032   0.07399   0.00000  Uiso   1.00
H74    H     0.51314   0.48990   0.24381   0.00000  Uiso   1.00
H75    H     0.25568   0.71819   0.02315   0.00000  Uiso   1.00
H76    H     0.65056   0.03427   0.03790   0.00000  Uiso   1.00
H77    H     0.75871   0.44815   0.07748   0.00000  Uiso   1.00
H78    H     0.78613   0.48509   0.14419   0.00000  Uiso   1.00
H79    H     0.66402   0.59337   0.03955   0.00000  Uiso   1.00
H80    H     0.85128   0.26904   0.04654   0.00000  Uiso   1.00
H81    H     0.77657   0.52133   0.22153   0.00000  Uiso   1.00
H82    H     0.51912   0.74962   0.00087   0.00000  Uiso   1.00
H83    H     0.91399   0.06570   0.01562   0.00000  Uiso   1.00
O84    O     0.65732   0.52929   0.27703   0.00000  Uiso   1.00
O85    O     0.31955   0.82878   0.98752   0.00000  Uiso   1.00
O86    O     0.83762   0.93149   0.00687   0.00000  Uiso   1.00
N87    N     0.57139   0.49221   0.22941   0.00000  Uiso   1.00
N88    N     0.33068   0.70566   0.02311   0.00000  Uiso   1.00
N89    N     0.69984   0.06625   0.03689   0.00000  Uiso   1.00
N90    N     0.71314   0.50912   0.21742   0.00000  Uiso   1.00
N91    N     0.47243   0.72257   0.01112   0.00000  Uiso   1.00
N92    N     0.84159   0.08316   0.02490   0.00000  Uiso   1.00
C93    C     0.16468   0.40171   0.13261   0.00000  Uiso   1.00
C94    C     0.08502   0.50650   0.14479   0.00000  Uiso   1.00
C95    C     0.09545   0.56934   0.17238   0.00000  Uiso   1.00
C96    C     0.01386   0.66230   0.17939   0.00000  Uiso   1.00
C97    C     0.90364   0.82059   0.20134   0.00000  Uiso   1.00
C98    C     0.10896   0.33487   0.13492   0.00000  Uiso   1.00
C99    C     0.13953   0.25340   0.15420   0.00000  Uiso   1.00
C100   C     0.07810   0.20187   0.15289   0.00000  Uiso   1.00
C101   C     0.00510   0.09365   0.15949   0.00000  Uiso   1.00
C102   C     0.18806   0.40029   0.09303   0.00000  Uiso   1.00
C103   C     0.28515   0.37381   0.07710   0.00000  Uiso   1.00
C104   C     0.29031   0.37734   0.04052   0.00000  Uiso   1.00
C105   C     0.34013   0.37070   0.98209   0.00000  Uiso   1.00
C106   C     0.00124   0.45503   0.09599   0.00000  Uiso   1.00
C107   C     0.99624   0.53546   0.12490   0.00000  Uiso   1.00
C108   C     0.91461   0.62834   0.13187   0.00000  Uiso   1.00
C109   C     0.92492   0.69132   0.15946   0.00000  Uiso   1.00
C110   C     0.02019   0.36383   0.11503   0.00000  Uiso   1.00
C111   C     0.95870   0.31240   0.11368   0.00000  Uiso   1.00
C112   C     0.98917   0.23088   0.13296   0.00000  Uiso   1.00
C113   C     0.09928   0.42926   0.07314   0.00000  Uiso   1.00
C114   C     0.10431   0.43282   0.03658   0.00000  Uiso   1.00
C115   C     0.20138   0.40635   0.02059   0.00000  Uiso   1.00
H116   H     0.23380   0.37915   0.14810   0.00000  Uiso   1.00
H117   H     0.16416   0.54690   0.18777   0.00000  Uiso   1.00
H118   H     0.20824   0.23100   0.16959   0.00000  Uiso   1.00
H119   H     0.35383   0.35140   0.09250   0.00000  Uiso   1.00
H120   H     0.04778   0.74564   0.22299   0.00000  Uiso   1.00
H121   H     0.14076   0.07952   0.18465   0.00000  Uiso   1.00
H122   H     0.44775   0.33340   0.02208   0.00000  Uiso   1.00
H123   H     0.93212   0.47758   0.08050   0.00000  Uiso   1.00
H124   H     0.84592   0.65074   0.11647   0.00000  Uiso   1.00
H125   H     0.89001   0.33483   0.09829   0.00000  Uiso   1.00
H126   H     0.03559   0.45523   0.02120   0.00000  Uiso   1.00
H127   H     0.78949   0.82991   0.16512   0.00000  Uiso   1.00
H128   H     0.88247   0.16379   0.12677   0.00000  Uiso   1.00
H129   H     0.18946   0.41768   0.96421   0.00000  Uiso   1.00
O130   O     0.86736   0.89989   0.21894   0.00000  Uiso   1.00
O131   O     0.98936   0.02597   0.16863   0.00000  Uiso   1.00
O132   O     0.39212   0.35906   0.95535   0.00000  Uiso   1.00
N133   N     0.99883   0.74171   0.20443   0.00000  Uiso   1.00
N134   N     0.08575   0.11895   0.16859   0.00000  Uiso   1.00
N135   N     0.37277   0.35628   0.01660   0.00000  Uiso   1.00
N136   N     0.85984   0.78706   0.17329   0.00000  Uiso   1.00
N137   N     0.94676   0.16430   0.13744   0.00000  Uiso   1.00
N138   N     0.23378   0.40163   0.98546   0.00000  Uiso   1.00
C139   C     0.11298   0.29880   0.60011   0.00000  Uiso   1.00
C140   C     0.03146   0.31889   0.62972   0.00000  Uiso   1.00
C141   C     0.04440   0.33196   0.66599   0.00000  Uiso   1.00
C142   C     0.96050   0.34960   0.68879   0.00000  Uiso   1.00
C143   C     0.84812   0.38017   0.73675   0.00000  Uiso   1.00
C144   C     0.06431   0.38027   0.57561   0.00000  Uiso   1.00
C145   C     0.10488   0.44493   0.56637   0.00000  Uiso   1.00
C146   C     0.04864   0.51424   0.54361   0.00000  Uiso   1.00
C147   C     0.98730   0.64005   0.50754   0.00000  Uiso   1.00
C148   C     0.12526   0.20280   0.57855   0.00000  Uiso   1.00
C149   C     0.21709   0.11826   0.57179   0.00000  Uiso   1.00
C150   C     0.21216   0.03816   0.55150   0.00000  Uiso   1.00
C151   C     0.24546   0.88843   0.52000   0.00000  Uiso   1.00
C152   C     0.94095   0.30688   0.57610   0.00000  Uiso   1.00
C153   C     0.93802   0.32328   0.61668   0.00000  Uiso   1.00
C154   C     0.85408   0.34090   0.63943   0.00000  Uiso   1.00
C155   C     0.86689   0.35400   0.67572   0.00000  Uiso   1.00
C156   C     0.97088   0.38466   0.56257   0.00000  Uiso   1.00
C157   C     0.91456   0.45388   0.53981   0.00000  Uiso   1.00
C158   C     0.95503   0.51864   0.53055   0.00000  Uiso   1.00
C159   C     0.03183   0.20719   0.56551   0.00000  Uiso   1.00
C160   C     0.02676   0.12720   0.54523   0.00000  Uiso   1.00
C161   C     0.11855   0.04256   0.53843   0.00000  Uiso   1.00
H162   H     0.18572   0.29539   0.61026   0.00000  Uiso   1.00
H163   H     0.11672   0.32856   0.67607   0.00000  Uiso   1.00
H164   H     0.17720   0.44151   0.57647   0.00000  Uiso   1.00
H165   H     0.28938   0.11489   0.58188   0.00000  Uiso   1.00
H166   H     0.99901   0.36732   0.74328   0.00000  Uiso   1.00
H167   H     0.12654   0.60546   0.53325   0.00000  Uiso   1.00
H168   H     0.36310   0.91671   0.54467   0.00000  Uiso   1.00
H169   H     0.86820   0.31030   0.56595   0.00000  Uiso   1.00
H170   H     0.78178   0.34430   0.62933   0.00000  Uiso   1.00
H171   H     0.84226   0.45725   0.52972   0.00000  Uiso   1.00
H172   H     0.95444   0.13063   0.53514   0.00000  Uiso   1.00
H173   H     0.72716   0.38009   0.70534   0.00000  Uiso   1.00
H174   H     0.85469   0.61823   0.49531   0.00000  Uiso   1.00
H175   H     0.09125   0.92948   0.50673   0.00000  Uiso   1.00
O176   O     0.81195   0.39583   0.76680   0.00000  Uiso   1.00
O177   O     0.97928   0.70824   0.49124   0.00000  Uiso   1.00
O178   O     0.28964   0.80463   0.50623   0.00000  Uiso   1.00
N179   N     0.94690   0.36564   0.72565   0.00000  Uiso   1.00
N180   N     0.06612   0.58830   0.52929   0.00000  Uiso   1.00
N181   N     0.28729   0.94438   0.53996   0.00000  Uiso   1.00
N182   N     0.80061   0.37251   0.70524   0.00000  Uiso   1.00
N183   N     0.91984   0.59517   0.50888   0.00000  Uiso   1.00
N184   N     0.14101   0.95126   0.51954   0.00000  Uiso   1.00
C185   C     0.46368   0.29734   0.62518   0.00000  Uiso   1.00
C186   C     0.46094   0.39649   0.64041   0.00000  Uiso   1.00
C187   C     0.39711   0.45815   0.66874   0.00000  Uiso   1.00
C188   C     0.40635   0.54568   0.67866   0.00000  Uiso   1.00
C189   C     0.39141   0.69582   0.70504   0.00000  Uiso   1.00
C190   C     0.57525   0.22138   0.62702   0.00000  Uiso   1.00
C191   C     0.60752   0.13581   0.64408   0.00000  Uiso   1.00
C192   C     0.71299   0.07593   0.64272   0.00000  Uiso   1.00
C193   C     0.87550   0.95417   0.64828   0.00000  Uiso   1.00
C194   C     0.44390   0.30553   0.58565   0.00000  Uiso   1.00
C195   C     0.36574   0.29068   0.56793   0.00000  Uiso   1.00
C196   C     0.36064   0.30163   0.53174   0.00000  Uiso   1.00
C197   C     0.31920   0.31053   0.47307   0.00000  Uiso   1.00
C198   C     0.59362   0.34313   0.59241   0.00000  Uiso   1.00
C199   C     0.53153   0.42135   0.62261   0.00000  Uiso   1.00
C200   C     0.54087   0.50881   0.63249   0.00000  Uiso   1.00
C201   C     0.47706   0.57060   0.66084   0.00000  Uiso   1.00
C202   C     0.64583   0.24625   0.60922   0.00000  Uiso   1.00
C203   C     0.75128   0.18647   0.60783   0.00000  Uiso   1.00
C204   C     0.78370   0.10084   0.62489   0.00000  Uiso   1.00
C205   C     0.51448   0.33040   0.56785   0.00000  Uiso   1.00
C206   C     0.50950   0.34136   0.53168   0.00000  Uiso   1.00
C207   C     0.43135   0.32654   0.51391   0.00000  Uiso   1.00
H208   H     0.40874   0.27797   0.63903   0.00000  Uiso   1.00
H209   H     0.34250   0.43887   0.68251   0.00000  Uiso   1.00
H210   H     0.55288   0.11658   0.65785   0.00000  Uiso   1.00
H211   H     0.31113   0.27144   0.58171   0.00000  Uiso   1.00
H212   H     0.30022   0.62821   0.72288   0.00000  Uiso   1.00
H213   H     0.74381   0.94862   0.67087   0.00000  Uiso   1.00
H214   H     0.23404   0.27517   0.51032   0.00000  Uiso   1.00
H215   H     0.64858   0.36249   0.57856   0.00000  Uiso   1.00
H216   H     0.59550   0.52804   0.61872   0.00000  Uiso   1.00
H217   H     0.80588   0.20574   0.59406   0.00000  Uiso   1.00
H218   H     0.56414   0.36060   0.51792   0.00000  Uiso   1.00
H219   H     0.50557   0.70058   0.67110   0.00000  Uiso   1.00
H220   H     0.94916   0.02098   0.61909   0.00000  Uiso   1.00
H221   H     0.43939   0.34754   0.45854   0.00000  Uiso   1.00
O222   O     0.36368   0.77176   0.72451   0.00000  Uiso   1.00
O223   O     0.94564   0.88015   0.65626   0.00000  Uiso   1.00
O224   O     0.27684   0.30858   0.44563   0.00000  Uiso   1.00
N225   N     0.35582   0.62254   0.70517   0.00000  Uiso   1.00
N226   N     0.77055   0.98716   0.65655   0.00000  Uiso   1.00
N227   N     0.29398   0.29244   0.50645   0.00000  Uiso   1.00
N228   N     0.46631   0.66148   0.67731   0.00000  Uiso   1.00
N229   N     0.88104   0.02611   0.62869   0.00000  Uiso   1.00
N230   N     0.40447   0.33138   0.47859   0.00000  Uiso   1.00
C231   C     0.55678   0.83928   0.61732   0.00000  Uiso   1.00
C232   C     0.65128   0.76922   0.63527   0.00000  Uiso   1.00
C233   C     0.66925   0.77628   0.67134   0.00000  Uiso   1.00
C234   C     0.76032   0.70492   0.68251   0.00000  Uiso   1.00
C235   C     0.89631   0.60761   0.71404   0.00000  Uiso   1.00
C236   C     0.50977   0.77451   0.59829   0.00000  Uiso   1.00
C237   C     0.40876   0.78604   0.60326   0.00000  Uiso   1.00
C238   C     0.38071   0.71914   0.58330   0.00000  Uiso   1.00
C239   C     0.29697   0.63010   0.55740   0.00000  Uiso   1.00
C240   C     0.59823   0.87865   0.58806   0.00000  Uiso   1.00
C241   C     0.57158   0.97773   0.58443   0.00000  Uiso   1.00
C242   C     0.61799   0.99851   0.55586   0.00000  Uiso   1.00
C243   C     0.67160   0.07116   0.51408   0.00000  Uiso   1.00
C244   C     0.68657   0.70000   0.57304   0.00000  Uiso   1.00
C245   C     0.72177   0.69357   0.61121   0.00000  Uiso   1.00
C246   C     0.81284   0.62218   0.62234   0.00000  Uiso   1.00
C247   C     0.83095   0.62914   0.65841   0.00000  Uiso   1.00
C248   C     0.58026   0.69887   0.57424   0.00000  Uiso   1.00
C249   C     0.55235   0.63194   0.55426   0.00000  Uiso   1.00
C250   C     0.45133   0.64335   0.55920   0.00000  Uiso   1.00
C251   C     0.66873   0.80300   0.56401   0.00000  Uiso   1.00
C252   C     0.71518   0.82363   0.53543   0.00000  Uiso   1.00
C253   C     0.68860   0.92273   0.53176   0.00000  Uiso   1.00
H254   H     0.50190   0.89817   0.63605   0.00000  Uiso   1.00
H255   H     0.61467   0.83483   0.68994   0.00000  Uiso   1.00
H256   H     0.35422   0.84459   0.62188   0.00000  Uiso   1.00
H257   H     0.51702   0.03625   0.60305   0.00000  Uiso   1.00
H258   H     0.77078   0.73121   0.73909   0.00000  Uiso   1.00
H259   H     0.22159   0.75182   0.59556   0.00000  Uiso   1.00
H260   H     0.56488   0.15598   0.55586   0.00000  Uiso   1.00
H261   H     0.74145   0.64110   0.55431   0.00000  Uiso   1.00
H262   H     0.86738   0.56365   0.60372   0.00000  Uiso   1.00
H263   H     0.60692   0.57341   0.53565   0.00000  Uiso   1.00
H264   H     0.76972   0.76508   0.51682   0.00000  Uiso   1.00
H265   H     0.97588   0.51112   0.66910   0.00000  Uiso   1.00
H266   H     0.42669   0.53173   0.52557   0.00000  Uiso   1.00
H267   H     0.76999   0.93588   0.48587   0.00000  Uiso   1.00
O268   O     0.95183   0.57483   0.73807   0.00000  Uiso   1.00
O269   O     0.23131   0.60188   0.54976   0.00000  Uiso   1.00
O270   O     0.68171   0.13213   0.49768   0.00000  Uiso   1.00
N271   N     0.80178   0.69006   0.71584   0.00000  Uiso   1.00
N272   N     0.28832   0.70931   0.58165   0.00000  Uiso   1.00
N273   N     0.60925   0.08717   0.54453   0.00000  Uiso   1.00
N274   N     0.91214   0.57162   0.67818   0.00000  Uiso   1.00
N275   N     0.39869   0.59088   0.54399   0.00000  Uiso   1.00
N276   N     0.71962   0.96873   0.50687   0.00000  Uiso   1.00
C277   C     0.89970   0.67923   0.82773   0.00000  Uiso   1.00
C278   C     0.87652   0.77453   0.81081   0.00000  Uiso   1.00
C279   C     0.92485   0.78216   0.77999   0.00000  Uiso   1.00
C280   C     0.89261   0.87597   0.76885   0.00000  Uiso   1.00
C281   C     0.86842   0.01129   0.73966   0.00000  Uiso   1.00
C282   C     0.79721   0.67066   0.83045   0.00000  Uiso   1.00
C283   C     0.77886   0.59095   0.81615   0.00000  Uiso   1.00
C284   C     0.67986   0.59734   0.82155   0.00000  Uiso   1.00
C285   C     0.53256   0.57137   0.82289   0.00000  Uiso   1.00
C286   C     0.92723   0.69738   0.86594   0.00000  Uiso   1.00
C287   C     0.01819   0.64012   0.88147   0.00000  Uiso   1.00
C288   C     0.02865   0.66898   0.91675   0.00000  Uiso   1.00
C289   C     0.08322   0.68450   0.97319   0.00000  Uiso   1.00
C290   C     0.75651   0.83228   0.86276   0.00000  Uiso   1.00
C291   C     0.79875   0.85765   0.82983   0.00000  Uiso   1.00
C292   C     0.76643   0.95149   0.81874   0.00000  Uiso   1.00
C293   C     0.81470   0.95925   0.78791   0.00000  Uiso   1.00
C294   C     0.71944   0.75379   0.84948   0.00000  Uiso   1.00
C295   C     0.62044   0.76028   0.85490   0.00000  Uiso   1.00
C296   C     0.60195   0.68061   0.84061   0.00000  Uiso   1.00
C297   C     0.84946   0.78051   0.88496   0.00000  Uiso   1.00
C298   C     0.85977   0.80946   0.92023   0.00000  Uiso   1.00
C299   C     0.95073   0.75226   0.93581   0.00000  Uiso   1.00
H300   H     0.96025   0.61450   0.81292   0.00000  Uiso   1.00
H301   H     0.98503   0.71780   0.76527   0.00000  Uiso   1.00
H302   H     0.83907   0.52663   0.80143   0.00000  Uiso   1.00
H303   H     0.07836   0.57579   0.86674   0.00000  Uiso   1.00
H304   H     0.97818   0.86898   0.72082   0.00000  Uiso   1.00
H305   H     0.67043   0.46587   0.79708   0.00000  Uiso   1.00
H306   H     0.17502   0.56953   0.93481   0.00000  Uiso   1.00
H307   H     0.69596   0.89700   0.87757   0.00000  Uiso   1.00
H308   H     0.70624   0.01580   0.83347   0.00000  Uiso   1.00
H309   H     0.56028   0.82463   0.86963   0.00000  Uiso   1.00
H310   H     0.79957   0.87379   0.93494   0.00000  Uiso   1.00
H311   H     0.75190   0.11085   0.77617   0.00000  Uiso   1.00
H312   H     0.44415   0.70773   0.85244   0.00000  Uiso   1.00
H313   H     0.94874   0.81140   0.99016   0.00000  Uiso   1.00
O314   O     0.87654   0.06297   0.71831   0.00000  Uiso   1.00
O315   O     0.47280   0.53409   0.81837   0.00000  Uiso   1.00
O316   O     0.13481   0.67010   0.99905   0.00000  Uiso   1.00
N317   N     0.92353   0.90960   0.73990   0.00000  Uiso   1.00
N318   N     0.63579   0.53272   0.81120   0.00000  Uiso   1.00
N319   N     0.10753   0.62963   0.93996   0.00000  Uiso   1.00
N320   N     0.80177   0.03975   0.76969   0.00000  Uiso   1.00
N321   N     0.51404   0.66287   0.84098   0.00000  Uiso   1.00
N322   N     0.98577   0.75977   0.96975   0.00000  Uiso   1.00
C323   C     0.81985   0.25411   0.82760   0.00000  Uiso   1.00
C324   C     0.72310   0.25088   0.81169   0.00000  Uiso   1.00
C325   C     0.69246   0.26931   0.77723   0.00000  Uiso   1.00
C326   C     0.60152   0.26261   0.76778   0.00000  Uiso   1.00
C327   C     0.46016   0.26124   0.73939   0.00000  Uiso   1.00
C328   C     0.88047   0.15292   0.84068   0.00000  Uiso   1.00
C329   C     0.98215   0.08899   0.83060   0.00000  Uiso   1.00
C330   C     0.02368   0.99983   0.84556   0.00000  Uiso   1.00
C331   C     0.12667   0.84640   0.86220   0.00000  Uiso   1.00
C332   C     0.78264   0.32791   0.86093   0.00000  Uiso   1.00
C333   C     0.80208   0.41111   0.86788   0.00000  Uiso   1.00
C334   C     0.76126   0.46927   0.89990   0.00000  Uiso   1.00
C335   C     0.71235   0.58754   0.94798   0.00000  Uiso   1.00
C336   C     0.71282   0.20945   0.87210   0.00000  Uiso   1.00
C337   C     0.66497   0.22662   0.83586   0.00000  Uiso   1.00
C338   C     0.57404   0.21989   0.82646   0.00000  Uiso   1.00
C339   C     0.54327   0.23831   0.79199   0.00000  Uiso   1.00
C340   C     0.82234   0.12866   0.86485   0.00000  Uiso   1.00
C341   C     0.86373   0.03958   0.87983   0.00000  Uiso   1.00
C342   C     0.96544   0.97553   0.86978   0.00000  Uiso   1.00
C343   C     0.72450   0.30365   0.88510   0.00000  Uiso   1.00
C344   C     0.68366   0.36169   0.91711   0.00000  Uiso   1.00
C345   C     0.70303   0.44496   0.92411   0.00000  Uiso   1.00
H346   H     0.86512   0.27299   0.80879   0.00000  Uiso   1.00
H347   H     0.73748   0.28807   0.75853   0.00000  Uiso   1.00
H348   H     0.02712   0.10779   0.81190   0.00000  Uiso   1.00
H349   H     0.84707   0.42985   0.84918   0.00000  Uiso   1.00
H350   H     0.57035   0.29406   0.71347   0.00000  Uiso   1.00
H351   H     0.18109   0.91393   0.82601   0.00000  Uiso   1.00
H352   H     0.80143   0.59307   0.90461   0.00000  Uiso   1.00
H353   H     0.66756   0.19056   0.89092   0.00000  Uiso   1.00
H354   H     0.52907   0.20112   0.84517   0.00000  Uiso   1.00
H355   H     0.81872   0.02083   0.89854   0.00000  Uiso   1.00
H356   H     0.63867   0.34290   0.93581   0.00000  Uiso   1.00
H357   H     0.40120   0.22348   0.78379   0.00000  Uiso   1.00
H358   H     0.01195   0.84335   0.89633   0.00000  Uiso   1.00
H359   H     0.63228   0.52249   0.97493   0.00000  Uiso   1.00
O360   O     0.39826   0.26717   0.71705   0.00000  Uiso   1.00
O361   O     0.19954   0.76847   0.86470   0.00000  Uiso   1.00
O362   O     0.70142   0.65948   0.96782   0.00000  Uiso   1.00
N363   N     0.54953   0.27602   0.73630   0.00000  Uiso   1.00
N364   N     0.12054   0.92062   0.84151   0.00000  Uiso   1.00
N365   N     0.76561   0.55554   0.91500   0.00000  Uiso   1.00
N366   N     0.45852   0.23804   0.77414   0.00000  Uiso   1.00
N367   N     0.02952   0.88264   0.87935   0.00000  Uiso   1.00
N368   N     0.67459   0.51756   0.95284   0.00000  Uiso   1.00
C369   C     0.17344   0.22628   0.82357   0.00000  Uiso   1.00
C370   C     0.27409   0.13402   0.81460   0.00000  Uiso   1.00
C371   C     0.28706   0.05445   0.78991   0.00000  Uiso   1.00
C372   C     0.38523   0.97716   0.78557   0.00000  Uiso   1.00
C373   C     0.52903   0.83358   0.76864   0.00000  Uiso   1.00
C374   C     0.19701   0.31405   0.81722   0.00000  Uiso   1.00
C375   C     0.14516   0.38585   0.79475   0.00000  Uiso   1.00
C376   C     0.17844   0.46012   0.79262   0.00000  Uiso   1.00
C377   C     0.20251   0.59608   0.77979   0.00000  Uiso   1.00
C378   C     0.15289   0.23369   0.86367   0.00000  Uiso   1.00
C379   C     0.06394   0.23794   0.88026   0.00000  Uiso   1.00
C380   C     0.06007   0.24457   0.91724   0.00000  Uiso   1.00
C381   C     0.01565   0.25574   0.97653   0.00000  Uiso   1.00
C382   C     0.32472   0.23053   0.85976   0.00000  Uiso   1.00
C383   C     0.35626   0.13633   0.83426   0.00000  Uiso   1.00
C384   C     0.45444   0.05914   0.82995   0.00000  Uiso   1.00
C385   C     0.46755   0.97947   0.80527   0.00000  Uiso   1.00
C386   C     0.27917   0.31636   0.83688   0.00000  Uiso   1.00
C387   C     0.31253   0.39054   0.83479   0.00000  Uiso   1.00
C388   C     0.26075   0.46243   0.81232   0.00000  Uiso   1.00
C389   C     0.23506   0.23599   0.88333   0.00000  Uiso   1.00
C390   C     0.23132   0.24262   0.92030   0.00000  Uiso   1.00
C391   C     0.14238   0.24688   0.93693   0.00000  Uiso   1.00
H392   H     0.10947   0.22450   0.80826   0.00000  Uiso   1.00
H393   H     0.22345   0.05270   0.77470   0.00000  Uiso   1.00
H394   H     0.08157   0.38405   0.77954   0.00000  Uiso   1.00
H395   H     0.00037   0.23616   0.86504   0.00000  Uiso   1.00
H396   H     0.38608   0.86326   0.74616   0.00000  Uiso   1.00
H397   H     0.08688   0.56196   0.75637   0.00000  Uiso   1.00
H398   H     0.91565   0.25009   0.93665   0.00000  Uiso   1.00
H399   H     0.38869   0.23232   0.87506   0.00000  Uiso   1.00
H400   H     0.51801   0.06095   0.84517   0.00000  Uiso   1.00
H401   H     0.37612   0.39230   0.85001   0.00000  Uiso   1.00
H402   H     0.29492   0.24441   0.93550   0.00000  Uiso   1.00
H403   H     0.62515   0.86996   0.80335   0.00000  Uiso   1.00
H404   H     0.32594   0.56866   0.81356   0.00000  Uiso   1.00
H405   H     0.15472   0.25679   0.99384   0.00000  Uiso   1.00
O406   O     0.58565   0.75375   0.75387   0.00000  Uiso   1.00
O407   O     0.19310   0.67042   0.76728   0.00000  Uiso   1.00
O408   O     0.96846   0.26125   0.00380   0.00000  Uiso   1.00
N409   N     0.42459   0.88835   0.76372   0.00000  Uiso   1.00
N410   N     0.14487   0.54158   0.77327   0.00000  Uiso   1.00
N411   N     0.98477   0.25004   0.94181   0.00000  Uiso   1.00
N412   N     0.55323   0.89195   0.79450   0.00000  Uiso   1.00
N413   N     0.27351   0.54518   0.80404   0.00000  Uiso   1.00
N414   N     0.11342   0.25364   0.97259   0.00000  Uiso   1.00
C415   C     0.97885   0.31605   0.29829   0.00000  Uiso   1.00
C416   C     0.08444   0.30809   0.28625   0.00000  Uiso   1.00
C417   C     0.10559   0.34356   0.25593   0.00000  Uiso   1.00
C418   C     0.20716   0.32893   0.24957   0.00000  Uiso   1.00
C419   C     0.35931   0.32389   0.22733   0.00000  Uiso   1.00
C420   C     0.99309   0.21044   0.30178   0.00000  Uiso   1.00
C421   C     0.93743   0.16382   0.28453   0.00000  Uiso   1.00
C422   C     0.96210   0.06700   0.29125   0.00000  Uiso   1.00
C423   C     0.97239   0.91038   0.29316   0.00000  Uiso   1.00
C424   C     0.95687   0.36859   0.33605   0.00000  Uiso   1.00
C425   C     0.87074   0.45493   0.34762   0.00000  Uiso   1.00
C426   C     0.86490   0.49125   0.38319   0.00000  Uiso   1.00
C427   C     0.81896   0.58017   0.43830   0.00000  Uiso   1.00
C428   C     0.12162   0.22701   0.34090   0.00000  Uiso   1.00
C429   C     0.16198   0.25972   0.30939   0.00000  Uiso   1.00
C430   C     0.26355   0.24505   0.30307   0.00000  Uiso   1.00
C431   C     0.28484   0.28049   0.27275   0.00000  Uiso   1.00
C432   C     0.07064   0.16208   0.32492   0.00000  Uiso   1.00
C433   C     0.09539   0.06531   0.33167   0.00000  Uiso   1.00
C434   C     0.03978   0.01855   0.31444   0.00000  Uiso   1.00
C435   C     0.03442   0.32023   0.35919   0.00000  Uiso   1.00
C436   C     0.02871   0.35642   0.39475   0.00000  Uiso   1.00
C437   C     0.94259   0.44279   0.40637   0.00000  Uiso   1.00
H438   H     0.91848   0.35369   0.28028   0.00000  Uiso   1.00
H439   H     0.04556   0.38097   0.23803   0.00000  Uiso   1.00
H440   H     0.87742   0.20126   0.26663   0.00000  Uiso   1.00
H441   H     0.81075   0.49233   0.32970   0.00000  Uiso   1.00
H442   H     0.22065   0.38985   0.20139   0.00000  Uiso   1.00
H443   H     0.86610   0.01094   0.26170   0.00000  Uiso   1.00
H444   H     0.72550   0.62471   0.39470   0.00000  Uiso   1.00
H445   H     0.18200   0.18935   0.35892   0.00000  Uiso   1.00
H446   H     0.32354   0.20762   0.32098   0.00000  Uiso   1.00
H447   H     0.15540   0.02791   0.34958   0.00000  Uiso   1.00
H448   H     0.08873   0.31897   0.41266   0.00000  Uiso   1.00
H449   H     0.44627   0.24915   0.26871   0.00000  Uiso   1.00
H450   H     0.09171   0.87024   0.32903   0.00000  Uiso   1.00
H451   H     0.95113   0.48401   0.46203   0.00000  Uiso   1.00
O452   O     0.42182   0.33445   0.20867   0.00000  Uiso   1.00
O453   O     0.95665   0.83734   0.28781   0.00000  Uiso   1.00
O454   O     0.77220   0.64259   0.46230   0.00000  Uiso   1.00
N455   N     0.25432   0.35425   0.22244   0.00000  Uiso   1.00
N456   N     0.92285   0.99998   0.27883   0.00000  Uiso   1.00
N457   N     0.79139   0.57379   0.40318   0.00000  Uiso   1.00
N458   N     0.37572   0.27854   0.25867   0.00000  Uiso   1.00
N459   N     0.04425   0.92427   0.31506   0.00000  Uiso   1.00
N460   N     0.91280   0.49808   0.43941   0.00000  Uiso   1.00
C461   C     0.61041   0.31984   0.32783   0.00000  Uiso   1.00
C462   C     0.60469   0.22617   0.31048   0.00000  Uiso   1.00
C463   C     0.64750   0.17811   0.27717   0.00000  Uiso   1.00
C464   C     0.63374   0.09351   0.26606   0.00000  Uiso   1.00
C465   C     0.63312   0.95346   0.23585   0.00000  Uiso   1.00
C466   C     0.49887   0.39482   0.33649   0.00000  Uiso   1.00
C467   C     0.45271   0.48857   0.32505   0.00000  Uiso   1.00
C468   C     0.34987   0.54595   0.33585   0.00000  Uiso   1.00
C469   C     0.18499   0.66775   0.34603   0.00000  Uiso   1.00
C470   C     0.65875   0.29412   0.36361   0.00000  Uiso   1.00
C471   C     0.74701   0.30323   0.37498   0.00000  Uiso   1.00
C472   C     0.77877   0.27584   0.40862   0.00000  Uiso   1.00
C473   C     0.86214   0.24129   0.46091   0.00000  Uiso   1.00
C474   C     0.50986   0.25504   0.36736   0.00000  Uiso   1.00
C475   C     0.55007   0.19098   0.33195   0.00000  Uiso   1.00
C476   C     0.53625   0.10643   0.32089   0.00000  Uiso   1.00
C477   C     0.57903   0.05825   0.28757   0.00000  Uiso   1.00
C478   C     0.44425   0.35963   0.35796   0.00000  Uiso   1.00
C479   C     0.34146   0.41689   0.36878   0.00000  Uiso   1.00
C480   C     0.29516   0.51069   0.35735   0.00000  Uiso   1.00
C481   C     0.60414   0.25893   0.38508   0.00000  Uiso   1.00
C482   C     0.63577   0.23153   0.41871   0.00000  Uiso   1.00
C483   C     0.72406   0.24059   0.43012   0.00000  Uiso   1.00
H484   H     0.65292   0.34724   0.31112   0.00000  Uiso   1.00
H485   H     0.68975   0.20538   0.26056   0.00000  Uiso   1.00
H486   H     0.49499   0.51579   0.30844   0.00000  Uiso   1.00
H487   H     0.78925   0.33046   0.35836   0.00000  Uiso   1.00
H488   H     0.70646   0.03260   0.21397   0.00000  Uiso   1.00
H489   H     0.29582   0.68713   0.31493   0.00000  Uiso   1.00
H490   H     0.91632   0.29634   0.42020   0.00000  Uiso   1.00
H491   H     0.46734   0.22765   0.38407   0.00000  Uiso   1.00
H492   H     0.49398   0.07921   0.33751   0.00000  Uiso   1.00
H493   H     0.29923   0.38963   0.38539   0.00000  Uiso   1.00
H494   H     0.59349   0.20430   0.43531   0.00000  Uiso   1.00
H495   H     0.54756   0.93020   0.27643   0.00000  Uiso   1.00
H496   H     0.13693   0.58473   0.37739   0.00000  Uiso   1.00
H497   H     0.75743   0.19394   0.48266   0.00000  Uiso   1.00
O498   O     0.64786   0.88593   0.21325   0.00000  Uiso   1.00
O499   O     0.10913   0.74466   0.34571   0.00000  Uiso   1.00
O500   O     0.92321   0.23195   0.48382   0.00000  Uiso   1.00
N501   N     0.66542   0.02886   0.23506   0.00000  Uiso   1.00
N502   N     0.28150   0.64080   0.32945   0.00000  Uiso   1.00
N503   N     0.86160   0.27547   0.42787   0.00000  Uiso   1.00
N504   N     0.57993   0.97376   0.26867   0.00000  Uiso   1.00
N505   N     0.19600   0.58570   0.36306   0.00000  Uiso   1.00
N506   N     0.77610   0.22037   0.46148   0.00000  Uiso   1.00
C507   C     0.60790   0.74277   0.33711   0.00000  Uiso   1.00
C508   C     0.51830   0.81341   0.31734   0.00000  Uiso   1.00
C509   C     0.50207   0.80084   0.28132   0.00000  Uiso   1.00
C510   C     0.41557   0.87381   0.26831   0.00000  Uiso   1.00
C511   C     0.28678   0.97098   0.23422   0.00000  Uiso   1.00
C512   C     0.66090   0.80440   0.35438   0.00000  Uiso   1.00
C513   C     0.76457   0.78425   0.34951   0.00000  Uiso   1.00
C514   C     0.79810   0.84964   0.36768   0.00000  Uiso   1.00
C515   C     0.89072   0.93277   0.39113   0.00000  Uiso   1.00
C516   C     0.55900   0.71463   0.36767   0.00000  Uiso   1.00
C517   C     0.57702   0.61898   0.37398   0.00000  Uiso   1.00
C518   C     0.52479   0.60878   0.40335   0.00000  Uiso   1.00
C519   C     0.45920   0.55253   0.44742   0.00000  Uiso   1.00
C520   C     0.48313   0.89473   0.37805   0.00000  Uiso   1.00
C521   C     0.45053   0.89595   0.33958   0.00000  Uiso   1.00
C522   C     0.36403   0.96896   0.32662   0.00000  Uiso   1.00
C523   C     0.34768   0.95650   0.29059   0.00000  Uiso   1.00
C524   C     0.59313   0.88694   0.37662   0.00000  Uiso   1.00
C525   C     0.62652   0.95237   0.39481   0.00000  Uiso   1.00
C526   C     0.73021   0.93232   0.38996   0.00000  Uiso   1.00
C527   C     0.49123   0.79717   0.38991   0.00000  Uiso   1.00
C528   C     0.43897   0.78711   0.41928   0.00000  Uiso   1.00
C529   C     0.45690   0.69147   0.42563   0.00000  Uiso   1.00
H530   H     0.66067   0.67851   0.31979   0.00000  Uiso   1.00
H531   H     0.55455   0.73696   0.26411   0.00000  Uiso   1.00
H532   H     0.81700   0.72036   0.33230   0.00000  Uiso   1.00
H533   H     0.62947   0.55513   0.35676   0.00000  Uiso   1.00
H534   H     0.40702   0.83817   0.21219   0.00000  Uiso   1.00
H535   H     0.96042   0.80317   0.35597   0.00000  Uiso   1.00
H536   H     0.56500   0.45473   0.40755   0.00000  Uiso   1.00
H537   H     0.43036   0.95899   0.39537   0.00000  Uiso   1.00
H538   H     0.31160   0.03283   0.34384   0.00000  Uiso   1.00
H539   H     0.57406   0.01623   0.41202   0.00000  Uiso   1.00
H540   H     0.38653   0.85100   0.43648   0.00000  Uiso   1.00
H541   H     0.20984   0.07832   0.27689   0.00000  Uiso   1.00
H542   H     0.76325   0.04331   0.42067   0.00000  Uiso   1.00
H543   H     0.36781   0.69487   0.47225   0.00000  Uiso   1.00
O544   O     0.23448   0.00177   0.20927   0.00000  Uiso   1.00
O545   O     0.96053   0.95583   0.39791   0.00000  Uiso   1.00
O546   O     0.44173   0.49870   0.46558   0.00000  Uiso   1.00
N547   N     0.37690   0.88455   0.23449   0.00000  Uiso   1.00
N548   N     0.89430   0.85183   0.36891   0.00000  Uiso   1.00
N549   N     0.52463   0.52607   0.41714   0.00000  Uiso   1.00
N550   N     0.27080   0.01377   0.26931   0.00000  Uiso   1.00
N551   N     0.78820   0.98104   0.40373   0.00000  Uiso   1.00
N552   N     0.41852   0.65529   0.45196   0.00000  Uiso   1.00
