data_job_00487
_audit_creation_date              2018-12-19
_audit_creation_method            'Materials Studio'
_symmetry_space_group_name_H-M    'P1'
_symmetry_Int_Tables_number       1
_symmetry_cell_setting            triclinic
loop_
_symmetry_equiv_pos_as_xyz
  x,y,z
_cell_length_a                    19.6172
_cell_length_b                    19.6172
_cell_length_c                    12.2389
_cell_angle_alpha                 90.0000
_cell_angle_beta                  90.0000
_cell_angle_gamma                 120.0000
loop_
_atom_site_label
_atom_site_type_symbol
_atom_site_fract_x
_atom_site_fract_y
_atom_site_fract_z
_atom_site_U_iso_or_equiv
_atom_site_adp_type
_atom_site_occupancy
C1     C     0.74382   0.64360   0.45165   0.00000  Uiso   1.00
C2     C     0.70315   0.55400   0.44831   0.00000  Uiso   1.00
C3     C     0.73741   0.50917   0.47539   0.00000  Uiso   1.00
C4     C     0.69034   0.42802   0.46695   0.00000  Uiso   1.00
C5     C     0.63915   0.29422   0.46692   0.00000  Uiso   1.00
C6     C     0.73553   0.66936   0.33722   0.00000  Uiso   1.00
C7     C     0.79701   0.72152   0.27091   0.00000  Uiso   1.00
C8     C     0.77719   0.73748   0.16896   0.00000  Uiso   1.00
C9     C     0.77626   0.78281   0.99649   0.00000  Uiso   1.00
C10    C     0.69375   0.66332   0.52614   0.00000  Uiso   1.00
C11    C     0.72011   0.71043   0.61868   0.00000  Uiso   1.00
C12    C     0.66513   0.72132   0.67577   0.00000  Uiso   1.00
C13    C     0.59934   0.75728   0.79665   0.00000  Uiso   1.00
C14    C     0.59932   0.57920   0.38850   0.00000  Uiso   1.00
C15    C     0.62467   0.51903   0.41400   0.00000  Uiso   1.00
C16    C     0.57754   0.43792   0.40552   0.00000  Uiso   1.00
C17    C     0.61172   0.39298   0.43259   0.00000  Uiso   1.00
C18    C     0.65704   0.63438   0.30291   0.00000  Uiso   1.00
C19    C     0.63713   0.65027   0.20104   0.00000  Uiso   1.00
C20    C     0.69856   0.70244   0.13459   0.00000  Uiso   1.00
C21    C     0.61527   0.62834   0.49185   0.00000  Uiso   1.00
C22    C     0.56024   0.63917   0.54881   0.00000  Uiso   1.00
C23    C     0.58650   0.68628   0.64141   0.00000  Uiso   1.00
H24    H     0.80492   0.67084   0.47835   0.00000  Uiso   1.00
H25    H     0.79815   0.53627   0.50192   0.00000  Uiso   1.00
H26    H     0.85774   0.74859   0.29748   0.00000  Uiso   1.00
H27    H     0.78085   0.73749   0.64520   0.00000  Uiso   1.00
H28    H     0.75604   0.37164   0.51289   0.00000  Uiso   1.00
H29    H     0.88168   0.81935   0.08183   0.00000  Uiso   1.00
H30    H     0.71955   0.79595   0.81505   0.00000  Uiso   1.00
H31    H     0.53821   0.55197   0.36179   0.00000  Uiso   1.00
H32    H     0.51680   0.41087   0.37897   0.00000  Uiso   1.00
H33    H     0.57639   0.62319   0.17452   0.00000  Uiso   1.00
H34    H     0.49950   0.61209   0.52224   0.00000  Uiso   1.00
H35    H     0.52769   0.26986   0.41309   0.00000  Uiso   1.00
H36    H     0.65333   0.71758   0.98203   0.00000  Uiso   1.00
H37    H     0.49120   0.69418   0.71525   0.00000  Uiso   1.00
O38    O     0.63260   0.23008   0.47636   0.00000  Uiso   1.00
O39    O     0.79743   0.81747   0.91084   0.00000  Uiso   1.00
O40    O     0.58472   0.78676   0.87280   0.00000  Uiso   1.00
N41    N     0.70523   0.36705   0.48707   0.00000  Uiso   1.00
N42    N     0.82269   0.78563   0.08404   0.00000  Uiso   1.00
N43    N     0.67112   0.76377   0.76953   0.00000  Uiso   1.00
N44    N     0.58235   0.31228   0.43337   0.00000  Uiso   1.00
N45    N     0.69982   0.73086   0.03034   0.00000  Uiso   1.00
N46    N     0.54825   0.70900   0.71583   0.00000  Uiso   1.00
C47    C     0.35640   0.10021   0.78499   0.00000  Uiso   1.00
C48    C     0.44600   0.14915   0.78164   0.00000  Uiso   1.00
C49    C     0.49083   0.22824   0.80872   0.00000  Uiso   1.00
C50    C     0.57198   0.26232   0.80028   0.00000  Uiso   1.00
C51    C     0.70578   0.34493   0.80025   0.00000  Uiso   1.00
C52    C     0.33064   0.06617   0.67055   0.00000  Uiso   1.00
C53    C     0.27848   0.07548   0.60424   0.00000  Uiso   1.00
C54    C     0.26252   0.03971   0.50229   0.00000  Uiso   1.00
C55    C     0.21719   0.99345   0.32983   0.00000  Uiso   1.00
C56    C     0.33668   0.03043   0.85948   0.00000  Uiso   1.00
C57    C     0.28957   0.00968   0.95201   0.00000  Uiso   1.00
C58    C     0.27868   0.94381   0.00911   0.00000  Uiso   1.00
C59    C     0.24272   0.84206   0.12998   0.00000  Uiso   1.00
C60    C     0.42080   0.02011   0.72183   0.00000  Uiso   1.00
C61    C     0.48097   0.10564   0.74733   0.00000  Uiso   1.00
C62    C     0.56208   0.13962   0.73885   0.00000  Uiso   1.00
C63    C     0.60702   0.21874   0.76592   0.00000  Uiso   1.00
C64    C     0.36562   0.02267   0.63625   0.00000  Uiso   1.00
C65    C     0.34973   0.98686   0.53437   0.00000  Uiso   1.00
C66    C     0.29756   0.99612   0.46793   0.00000  Uiso   1.00
C67    C     0.37166   0.98693   0.82518   0.00000  Uiso   1.00
C68    C     0.36083   0.92107   0.88214   0.00000  Uiso   1.00
C69    C     0.31372   0.90022   0.97474   0.00000  Uiso   1.00
H70    H     0.32916   0.13408   0.81169   0.00000  Uiso   1.00
H71    H     0.46373   0.26189   0.83526   0.00000  Uiso   1.00
H72    H     0.25141   0.10915   0.63082   0.00000  Uiso   1.00
H73    H     0.26251   0.04336   0.97853   0.00000  Uiso   1.00
H74    H     0.62836   0.38440   0.84622   0.00000  Uiso   1.00
H75    H     0.18065   0.06232   0.41516   0.00000  Uiso   1.00
H76    H     0.20405   0.92360   0.14838   0.00000  Uiso   1.00
H77    H     0.44803   0.98624   0.69512   0.00000  Uiso   1.00
H78    H     0.58913   0.10593   0.71230   0.00000  Uiso   1.00
H79    H     0.37681   0.95320   0.50786   0.00000  Uiso   1.00
H80    H     0.38791   0.88741   0.85557   0.00000  Uiso   1.00
H81    H     0.73014   0.25782   0.74642   0.00000  Uiso   1.00
H82    H     0.28242   0.93574   0.31536   0.00000  Uiso   1.00
H83    H     0.30582   0.79702   0.04858   0.00000  Uiso   1.00
O84    O     0.76992   0.40252   0.80969   0.00000  Uiso   1.00
O85    O     0.18253   0.97996   0.24417   0.00000  Uiso   1.00
O86    O     0.21324   0.79796   0.20614   0.00000  Uiso   1.00
N87    N     0.63295   0.33818   0.82040   0.00000  Uiso   1.00
N88    N     0.21437   0.03707   0.41738   0.00000  Uiso   1.00
N89    N     0.23623   0.90736   0.10286   0.00000  Uiso   1.00
N90    N     0.68772   0.27007   0.76670   0.00000  Uiso   1.00
N91    N     0.26914   0.96896   0.36368   0.00000  Uiso   1.00
N92    N     0.29100   0.83925   0.04916   0.00000  Uiso   1.00
C93    C     0.89979   0.25618   0.11832   0.00000  Uiso   1.00
C94    C     0.85085   0.29685   0.11497   0.00000  Uiso   1.00
C95    C     0.77176   0.26259   0.14206   0.00000  Uiso   1.00
C96    C     0.73768   0.30966   0.13361   0.00000  Uiso   1.00
C97    C     0.65507   0.36085   0.13358   0.00000  Uiso   1.00
C98    C     0.93383   0.26447   0.00388   0.00000  Uiso   1.00
C99    C     0.92452   0.20299   0.93758   0.00000  Uiso   1.00
C100   C     0.96029   0.22281   0.83563   0.00000  Uiso   1.00
C101   C     0.00655   0.22374   0.66316   0.00000  Uiso   1.00
C102   C     0.96957   0.30625   0.19281   0.00000  Uiso   1.00
C103   C     0.99032   0.27989   0.28534   0.00000  Uiso   1.00
C104   C     0.05619   0.33487   0.34244   0.00000  Uiso   1.00
C105   C     0.15794   0.40066   0.46331   0.00000  Uiso   1.00
C106   C     0.97989   0.40068   0.05517   0.00000  Uiso   1.00
C107   C     0.89436   0.37533   0.08067   0.00000  Uiso   1.00
C108   C     0.86038   0.42246   0.07219   0.00000  Uiso   1.00
C109   C     0.78126   0.38828   0.09926   0.00000  Uiso   1.00
C110   C     0.97733   0.34296   0.96958   0.00000  Uiso   1.00
C111   C     0.01314   0.36287   0.86771   0.00000  Uiso   1.00
C112   C     0.00388   0.30144   0.80126   0.00000  Uiso   1.00
C113   C     0.01307   0.38473   0.15851   0.00000  Uiso   1.00
C114   C     0.07893   0.43976   0.21547   0.00000  Uiso   1.00
C115   C     0.09978   0.41350   0.30808   0.00000  Uiso   1.00
H116   H     0.86592   0.19508   0.14502   0.00000  Uiso   1.00
H117   H     0.73811   0.20185   0.16859   0.00000  Uiso   1.00
H118   H     0.89085   0.14226   0.96415   0.00000  Uiso   1.00
H119   H     0.95664   0.21915   0.31186   0.00000  Uiso   1.00
H120   H     0.61560   0.24396   0.17956   0.00000  Uiso   1.00
H121   H     0.93768   0.11832   0.74850   0.00000  Uiso   1.00
H122   H     0.07640   0.28045   0.48172   0.00000  Uiso   1.00
H123   H     0.01376   0.46179   0.02846   0.00000  Uiso   1.00
H124   H     0.89407   0.48320   0.04564   0.00000  Uiso   1.00
H125   H     0.04680   0.42361   0.84119   0.00000  Uiso   1.00
H126   H     0.11259   0.50050   0.18890   0.00000  Uiso   1.00
H127   H     0.74218   0.47231   0.07976   0.00000  Uiso   1.00
H128   H     0.06426   0.34667   0.64870   0.00000  Uiso   1.00
H129   H     0.20298   0.50880   0.38192   0.00000  Uiso   1.00
O130   O     0.59748   0.36740   0.14303   0.00000  Uiso   1.00
O131   O     0.02004   0.20257   0.57750   0.00000  Uiso   1.00
O132   O     0.20204   0.41528   0.53947   0.00000  Uiso   1.00
N133   N     0.66182   0.29477   0.15373   0.00000  Uiso   1.00
N134   N     0.96293   0.17731   0.75071   0.00000  Uiso   1.00
N135   N     0.09264   0.32888   0.43619   0.00000  Uiso   1.00
N136   N     0.72993   0.41765   0.10003   0.00000  Uiso   1.00
N137   N     0.03104   0.30018   0.69701   0.00000  Uiso   1.00
N138   N     0.16075   0.45175   0.38249   0.00000  Uiso   1.00
C139   C     0.25618   0.35640   0.95165   0.00000  Uiso   1.00
C140   C     0.29685   0.44600   0.94831   0.00000  Uiso   1.00
C141   C     0.26259   0.49083   0.97539   0.00000  Uiso   1.00
C142   C     0.30966   0.57198   0.96695   0.00000  Uiso   1.00
C143   C     0.36085   0.70578   0.96692   0.00000  Uiso   1.00
C144   C     0.26447   0.33064   0.83722   0.00000  Uiso   1.00
C145   C     0.20299   0.27848   0.77091   0.00000  Uiso   1.00
C146   C     0.22281   0.26252   0.66896   0.00000  Uiso   1.00
C147   C     0.22374   0.21719   0.49649   0.00000  Uiso   1.00
C148   C     0.30625   0.33668   0.02614   0.00000  Uiso   1.00
C149   C     0.27989   0.28957   0.11868   0.00000  Uiso   1.00
C150   C     0.33487   0.27868   0.17577   0.00000  Uiso   1.00
C151   C     0.40066   0.24272   0.29665   0.00000  Uiso   1.00
C152   C     0.40068   0.42080   0.88850   0.00000  Uiso   1.00
C153   C     0.37533   0.48097   0.91400   0.00000  Uiso   1.00
C154   C     0.42246   0.56208   0.90552   0.00000  Uiso   1.00
C155   C     0.38828   0.60702   0.93259   0.00000  Uiso   1.00
C156   C     0.34296   0.36562   0.80291   0.00000  Uiso   1.00
C157   C     0.36287   0.34973   0.70104   0.00000  Uiso   1.00
C158   C     0.30144   0.29756   0.63459   0.00000  Uiso   1.00
C159   C     0.38473   0.37166   0.99185   0.00000  Uiso   1.00
C160   C     0.43976   0.36083   0.04881   0.00000  Uiso   1.00
C161   C     0.41350   0.31372   0.14141   0.00000  Uiso   1.00
H162   H     0.19508   0.32916   0.97835   0.00000  Uiso   1.00
H163   H     0.20185   0.46373   0.00192   0.00000  Uiso   1.00
H164   H     0.14226   0.25141   0.79748   0.00000  Uiso   1.00
H165   H     0.21915   0.26251   0.14520   0.00000  Uiso   1.00
H166   H     0.24396   0.62836   0.01289   0.00000  Uiso   1.00
H167   H     0.11832   0.18065   0.58183   0.00000  Uiso   1.00
H168   H     0.28045   0.20405   0.31505   0.00000  Uiso   1.00
H169   H     0.46179   0.44803   0.86179   0.00000  Uiso   1.00
H170   H     0.48320   0.58913   0.87897   0.00000  Uiso   1.00
H171   H     0.42361   0.37681   0.67452   0.00000  Uiso   1.00
H172   H     0.50050   0.38791   0.02224   0.00000  Uiso   1.00
H173   H     0.47231   0.73014   0.91309   0.00000  Uiso   1.00
H174   H     0.34667   0.28242   0.48203   0.00000  Uiso   1.00
H175   H     0.50880   0.30582   0.21525   0.00000  Uiso   1.00
O176   O     0.36740   0.76992   0.97636   0.00000  Uiso   1.00
O177   O     0.20257   0.18253   0.41084   0.00000  Uiso   1.00
O178   O     0.41528   0.21324   0.37280   0.00000  Uiso   1.00
N179   N     0.29477   0.63295   0.98707   0.00000  Uiso   1.00
N180   N     0.17731   0.21437   0.58404   0.00000  Uiso   1.00
N181   N     0.32888   0.23623   0.26953   0.00000  Uiso   1.00
N182   N     0.41765   0.68772   0.93337   0.00000  Uiso   1.00
N183   N     0.30018   0.26914   0.53034   0.00000  Uiso   1.00
N184   N     0.45175   0.29100   0.21583   0.00000  Uiso   1.00
C185   C     0.64360   0.89979   0.28499   0.00000  Uiso   1.00
C186   C     0.55400   0.85085   0.28164   0.00000  Uiso   1.00
C187   C     0.50917   0.77176   0.30872   0.00000  Uiso   1.00
C188   C     0.42802   0.73768   0.30028   0.00000  Uiso   1.00
C189   C     0.29422   0.65507   0.30025   0.00000  Uiso   1.00
C190   C     0.66936   0.93383   0.17055   0.00000  Uiso   1.00
C191   C     0.72152   0.92452   0.10424   0.00000  Uiso   1.00
C192   C     0.73748   0.96029   0.00229   0.00000  Uiso   1.00
C193   C     0.78281   0.00655   0.82983   0.00000  Uiso   1.00
C194   C     0.66332   0.96957   0.35948   0.00000  Uiso   1.00
C195   C     0.71043   0.99032   0.45201   0.00000  Uiso   1.00
C196   C     0.72132   0.05619   0.50911   0.00000  Uiso   1.00
C197   C     0.75728   0.15794   0.62998   0.00000  Uiso   1.00
C198   C     0.57920   0.97989   0.22183   0.00000  Uiso   1.00
C199   C     0.51903   0.89436   0.24733   0.00000  Uiso   1.00
C200   C     0.43792   0.86038   0.23885   0.00000  Uiso   1.00
C201   C     0.39298   0.78126   0.26592   0.00000  Uiso   1.00
C202   C     0.63438   0.97733   0.13625   0.00000  Uiso   1.00
C203   C     0.65027   0.01314   0.03437   0.00000  Uiso   1.00
C204   C     0.70244   0.00388   0.96793   0.00000  Uiso   1.00
C205   C     0.62834   0.01307   0.32518   0.00000  Uiso   1.00
C206   C     0.63917   0.07893   0.38214   0.00000  Uiso   1.00
C207   C     0.68628   0.09978   0.47474   0.00000  Uiso   1.00
H208   H     0.67084   0.86592   0.31169   0.00000  Uiso   1.00
H209   H     0.53627   0.73811   0.33526   0.00000  Uiso   1.00
H210   H     0.74859   0.89085   0.13082   0.00000  Uiso   1.00
H211   H     0.73749   0.95664   0.47853   0.00000  Uiso   1.00
H212   H     0.37164   0.61560   0.34622   0.00000  Uiso   1.00
H213   H     0.81935   0.93768   0.91516   0.00000  Uiso   1.00
H214   H     0.79595   0.07640   0.64838   0.00000  Uiso   1.00
H215   H     0.55197   0.01376   0.19512   0.00000  Uiso   1.00
H216   H     0.41087   0.89407   0.21230   0.00000  Uiso   1.00
H217   H     0.62319   0.04680   0.00786   0.00000  Uiso   1.00
H218   H     0.61209   0.11259   0.35557   0.00000  Uiso   1.00
H219   H     0.26986   0.74218   0.24642   0.00000  Uiso   1.00
H220   H     0.71758   0.06426   0.81536   0.00000  Uiso   1.00
H221   H     0.69418   0.20298   0.54858   0.00000  Uiso   1.00
O222   O     0.23008   0.59748   0.30969   0.00000  Uiso   1.00
O223   O     0.81747   0.02004   0.74417   0.00000  Uiso   1.00
O224   O     0.78676   0.20204   0.70614   0.00000  Uiso   1.00
N225   N     0.36705   0.66182   0.32040   0.00000  Uiso   1.00
N226   N     0.78563   0.96293   0.91738   0.00000  Uiso   1.00
N227   N     0.76377   0.09264   0.60286   0.00000  Uiso   1.00
N228   N     0.31228   0.72993   0.26670   0.00000  Uiso   1.00
N229   N     0.73086   0.03104   0.86368   0.00000  Uiso   1.00
N230   N     0.70900   0.16075   0.54916   0.00000  Uiso   1.00
C231   C     0.10021   0.74382   0.61832   0.00000  Uiso   1.00
C232   C     0.14915   0.70315   0.61497   0.00000  Uiso   1.00
C233   C     0.22824   0.73741   0.64206   0.00000  Uiso   1.00
C234   C     0.26232   0.69034   0.63361   0.00000  Uiso   1.00
C235   C     0.34493   0.63915   0.63358   0.00000  Uiso   1.00
C236   C     0.06617   0.73553   0.50388   0.00000  Uiso   1.00
C237   C     0.07548   0.79701   0.43758   0.00000  Uiso   1.00
C238   C     0.03971   0.77719   0.33563   0.00000  Uiso   1.00
C239   C     0.99345   0.77626   0.16316   0.00000  Uiso   1.00
C240   C     0.03043   0.69375   0.69281   0.00000  Uiso   1.00
C241   C     0.00968   0.72011   0.78534   0.00000  Uiso   1.00
C242   C     0.94381   0.66513   0.84244   0.00000  Uiso   1.00
C243   C     0.84206   0.59934   0.96331   0.00000  Uiso   1.00
C244   C     0.02011   0.59932   0.55517   0.00000  Uiso   1.00
C245   C     0.10564   0.62467   0.58067   0.00000  Uiso   1.00
C246   C     0.13962   0.57754   0.57219   0.00000  Uiso   1.00
C247   C     0.21874   0.61172   0.59926   0.00000  Uiso   1.00
C248   C     0.02267   0.65704   0.46958   0.00000  Uiso   1.00
C249   C     0.98686   0.63713   0.36771   0.00000  Uiso   1.00
C250   C     0.99612   0.69856   0.30126   0.00000  Uiso   1.00
C251   C     0.98693   0.61527   0.65851   0.00000  Uiso   1.00
C252   C     0.92107   0.56024   0.71547   0.00000  Uiso   1.00
C253   C     0.90022   0.58650   0.80808   0.00000  Uiso   1.00
H254   H     0.13408   0.80492   0.64502   0.00000  Uiso   1.00
H255   H     0.26189   0.79815   0.66859   0.00000  Uiso   1.00
H256   H     0.10915   0.85774   0.46415   0.00000  Uiso   1.00
H257   H     0.04336   0.78085   0.81186   0.00000  Uiso   1.00
H258   H     0.38440   0.75604   0.67956   0.00000  Uiso   1.00
H259   H     0.06232   0.88168   0.24850   0.00000  Uiso   1.00
H260   H     0.92360   0.71955   0.98172   0.00000  Uiso   1.00
H261   H     0.98624   0.53821   0.52846   0.00000  Uiso   1.00
H262   H     0.10593   0.51680   0.54564   0.00000  Uiso   1.00
H263   H     0.95320   0.57639   0.34119   0.00000  Uiso   1.00
H264   H     0.88741   0.49950   0.68890   0.00000  Uiso   1.00
H265   H     0.25782   0.52769   0.57976   0.00000  Uiso   1.00
H266   H     0.93574   0.65333   0.14870   0.00000  Uiso   1.00
H267   H     0.79702   0.49120   0.88192   0.00000  Uiso   1.00
O268   O     0.40252   0.63260   0.64303   0.00000  Uiso   1.00
O269   O     0.97996   0.79743   0.07750   0.00000  Uiso   1.00
O270   O     0.79796   0.58472   0.03947   0.00000  Uiso   1.00
N271   N     0.33818   0.70523   0.65373   0.00000  Uiso   1.00
N272   N     0.03707   0.82269   0.25071   0.00000  Uiso   1.00
N273   N     0.90736   0.67112   0.93619   0.00000  Uiso   1.00
N274   N     0.27007   0.58235   0.60003   0.00000  Uiso   1.00
N275   N     0.96896   0.69982   0.19701   0.00000  Uiso   1.00
N276   N     0.83925   0.54825   0.88249   0.00000  Uiso   1.00
