data_job_04441
_audit_creation_date              2018-12-19
_audit_creation_method            'Materials Studio'
_symmetry_space_group_name_H-M    'P1'
_symmetry_Int_Tables_number       1
_symmetry_cell_setting            triclinic
loop_
_symmetry_equiv_pos_as_xyz
  x,y,z
_cell_length_a                    17.5711
_cell_length_b                    17.5711
_cell_length_c                    16.3770
_cell_angle_alpha                 90.0000
_cell_angle_beta                  90.0000
_cell_angle_gamma                 90.0000
loop_
_atom_site_label
_atom_site_type_symbol
_atom_site_fract_x
_atom_site_fract_y
_atom_site_fract_z
_atom_site_U_iso_or_equiv
_atom_site_adp_type
_atom_site_occupancy
C1     C     0.77154   0.92621   0.05722   0.00000  Uiso   1.00
C2     C     0.68551   0.92920   0.04535   0.00000  Uiso   1.00
C3     C     0.64414   0.88624   0.98980   0.00000  Uiso   1.00
C4     C     0.56591   0.89730   0.98834   0.00000  Uiso   1.00
C5     C     0.43774   0.89403   0.96194   0.00000  Uiso   1.00
C6     C     0.80000   0.00741   0.04504   0.00000  Uiso   1.00
C7     C     0.85490   0.03020   0.98924   0.00000  Uiso   1.00
C8     C     0.87306   0.10708   0.98753   0.00000  Uiso   1.00
C9     C     0.92268   0.22523   0.96069   0.00000  Uiso   1.00
C10    C     0.78431   0.90783   0.14718   0.00000  Uiso   1.00
C11    C     0.82604   0.84691   0.17726   0.00000  Uiso   1.00
C12    C     0.83100   0.83998   0.26154   0.00000  Uiso   1.00
C13    C     0.85625   0.80352   0.39329   0.00000  Uiso   1.00
C14    C     0.70618   0.02223   0.15342   0.00000  Uiso   1.00
C15    C     0.65001   0.98136   0.09760   0.00000  Uiso   1.00
C16    C     0.57183   0.99248   0.09623   0.00000  Uiso   1.00
C17    C     0.53035   0.94954   0.04069   0.00000  Uiso   1.00
C18    C     0.76450   0.05956   0.09729   0.00000  Uiso   1.00
C19    C     0.78259   0.13643   0.09567   0.00000  Uiso   1.00
C20    C     0.83750   0.15934   0.03987   0.00000  Uiso   1.00
C21    C     0.74881   0.95999   0.19943   0.00000  Uiso   1.00
C22    C     0.75372   0.95315   0.28369   0.00000  Uiso   1.00
C23    C     0.79544   0.89223   0.31389   0.00000  Uiso   1.00
H24    H     0.79918   0.88561   0.01654   0.00000  Uiso   1.00
H25    H     0.67164   0.84589   0.94937   0.00000  Uiso   1.00
H26    H     0.88237   0.98982   0.94882   0.00000  Uiso   1.00
H27    H     0.85350   0.80656   0.13680   0.00000  Uiso   1.00
H28    H     0.51458   0.82487   0.89792   0.00000  Uiso   1.00
H29    H     0.95894   0.12836   0.89677   0.00000  Uiso   1.00
H30    H     0.89807   0.74192   0.29319   0.00000  Uiso   1.00
H31    H     0.67854   0.06284   0.19410   0.00000  Uiso   1.00
H32    H     0.54437   0.03285   0.13667   0.00000  Uiso   1.00
H33    H     0.75511   0.17678   0.13612   0.00000  Uiso   1.00
H34    H     0.72624   0.99352   0.32410   0.00000  Uiso   1.00
H35    H     0.41129   0.97662   0.04994   0.00000  Uiso   1.00
H36    H     0.85565   0.28010   0.04879   0.00000  Uiso   1.00
H37    H     0.79478   0.89367   0.44521   0.00000  Uiso   1.00
O38    O     0.37685   0.87783   0.93293   0.00000  Uiso   1.00
O39    O     0.95985   0.27599   0.93144   0.00000  Uiso   1.00
O40    O     0.87998   0.76899   0.45152   0.00000  Uiso   1.00
N41    N     0.50868   0.86469   0.94159   0.00000  Uiso   1.00
N42    N     0.92412   0.14843   0.94051   0.00000  Uiso   1.00
N43    N     0.86723   0.78716   0.31112   0.00000  Uiso   1.00
N44    N     0.45310   0.94634   0.02339   0.00000  Uiso   1.00
N45    N     0.86854   0.23008   0.02231   0.00000  Uiso   1.00
N46    N     0.81165   0.86881   0.39292   0.00000  Uiso   1.00
C47    C     0.22846   0.07379   0.55722   0.00000  Uiso   1.00
C48    C     0.31449   0.07080   0.54535   0.00000  Uiso   1.00
C49    C     0.35586   0.11376   0.48980   0.00000  Uiso   1.00
C50    C     0.43409   0.10270   0.48834   0.00000  Uiso   1.00
C51    C     0.56226   0.10597   0.46194   0.00000  Uiso   1.00
C52    C     0.20000   0.99259   0.54504   0.00000  Uiso   1.00
C53    C     0.14510   0.96980   0.48924   0.00000  Uiso   1.00
C54    C     0.12694   0.89292   0.48753   0.00000  Uiso   1.00
C55    C     0.07732   0.77477   0.46069   0.00000  Uiso   1.00
C56    C     0.21569   0.09217   0.64718   0.00000  Uiso   1.00
C57    C     0.17396   0.15309   0.67726   0.00000  Uiso   1.00
C58    C     0.16900   0.16002   0.76154   0.00000  Uiso   1.00
C59    C     0.14375   0.19648   0.89329   0.00000  Uiso   1.00
C60    C     0.29382   0.97777   0.65342   0.00000  Uiso   1.00
C61    C     0.34999   0.01864   0.59760   0.00000  Uiso   1.00
C62    C     0.42817   0.00752   0.59623   0.00000  Uiso   1.00
C63    C     0.46965   0.05046   0.54069   0.00000  Uiso   1.00
C64    C     0.23550   0.94044   0.59729   0.00000  Uiso   1.00
C65    C     0.21741   0.86357   0.59567   0.00000  Uiso   1.00
C66    C     0.16250   0.84066   0.53987   0.00000  Uiso   1.00
C67    C     0.25119   0.04001   0.69943   0.00000  Uiso   1.00
C68    C     0.24628   0.04685   0.78369   0.00000  Uiso   1.00
C69    C     0.20456   0.10777   0.81389   0.00000  Uiso   1.00
H70    H     0.20082   0.11439   0.51654   0.00000  Uiso   1.00
H71    H     0.32836   0.15411   0.44937   0.00000  Uiso   1.00
H72    H     0.11763   0.01018   0.44882   0.00000  Uiso   1.00
H73    H     0.14650   0.19344   0.63680   0.00000  Uiso   1.00
H74    H     0.48542   0.17513   0.39792   0.00000  Uiso   1.00
H75    H     0.04106   0.87164   0.39677   0.00000  Uiso   1.00
H76    H     0.10193   0.25808   0.79319   0.00000  Uiso   1.00
H77    H     0.32146   0.93716   0.69410   0.00000  Uiso   1.00
H78    H     0.45563   0.96715   0.63667   0.00000  Uiso   1.00
H79    H     0.24489   0.82322   0.63612   0.00000  Uiso   1.00
H80    H     0.27376   0.00648   0.82410   0.00000  Uiso   1.00
H81    H     0.58871   0.02338   0.54994   0.00000  Uiso   1.00
H82    H     0.14435   0.71990   0.54879   0.00000  Uiso   1.00
H83    H     0.20522   0.10633   0.94521   0.00000  Uiso   1.00
O84    O     0.62315   0.12217   0.43293   0.00000  Uiso   1.00
O85    O     0.04015   0.72401   0.43144   0.00000  Uiso   1.00
O86    O     0.12002   0.23101   0.95152   0.00000  Uiso   1.00
N87    N     0.49132   0.13531   0.44159   0.00000  Uiso   1.00
N88    N     0.07588   0.85157   0.44051   0.00000  Uiso   1.00
N89    N     0.13277   0.21284   0.81112   0.00000  Uiso   1.00
N90    N     0.54690   0.05366   0.52339   0.00000  Uiso   1.00
N91    N     0.13146   0.76992   0.52231   0.00000  Uiso   1.00
N92    N     0.18835   0.13119   0.89292   0.00000  Uiso   1.00
C93    C     0.57379   0.27154   0.80722   0.00000  Uiso   1.00
C94    C     0.57080   0.18551   0.79535   0.00000  Uiso   1.00
C95    C     0.61376   0.14414   0.73980   0.00000  Uiso   1.00
C96    C     0.60270   0.06591   0.73834   0.00000  Uiso   1.00
C97    C     0.60597   0.93774   0.71194   0.00000  Uiso   1.00
C98    C     0.49259   0.30000   0.79504   0.00000  Uiso   1.00
C99    C     0.46980   0.35490   0.73924   0.00000  Uiso   1.00
C100   C     0.39292   0.37306   0.73753   0.00000  Uiso   1.00
C101   C     0.27477   0.42268   0.71069   0.00000  Uiso   1.00
C102   C     0.59217   0.28431   0.89718   0.00000  Uiso   1.00
C103   C     0.65309   0.32604   0.92726   0.00000  Uiso   1.00
C104   C     0.66002   0.33100   0.01154   0.00000  Uiso   1.00
C105   C     0.69648   0.35625   0.14329   0.00000  Uiso   1.00
C106   C     0.47777   0.20618   0.90342   0.00000  Uiso   1.00
C107   C     0.51864   0.15001   0.84760   0.00000  Uiso   1.00
C108   C     0.50752   0.07183   0.84623   0.00000  Uiso   1.00
C109   C     0.55046   0.03035   0.79069   0.00000  Uiso   1.00
C110   C     0.44044   0.26450   0.84729   0.00000  Uiso   1.00
C111   C     0.36357   0.28259   0.84567   0.00000  Uiso   1.00
C112   C     0.34066   0.33750   0.78987   0.00000  Uiso   1.00
C113   C     0.54001   0.24881   0.94943   0.00000  Uiso   1.00
C114   C     0.54685   0.25372   0.03369   0.00000  Uiso   1.00
C115   C     0.60777   0.29544   0.06389   0.00000  Uiso   1.00
H116   H     0.61439   0.29918   0.76654   0.00000  Uiso   1.00
H117   H     0.65411   0.17164   0.69937   0.00000  Uiso   1.00
H118   H     0.51018   0.38237   0.69882   0.00000  Uiso   1.00
H119   H     0.69344   0.35350   0.88680   0.00000  Uiso   1.00
H120   H     0.67513   0.01458   0.64792   0.00000  Uiso   1.00
H121   H     0.37164   0.45894   0.64677   0.00000  Uiso   1.00
H122   H     0.75808   0.39807   0.04319   0.00000  Uiso   1.00
H123   H     0.43716   0.17854   0.94410   0.00000  Uiso   1.00
H124   H     0.46715   0.04437   0.88667   0.00000  Uiso   1.00
H125   H     0.32322   0.25511   0.88612   0.00000  Uiso   1.00
H126   H     0.50648   0.22624   0.07410   0.00000  Uiso   1.00
H127   H     0.52338   0.91129   0.79994   0.00000  Uiso   1.00
H128   H     0.21990   0.35565   0.79879   0.00000  Uiso   1.00
H129   H     0.60633   0.29478   0.19521   0.00000  Uiso   1.00
O130   O     0.62217   0.87685   0.68293   0.00000  Uiso   1.00
O131   O     0.22401   0.45985   0.68144   0.00000  Uiso   1.00
O132   O     0.73101   0.37998   0.20152   0.00000  Uiso   1.00
N133   N     0.63531   0.00868   0.69159   0.00000  Uiso   1.00
N134   N     0.35157   0.42412   0.69051   0.00000  Uiso   1.00
N135   N     0.71284   0.36723   0.06112   0.00000  Uiso   1.00
N136   N     0.55366   0.95310   0.77339   0.00000  Uiso   1.00
N137   N     0.26992   0.36854   0.77231   0.00000  Uiso   1.00
N138   N     0.63119   0.31165   0.14292   0.00000  Uiso   1.00
C139   C     0.42621   0.72846   0.30722   0.00000  Uiso   1.00
C140   C     0.42920   0.81449   0.29535   0.00000  Uiso   1.00
C141   C     0.38624   0.85586   0.23980   0.00000  Uiso   1.00
C142   C     0.39730   0.93409   0.23834   0.00000  Uiso   1.00
C143   C     0.39403   0.06226   0.21194   0.00000  Uiso   1.00
C144   C     0.50741   0.70000   0.29504   0.00000  Uiso   1.00
C145   C     0.53020   0.64510   0.23924   0.00000  Uiso   1.00
C146   C     0.60708   0.62694   0.23753   0.00000  Uiso   1.00
C147   C     0.72523   0.57732   0.21069   0.00000  Uiso   1.00
C148   C     0.40783   0.71569   0.39718   0.00000  Uiso   1.00
C149   C     0.34691   0.67396   0.42726   0.00000  Uiso   1.00
C150   C     0.33998   0.66900   0.51154   0.00000  Uiso   1.00
C151   C     0.30352   0.64375   0.64329   0.00000  Uiso   1.00
C152   C     0.52223   0.79382   0.40342   0.00000  Uiso   1.00
C153   C     0.48136   0.84999   0.34760   0.00000  Uiso   1.00
C154   C     0.49248   0.92817   0.34623   0.00000  Uiso   1.00
C155   C     0.44954   0.96965   0.29069   0.00000  Uiso   1.00
C156   C     0.55956   0.73550   0.34729   0.00000  Uiso   1.00
C157   C     0.63643   0.71741   0.34567   0.00000  Uiso   1.00
C158   C     0.65934   0.66250   0.28987   0.00000  Uiso   1.00
C159   C     0.45999   0.75119   0.44943   0.00000  Uiso   1.00
C160   C     0.45315   0.74628   0.53369   0.00000  Uiso   1.00
C161   C     0.39223   0.70456   0.56389   0.00000  Uiso   1.00
H162   H     0.38561   0.70082   0.26654   0.00000  Uiso   1.00
H163   H     0.34589   0.82836   0.19937   0.00000  Uiso   1.00
H164   H     0.48982   0.61763   0.19882   0.00000  Uiso   1.00
H165   H     0.30656   0.64650   0.38680   0.00000  Uiso   1.00
H166   H     0.32487   0.98542   0.14792   0.00000  Uiso   1.00
H167   H     0.62836   0.54106   0.14677   0.00000  Uiso   1.00
H168   H     0.24192   0.60193   0.54319   0.00000  Uiso   1.00
H169   H     0.56284   0.82146   0.44410   0.00000  Uiso   1.00
H170   H     0.53285   0.95563   0.38667   0.00000  Uiso   1.00
H171   H     0.67678   0.74489   0.38612   0.00000  Uiso   1.00
H172   H     0.49352   0.77376   0.57410   0.00000  Uiso   1.00
H173   H     0.47662   0.08871   0.29994   0.00000  Uiso   1.00
H174   H     0.78010   0.64435   0.29879   0.00000  Uiso   1.00
H175   H     0.39367   0.70522   0.69521   0.00000  Uiso   1.00
O176   O     0.37783   0.12315   0.18293   0.00000  Uiso   1.00
O177   O     0.77599   0.54015   0.18144   0.00000  Uiso   1.00
O178   O     0.26899   0.62002   0.70152   0.00000  Uiso   1.00
N179   N     0.36469   0.99132   0.19159   0.00000  Uiso   1.00
N180   N     0.64843   0.57588   0.19051   0.00000  Uiso   1.00
N181   N     0.28716   0.63277   0.56112   0.00000  Uiso   1.00
N182   N     0.44634   0.04690   0.27339   0.00000  Uiso   1.00
N183   N     0.73008   0.63146   0.27231   0.00000  Uiso   1.00
N184   N     0.36881   0.68835   0.64292   0.00000  Uiso   1.00
C185   C     0.72846   0.42621   0.69278   0.00000  Uiso   1.00
C186   C     0.81449   0.42920   0.70465   0.00000  Uiso   1.00
C187   C     0.85586   0.38624   0.76020   0.00000  Uiso   1.00
C188   C     0.93409   0.39730   0.76166   0.00000  Uiso   1.00
C189   C     0.06226   0.39403   0.78806   0.00000  Uiso   1.00
C190   C     0.70000   0.50741   0.70496   0.00000  Uiso   1.00
C191   C     0.64510   0.53020   0.76076   0.00000  Uiso   1.00
C192   C     0.62694   0.60708   0.76247   0.00000  Uiso   1.00
C193   C     0.57732   0.72523   0.78931   0.00000  Uiso   1.00
C194   C     0.71569   0.40783   0.60282   0.00000  Uiso   1.00
C195   C     0.67396   0.34691   0.57274   0.00000  Uiso   1.00
C196   C     0.66900   0.33998   0.48846   0.00000  Uiso   1.00
C197   C     0.64375   0.30352   0.35671   0.00000  Uiso   1.00
C198   C     0.79382   0.52223   0.59658   0.00000  Uiso   1.00
C199   C     0.84999   0.48136   0.65240   0.00000  Uiso   1.00
C200   C     0.92817   0.49248   0.65377   0.00000  Uiso   1.00
C201   C     0.96965   0.44954   0.70931   0.00000  Uiso   1.00
C202   C     0.73550   0.55956   0.65271   0.00000  Uiso   1.00
C203   C     0.71741   0.63643   0.65433   0.00000  Uiso   1.00
C204   C     0.66250   0.65934   0.71013   0.00000  Uiso   1.00
C205   C     0.75119   0.45999   0.55057   0.00000  Uiso   1.00
C206   C     0.74628   0.45315   0.46631   0.00000  Uiso   1.00
C207   C     0.70456   0.39223   0.43611   0.00000  Uiso   1.00
H208   H     0.70082   0.38561   0.73346   0.00000  Uiso   1.00
H209   H     0.82836   0.34589   0.80063   0.00000  Uiso   1.00
H210   H     0.61763   0.48982   0.80118   0.00000  Uiso   1.00
H211   H     0.64650   0.30656   0.61320   0.00000  Uiso   1.00
H212   H     0.98542   0.32487   0.85208   0.00000  Uiso   1.00
H213   H     0.54106   0.62836   0.85323   0.00000  Uiso   1.00
H214   H     0.60193   0.24192   0.45681   0.00000  Uiso   1.00
H215   H     0.82146   0.56284   0.55590   0.00000  Uiso   1.00
H216   H     0.95563   0.53285   0.61333   0.00000  Uiso   1.00
H217   H     0.74489   0.67678   0.61388   0.00000  Uiso   1.00
H218   H     0.77376   0.49352   0.42590   0.00000  Uiso   1.00
H219   H     0.08871   0.47662   0.70006   0.00000  Uiso   1.00
H220   H     0.64435   0.78010   0.70121   0.00000  Uiso   1.00
H221   H     0.70522   0.39367   0.30479   0.00000  Uiso   1.00
O222   O     0.12315   0.37783   0.81707   0.00000  Uiso   1.00
O223   O     0.54015   0.77599   0.81856   0.00000  Uiso   1.00
O224   O     0.62002   0.26899   0.29848   0.00000  Uiso   1.00
N225   N     0.99132   0.36469   0.80841   0.00000  Uiso   1.00
N226   N     0.57588   0.64843   0.80949   0.00000  Uiso   1.00
N227   N     0.63277   0.28716   0.43888   0.00000  Uiso   1.00
N228   N     0.04690   0.44634   0.72661   0.00000  Uiso   1.00
N229   N     0.63146   0.73008   0.72769   0.00000  Uiso   1.00
N230   N     0.68835   0.36881   0.35708   0.00000  Uiso   1.00
C231   C     0.27154   0.57379   0.19278   0.00000  Uiso   1.00
C232   C     0.18551   0.57080   0.20465   0.00000  Uiso   1.00
C233   C     0.14414   0.61376   0.26020   0.00000  Uiso   1.00
C234   C     0.06591   0.60270   0.26166   0.00000  Uiso   1.00
C235   C     0.93774   0.60597   0.28806   0.00000  Uiso   1.00
C236   C     0.30000   0.49259   0.20496   0.00000  Uiso   1.00
C237   C     0.35490   0.46980   0.26076   0.00000  Uiso   1.00
C238   C     0.37306   0.39292   0.26247   0.00000  Uiso   1.00
C239   C     0.42268   0.27477   0.28931   0.00000  Uiso   1.00
C240   C     0.28431   0.59217   0.10282   0.00000  Uiso   1.00
C241   C     0.32604   0.65309   0.07274   0.00000  Uiso   1.00
C242   C     0.33100   0.66002   0.98846   0.00000  Uiso   1.00
C243   C     0.35625   0.69648   0.85671   0.00000  Uiso   1.00
C244   C     0.20618   0.47777   0.09658   0.00000  Uiso   1.00
C245   C     0.15001   0.51864   0.15240   0.00000  Uiso   1.00
C246   C     0.07183   0.50752   0.15377   0.00000  Uiso   1.00
C247   C     0.03035   0.55046   0.20931   0.00000  Uiso   1.00
C248   C     0.26450   0.44044   0.15271   0.00000  Uiso   1.00
C249   C     0.28259   0.36357   0.15433   0.00000  Uiso   1.00
C250   C     0.33750   0.34066   0.21013   0.00000  Uiso   1.00
C251   C     0.24881   0.54001   0.05057   0.00000  Uiso   1.00
C252   C     0.25372   0.54685   0.96631   0.00000  Uiso   1.00
C253   C     0.29544   0.60777   0.93611   0.00000  Uiso   1.00
H254   H     0.29918   0.61439   0.23346   0.00000  Uiso   1.00
H255   H     0.17164   0.65411   0.30063   0.00000  Uiso   1.00
H256   H     0.38237   0.51018   0.30118   0.00000  Uiso   1.00
H257   H     0.35350   0.69344   0.11320   0.00000  Uiso   1.00
H258   H     0.01458   0.67513   0.35208   0.00000  Uiso   1.00
H259   H     0.45894   0.37164   0.35323   0.00000  Uiso   1.00
H260   H     0.39807   0.75808   0.95681   0.00000  Uiso   1.00
H261   H     0.17854   0.43716   0.05590   0.00000  Uiso   1.00
H262   H     0.04437   0.46715   0.11333   0.00000  Uiso   1.00
H263   H     0.25511   0.32322   0.11388   0.00000  Uiso   1.00
H264   H     0.22624   0.50648   0.92590   0.00000  Uiso   1.00
H265   H     0.91129   0.52338   0.20006   0.00000  Uiso   1.00
H266   H     0.35565   0.21990   0.20121   0.00000  Uiso   1.00
H267   H     0.29478   0.60633   0.80479   0.00000  Uiso   1.00
O268   O     0.87685   0.62217   0.31707   0.00000  Uiso   1.00
O269   O     0.45985   0.22401   0.31856   0.00000  Uiso   1.00
O270   O     0.37998   0.73101   0.79848   0.00000  Uiso   1.00
N271   N     0.00868   0.63531   0.30841   0.00000  Uiso   1.00
N272   N     0.42412   0.35157   0.30949   0.00000  Uiso   1.00
N273   N     0.36723   0.71284   0.93888   0.00000  Uiso   1.00
N274   N     0.95310   0.55366   0.22661   0.00000  Uiso   1.00
N275   N     0.36854   0.26992   0.22769   0.00000  Uiso   1.00
N276   N     0.31165   0.63119   0.85708   0.00000  Uiso   1.00
C277   C     0.92621   0.77154   0.94278   0.00000  Uiso   1.00
C278   C     0.92920   0.68551   0.95465   0.00000  Uiso   1.00
C279   C     0.88624   0.64414   0.01020   0.00000  Uiso   1.00
C280   C     0.89730   0.56591   0.01166   0.00000  Uiso   1.00
C281   C     0.89403   0.43774   0.03806   0.00000  Uiso   1.00
C282   C     0.00741   0.80000   0.95496   0.00000  Uiso   1.00
C283   C     0.03020   0.85490   0.01076   0.00000  Uiso   1.00
C284   C     0.10708   0.87306   0.01247   0.00000  Uiso   1.00
C285   C     0.22523   0.92268   0.03931   0.00000  Uiso   1.00
C286   C     0.90783   0.78431   0.85282   0.00000  Uiso   1.00
C287   C     0.84691   0.82604   0.82274   0.00000  Uiso   1.00
C288   C     0.83998   0.83100   0.73846   0.00000  Uiso   1.00
C289   C     0.80352   0.85625   0.60671   0.00000  Uiso   1.00
C290   C     0.02223   0.70618   0.84658   0.00000  Uiso   1.00
C291   C     0.98136   0.65001   0.90240   0.00000  Uiso   1.00
C292   C     0.99248   0.57183   0.90377   0.00000  Uiso   1.00
C293   C     0.94954   0.53035   0.95931   0.00000  Uiso   1.00
C294   C     0.05956   0.76450   0.90271   0.00000  Uiso   1.00
C295   C     0.13643   0.78259   0.90433   0.00000  Uiso   1.00
C296   C     0.15934   0.83750   0.96013   0.00000  Uiso   1.00
C297   C     0.95999   0.74881   0.80057   0.00000  Uiso   1.00
C298   C     0.95315   0.75372   0.71631   0.00000  Uiso   1.00
C299   C     0.89223   0.79544   0.68611   0.00000  Uiso   1.00
H300   H     0.88561   0.79918   0.98346   0.00000  Uiso   1.00
H301   H     0.84589   0.67164   0.05063   0.00000  Uiso   1.00
H302   H     0.98982   0.88237   0.05118   0.00000  Uiso   1.00
H303   H     0.80656   0.85350   0.86320   0.00000  Uiso   1.00
H304   H     0.82487   0.51458   0.10208   0.00000  Uiso   1.00
H305   H     0.12836   0.95894   0.10323   0.00000  Uiso   1.00
H306   H     0.74192   0.89807   0.70681   0.00000  Uiso   1.00
H307   H     0.06284   0.67854   0.80590   0.00000  Uiso   1.00
H308   H     0.03285   0.54437   0.86333   0.00000  Uiso   1.00
H309   H     0.17678   0.75511   0.86388   0.00000  Uiso   1.00
H310   H     0.99352   0.72624   0.67590   0.00000  Uiso   1.00
H311   H     0.97662   0.41129   0.95006   0.00000  Uiso   1.00
H312   H     0.28010   0.85565   0.95121   0.00000  Uiso   1.00
H313   H     0.89367   0.79478   0.55479   0.00000  Uiso   1.00
O314   O     0.87783   0.37685   0.06707   0.00000  Uiso   1.00
O315   O     0.27599   0.95985   0.06856   0.00000  Uiso   1.00
O316   O     0.76899   0.87998   0.54848   0.00000  Uiso   1.00
N317   N     0.86469   0.50868   0.05841   0.00000  Uiso   1.00
N318   N     0.14843   0.92412   0.05949   0.00000  Uiso   1.00
N319   N     0.78716   0.86723   0.68888   0.00000  Uiso   1.00
N320   N     0.94634   0.45310   0.97661   0.00000  Uiso   1.00
N321   N     0.23008   0.86854   0.97769   0.00000  Uiso   1.00
N322   N     0.86881   0.81165   0.60708   0.00000  Uiso   1.00
C323   C     0.07379   0.22846   0.44278   0.00000  Uiso   1.00
C324   C     0.07080   0.31449   0.45465   0.00000  Uiso   1.00
C325   C     0.11376   0.35586   0.51020   0.00000  Uiso   1.00
C326   C     0.10270   0.43409   0.51166   0.00000  Uiso   1.00
C327   C     0.10597   0.56226   0.53806   0.00000  Uiso   1.00
C328   C     0.99259   0.20000   0.45496   0.00000  Uiso   1.00
C329   C     0.96980   0.14510   0.51076   0.00000  Uiso   1.00
C330   C     0.89292   0.12694   0.51247   0.00000  Uiso   1.00
C331   C     0.77477   0.07732   0.53931   0.00000  Uiso   1.00
C332   C     0.09217   0.21569   0.35282   0.00000  Uiso   1.00
C333   C     0.15309   0.17396   0.32274   0.00000  Uiso   1.00
C334   C     0.16002   0.16900   0.23846   0.00000  Uiso   1.00
C335   C     0.19648   0.14375   0.10671   0.00000  Uiso   1.00
C336   C     0.97777   0.29382   0.34658   0.00000  Uiso   1.00
C337   C     0.01864   0.34999   0.40240   0.00000  Uiso   1.00
C338   C     0.00752   0.42817   0.40377   0.00000  Uiso   1.00
C339   C     0.05046   0.46965   0.45931   0.00000  Uiso   1.00
C340   C     0.94044   0.23550   0.40271   0.00000  Uiso   1.00
C341   C     0.86357   0.21741   0.40433   0.00000  Uiso   1.00
C342   C     0.84066   0.16250   0.46013   0.00000  Uiso   1.00
C343   C     0.04001   0.25119   0.30057   0.00000  Uiso   1.00
C344   C     0.04685   0.24628   0.21631   0.00000  Uiso   1.00
C345   C     0.10777   0.20456   0.18611   0.00000  Uiso   1.00
H346   H     0.11439   0.20082   0.48346   0.00000  Uiso   1.00
H347   H     0.15411   0.32836   0.55063   0.00000  Uiso   1.00
H348   H     0.01018   0.11763   0.55118   0.00000  Uiso   1.00
H349   H     0.19344   0.14650   0.36320   0.00000  Uiso   1.00
H350   H     0.17513   0.48542   0.60208   0.00000  Uiso   1.00
H351   H     0.87164   0.04106   0.60323   0.00000  Uiso   1.00
H352   H     0.25808   0.10193   0.20681   0.00000  Uiso   1.00
H353   H     0.93716   0.32146   0.30590   0.00000  Uiso   1.00
H354   H     0.96715   0.45563   0.36333   0.00000  Uiso   1.00
H355   H     0.82322   0.24489   0.36388   0.00000  Uiso   1.00
H356   H     0.00648   0.27376   0.17590   0.00000  Uiso   1.00
H357   H     0.02338   0.58871   0.45006   0.00000  Uiso   1.00
H358   H     0.71990   0.14435   0.45121   0.00000  Uiso   1.00
H359   H     0.10633   0.20522   0.05479   0.00000  Uiso   1.00
O360   O     0.12217   0.62315   0.56707   0.00000  Uiso   1.00
O361   O     0.72401   0.04015   0.56856   0.00000  Uiso   1.00
O362   O     0.23101   0.12002   0.04848   0.00000  Uiso   1.00
N363   N     0.13531   0.49132   0.55841   0.00000  Uiso   1.00
N364   N     0.85157   0.07588   0.55949   0.00000  Uiso   1.00
N365   N     0.21284   0.13277   0.18888   0.00000  Uiso   1.00
N366   N     0.05366   0.54690   0.47661   0.00000  Uiso   1.00
N367   N     0.76992   0.13146   0.47769   0.00000  Uiso   1.00
N368   N     0.13119   0.18835   0.10708   0.00000  Uiso   1.00
