data_job_02225
_audit_creation_date              2018-12-19
_audit_creation_method            'Materials Studio'
_symmetry_space_group_name_H-M    'P1'
_symmetry_Int_Tables_number       1
_symmetry_cell_setting            triclinic
loop_
_symmetry_equiv_pos_as_xyz
  x,y,z
_cell_length_a                    41.5692
_cell_length_b                    7.0036
_cell_length_c                    30.2232
_cell_angle_alpha                 90.0000
_cell_angle_beta                  90.0000
_cell_angle_gamma                 90.0000
loop_
_atom_site_label
_atom_site_type_symbol
_atom_site_fract_x
_atom_site_fract_y
_atom_site_fract_z
_atom_site_U_iso_or_equiv
_atom_site_adp_type
_atom_site_occupancy
C1     C     0.09164   0.17063   0.56612   0.00000  Uiso   1.00
C2     C     0.07039   0.26112   0.60150   0.00000  Uiso   1.00
C3     C     0.05695   0.16689   0.63742   0.00000  Uiso   1.00
C4     C     0.03822   0.27498   0.66604   0.00000  Uiso   1.00
C5     C     0.00598   0.38575   0.72204   0.00000  Uiso   1.00
C6     C     0.07528   0.21192   0.52198   0.00000  Uiso   1.00
C7     C     0.06596   0.07632   0.49105   0.00000  Uiso   1.00
C8     C     0.05136   0.14301   0.45273   0.00000  Uiso   1.00
C9     C     0.02674   0.17740   0.38527   0.00000  Uiso   1.00
C10    C     0.12283   0.28525   0.56594   0.00000  Uiso   1.00
C11    C     0.15349   0.21131   0.57195   0.00000  Uiso   1.00
C12    C     0.17892   0.33973   0.57063   0.00000  Uiso   1.00
C13    C     0.22812   0.48799   0.57141   0.00000  Uiso   1.00
C14    C     0.08227   0.53017   0.55308   0.00000  Uiso   1.00
C15    C     0.06530   0.45640   0.59441   0.00000  Uiso   1.00
C16    C     0.04658   0.56468   0.62299   0.00000  Uiso   1.00
C17    C     0.03312   0.47062   0.65895   0.00000  Uiso   1.00
C18    C     0.07019   0.40719   0.51490   0.00000  Uiso   1.00
C19    C     0.05560   0.47410   0.47662   0.00000  Uiso   1.00
C20    C     0.04626   0.33864   0.44563   0.00000  Uiso   1.00
C21    C     0.11774   0.48054   0.55886   0.00000  Uiso   1.00
C22    C     0.14312   0.60910   0.55752   0.00000  Uiso   1.00
C23    C     0.17382   0.53537   0.56353   0.00000  Uiso   1.00
H24    H     0.09560   0.01859   0.57163   0.00000  Uiso   1.00
H25    H     0.06089   0.01575   0.64288   0.00000  Uiso   1.00
H26    H     0.06991   0.92520   0.49653   0.00000  Uiso   1.00
H27    H     0.15742   0.06018   0.57743   0.00000  Uiso   1.00
H28    H     0.02016   0.09871   0.71875   0.00000  Uiso   1.00
H29    H     0.03918   0.90778   0.41016   0.00000  Uiso   1.00
H30    H     0.22372   0.19240   0.58073   0.00000  Uiso   1.00
H31    H     0.07831   0.68222   0.54756   0.00000  Uiso   1.00
H32    H     0.04265   0.71580   0.61750   0.00000  Uiso   1.00
H33    H     0.05166   0.62524   0.47115   0.00000  Uiso   1.00
H34    H     0.13918   0.76021   0.55204   0.00000  Uiso   1.00
H35    H     0.00535   0.66689   0.69815   0.00000  Uiso   1.00
H36    H     0.02437   0.47596   0.38955   0.00000  Uiso   1.00
H37    H     0.20891   0.76058   0.56013   0.00000  Uiso   1.00
O38    O     0.98960   0.39290   0.75488   0.00000  Uiso   1.00
O39    O     0.01456   0.14241   0.35001   0.00000  Uiso   1.00
O40    O     0.25667   0.51582   0.57381   0.00000  Uiso   1.00
N41    N     0.02157   0.22783   0.70431   0.00000  Uiso   1.00
N42    N     0.03935   0.04932   0.41579   0.00000  Uiso   1.00
N43    N     0.21188   0.31541   0.57526   0.00000  Uiso   1.00
N44    N     0.01360   0.53356   0.69322   0.00000  Uiso   1.00
N45    N     0.03138   0.35506   0.40471   0.00000  Uiso   1.00
N46    N     0.20391   0.62114   0.56417   0.00000  Uiso   1.00
C47    C     0.40836   0.32937   0.56612   0.00000  Uiso   1.00
C48    C     0.42961   0.23888   0.60150   0.00000  Uiso   1.00
C49    C     0.44305   0.33311   0.63742   0.00000  Uiso   1.00
C50    C     0.46178   0.22502   0.66604   0.00000  Uiso   1.00
C51    C     0.49402   0.11425   0.72204   0.00000  Uiso   1.00
C52    C     0.42472   0.28808   0.52198   0.00000  Uiso   1.00
C53    C     0.43404   0.42368   0.49105   0.00000  Uiso   1.00
C54    C     0.44864   0.35699   0.45273   0.00000  Uiso   1.00
C55    C     0.47326   0.32260   0.38527   0.00000  Uiso   1.00
C56    C     0.37717   0.21475   0.56594   0.00000  Uiso   1.00
C57    C     0.34651   0.28869   0.57195   0.00000  Uiso   1.00
C58    C     0.32108   0.16027   0.57063   0.00000  Uiso   1.00
C59    C     0.27188   0.01201   0.57141   0.00000  Uiso   1.00
C60    C     0.41773   0.96983   0.55308   0.00000  Uiso   1.00
C61    C     0.43470   0.04360   0.59441   0.00000  Uiso   1.00
C62    C     0.45342   0.93532   0.62299   0.00000  Uiso   1.00
C63    C     0.46688   0.02938   0.65895   0.00000  Uiso   1.00
C64    C     0.42981   0.09281   0.51490   0.00000  Uiso   1.00
C65    C     0.44440   0.02590   0.47662   0.00000  Uiso   1.00
C66    C     0.45374   0.16136   0.44563   0.00000  Uiso   1.00
C67    C     0.38226   0.01946   0.55886   0.00000  Uiso   1.00
C68    C     0.35688   0.89090   0.55752   0.00000  Uiso   1.00
C69    C     0.32618   0.96463   0.56353   0.00000  Uiso   1.00
H70    H     0.40440   0.48141   0.57163   0.00000  Uiso   1.00
H71    H     0.43911   0.48425   0.64288   0.00000  Uiso   1.00
H72    H     0.43009   0.57480   0.49653   0.00000  Uiso   1.00
H73    H     0.34258   0.43982   0.57743   0.00000  Uiso   1.00
H74    H     0.47984   0.40129   0.71875   0.00000  Uiso   1.00
H75    H     0.46082   0.59222   0.41016   0.00000  Uiso   1.00
H76    H     0.27628   0.30760   0.58073   0.00000  Uiso   1.00
H77    H     0.42169   0.81778   0.54756   0.00000  Uiso   1.00
H78    H     0.45735   0.78420   0.61750   0.00000  Uiso   1.00
H79    H     0.44834   0.87476   0.47115   0.00000  Uiso   1.00
H80    H     0.36082   0.73979   0.55204   0.00000  Uiso   1.00
H81    H     0.49465   0.83311   0.69815   0.00000  Uiso   1.00
H82    H     0.47563   0.02404   0.38955   0.00000  Uiso   1.00
H83    H     0.29109   0.73942   0.56013   0.00000  Uiso   1.00
O84    O     0.51040   0.10710   0.75488   0.00000  Uiso   1.00
O85    O     0.48544   0.35759   0.35001   0.00000  Uiso   1.00
O86    O     0.24333   0.98418   0.57381   0.00000  Uiso   1.00
N87    N     0.47843   0.27217   0.70431   0.00000  Uiso   1.00
N88    N     0.46065   0.45068   0.41579   0.00000  Uiso   1.00
N89    N     0.28812   0.18459   0.57526   0.00000  Uiso   1.00
N90    N     0.48640   0.96644   0.69322   0.00000  Uiso   1.00
N91    N     0.46862   0.14494   0.40471   0.00000  Uiso   1.00
N92    N     0.29609   0.87886   0.56417   0.00000  Uiso   1.00
C93    C     0.90836   0.67063   0.93388   0.00000  Uiso   1.00
C94    C     0.92961   0.76112   0.89850   0.00000  Uiso   1.00
C95    C     0.94305   0.66689   0.86258   0.00000  Uiso   1.00
C96    C     0.96178   0.77498   0.83396   0.00000  Uiso   1.00
C97    C     0.99402   0.88575   0.77796   0.00000  Uiso   1.00
C98    C     0.92472   0.71192   0.97802   0.00000  Uiso   1.00
C99    C     0.93404   0.57632   0.00895   0.00000  Uiso   1.00
C100   C     0.94864   0.64301   0.04727   0.00000  Uiso   1.00
C101   C     0.97326   0.67740   0.11473   0.00000  Uiso   1.00
C102   C     0.87717   0.78525   0.93406   0.00000  Uiso   1.00
C103   C     0.84651   0.71131   0.92805   0.00000  Uiso   1.00
C104   C     0.82108   0.83973   0.92937   0.00000  Uiso   1.00
C105   C     0.77188   0.98799   0.92859   0.00000  Uiso   1.00
C106   C     0.91773   0.03017   0.94692   0.00000  Uiso   1.00
C107   C     0.93470   0.95640   0.90559   0.00000  Uiso   1.00
C108   C     0.95342   0.06468   0.87701   0.00000  Uiso   1.00
C109   C     0.96688   0.97062   0.84105   0.00000  Uiso   1.00
C110   C     0.92981   0.90719   0.98510   0.00000  Uiso   1.00
C111   C     0.94440   0.97410   0.02338   0.00000  Uiso   1.00
C112   C     0.95374   0.83864   0.05437   0.00000  Uiso   1.00
C113   C     0.88226   0.98054   0.94114   0.00000  Uiso   1.00
C114   C     0.85688   0.10910   0.94248   0.00000  Uiso   1.00
C115   C     0.82618   0.03537   0.93647   0.00000  Uiso   1.00
H116   H     0.90440   0.51859   0.92837   0.00000  Uiso   1.00
H117   H     0.93911   0.51575   0.85712   0.00000  Uiso   1.00
H118   H     0.93009   0.42520   0.00347   0.00000  Uiso   1.00
H119   H     0.84258   0.56018   0.92257   0.00000  Uiso   1.00
H120   H     0.97984   0.59871   0.78125   0.00000  Uiso   1.00
H121   H     0.96082   0.40778   0.08984   0.00000  Uiso   1.00
H122   H     0.77628   0.69240   0.91927   0.00000  Uiso   1.00
H123   H     0.92169   0.18222   0.95244   0.00000  Uiso   1.00
H124   H     0.95735   0.21580   0.88250   0.00000  Uiso   1.00
H125   H     0.94834   0.12524   0.02885   0.00000  Uiso   1.00
H126   H     0.86082   0.26021   0.94796   0.00000  Uiso   1.00
H127   H     0.99465   0.16689   0.80185   0.00000  Uiso   1.00
H128   H     0.97563   0.97596   0.11045   0.00000  Uiso   1.00
H129   H     0.79109   0.26058   0.93987   0.00000  Uiso   1.00
O130   O     0.01040   0.89290   0.74512   0.00000  Uiso   1.00
O131   O     0.98544   0.64241   0.14999   0.00000  Uiso   1.00
O132   O     0.74333   0.01582   0.92619   0.00000  Uiso   1.00
N133   N     0.97843   0.72783   0.79569   0.00000  Uiso   1.00
N134   N     0.96065   0.54932   0.08421   0.00000  Uiso   1.00
N135   N     0.78812   0.81541   0.92474   0.00000  Uiso   1.00
N136   N     0.98640   0.03356   0.80678   0.00000  Uiso   1.00
N137   N     0.96862   0.85506   0.09529   0.00000  Uiso   1.00
N138   N     0.79609   0.12114   0.93583   0.00000  Uiso   1.00
C139   C     0.59164   0.82937   0.93388   0.00000  Uiso   1.00
C140   C     0.57039   0.73888   0.89850   0.00000  Uiso   1.00
C141   C     0.55695   0.83311   0.86258   0.00000  Uiso   1.00
C142   C     0.53822   0.72502   0.83396   0.00000  Uiso   1.00
C143   C     0.50598   0.61425   0.77796   0.00000  Uiso   1.00
C144   C     0.57528   0.78808   0.97802   0.00000  Uiso   1.00
C145   C     0.56596   0.92368   0.00895   0.00000  Uiso   1.00
C146   C     0.55136   0.85699   0.04727   0.00000  Uiso   1.00
C147   C     0.52674   0.82260   0.11473   0.00000  Uiso   1.00
C148   C     0.62283   0.71475   0.93406   0.00000  Uiso   1.00
C149   C     0.65349   0.78869   0.92805   0.00000  Uiso   1.00
C150   C     0.67892   0.66027   0.92937   0.00000  Uiso   1.00
C151   C     0.72812   0.51201   0.92859   0.00000  Uiso   1.00
C152   C     0.58227   0.46983   0.94692   0.00000  Uiso   1.00
C153   C     0.56530   0.54360   0.90559   0.00000  Uiso   1.00
C154   C     0.54658   0.43532   0.87701   0.00000  Uiso   1.00
C155   C     0.53312   0.52938   0.84105   0.00000  Uiso   1.00
C156   C     0.57019   0.59281   0.98510   0.00000  Uiso   1.00
C157   C     0.55560   0.52590   0.02338   0.00000  Uiso   1.00
C158   C     0.54626   0.66136   0.05437   0.00000  Uiso   1.00
C159   C     0.61774   0.51946   0.94114   0.00000  Uiso   1.00
C160   C     0.64312   0.39090   0.94248   0.00000  Uiso   1.00
C161   C     0.67382   0.46463   0.93647   0.00000  Uiso   1.00
H162   H     0.59560   0.98141   0.92837   0.00000  Uiso   1.00
H163   H     0.56089   0.98425   0.85712   0.00000  Uiso   1.00
H164   H     0.56991   0.07480   0.00347   0.00000  Uiso   1.00
H165   H     0.65742   0.93982   0.92257   0.00000  Uiso   1.00
H166   H     0.52016   0.90129   0.78125   0.00000  Uiso   1.00
H167   H     0.53918   0.09222   0.08984   0.00000  Uiso   1.00
H168   H     0.72372   0.80760   0.91927   0.00000  Uiso   1.00
H169   H     0.57831   0.31778   0.95244   0.00000  Uiso   1.00
H170   H     0.54265   0.28420   0.88250   0.00000  Uiso   1.00
H171   H     0.55166   0.37476   0.02885   0.00000  Uiso   1.00
H172   H     0.63918   0.23979   0.94796   0.00000  Uiso   1.00
H173   H     0.50535   0.33311   0.80185   0.00000  Uiso   1.00
H174   H     0.52437   0.52404   0.11045   0.00000  Uiso   1.00
H175   H     0.70891   0.23942   0.93987   0.00000  Uiso   1.00
O176   O     0.48960   0.60710   0.74512   0.00000  Uiso   1.00
O177   O     0.51456   0.85759   0.14999   0.00000  Uiso   1.00
O178   O     0.75667   0.48418   0.92619   0.00000  Uiso   1.00
N179   N     0.52157   0.77217   0.79569   0.00000  Uiso   1.00
N180   N     0.53935   0.95068   0.08421   0.00000  Uiso   1.00
N181   N     0.71188   0.68459   0.92474   0.00000  Uiso   1.00
N182   N     0.51360   0.46644   0.80678   0.00000  Uiso   1.00
N183   N     0.53138   0.64494   0.09529   0.00000  Uiso   1.00
N184   N     0.70391   0.37886   0.93583   0.00000  Uiso   1.00
C185   C     0.90836   0.82937   0.43388   0.00000  Uiso   1.00
C186   C     0.92961   0.73888   0.39850   0.00000  Uiso   1.00
C187   C     0.94305   0.83311   0.36258   0.00000  Uiso   1.00
C188   C     0.96178   0.72502   0.33396   0.00000  Uiso   1.00
C189   C     0.99402   0.61425   0.27796   0.00000  Uiso   1.00
C190   C     0.92472   0.78808   0.47802   0.00000  Uiso   1.00
C191   C     0.93404   0.92368   0.50895   0.00000  Uiso   1.00
C192   C     0.94864   0.85699   0.54727   0.00000  Uiso   1.00
C193   C     0.97326   0.82260   0.61473   0.00000  Uiso   1.00
C194   C     0.87717   0.71475   0.43406   0.00000  Uiso   1.00
C195   C     0.84651   0.78869   0.42805   0.00000  Uiso   1.00
C196   C     0.82108   0.66027   0.42937   0.00000  Uiso   1.00
C197   C     0.77188   0.51201   0.42859   0.00000  Uiso   1.00
C198   C     0.91773   0.46983   0.44692   0.00000  Uiso   1.00
C199   C     0.93470   0.54360   0.40559   0.00000  Uiso   1.00
C200   C     0.95342   0.43532   0.37701   0.00000  Uiso   1.00
C201   C     0.96688   0.52938   0.34105   0.00000  Uiso   1.00
C202   C     0.92981   0.59281   0.48510   0.00000  Uiso   1.00
C203   C     0.94440   0.52590   0.52338   0.00000  Uiso   1.00
C204   C     0.95374   0.66136   0.55437   0.00000  Uiso   1.00
C205   C     0.88226   0.51946   0.44114   0.00000  Uiso   1.00
C206   C     0.85688   0.39090   0.44248   0.00000  Uiso   1.00
C207   C     0.82618   0.46463   0.43647   0.00000  Uiso   1.00
H208   H     0.90440   0.98141   0.42837   0.00000  Uiso   1.00
H209   H     0.93911   0.98425   0.35712   0.00000  Uiso   1.00
H210   H     0.93009   0.07480   0.50347   0.00000  Uiso   1.00
H211   H     0.84258   0.93982   0.42257   0.00000  Uiso   1.00
H212   H     0.97984   0.90129   0.28125   0.00000  Uiso   1.00
H213   H     0.96082   0.09222   0.58984   0.00000  Uiso   1.00
H214   H     0.77628   0.80760   0.41927   0.00000  Uiso   1.00
H215   H     0.92169   0.31778   0.45244   0.00000  Uiso   1.00
H216   H     0.95735   0.28420   0.38250   0.00000  Uiso   1.00
H217   H     0.94834   0.37476   0.52885   0.00000  Uiso   1.00
H218   H     0.86082   0.23979   0.44796   0.00000  Uiso   1.00
H219   H     0.99465   0.33311   0.30185   0.00000  Uiso   1.00
H220   H     0.97563   0.52404   0.61045   0.00000  Uiso   1.00
H221   H     0.79109   0.23942   0.43987   0.00000  Uiso   1.00
O222   O     0.01040   0.60710   0.24512   0.00000  Uiso   1.00
O223   O     0.98544   0.85759   0.64999   0.00000  Uiso   1.00
O224   O     0.74333   0.48418   0.42619   0.00000  Uiso   1.00
N225   N     0.97843   0.77217   0.29569   0.00000  Uiso   1.00
N226   N     0.96065   0.95068   0.58421   0.00000  Uiso   1.00
N227   N     0.78812   0.68459   0.42474   0.00000  Uiso   1.00
N228   N     0.98640   0.46644   0.30678   0.00000  Uiso   1.00
N229   N     0.96862   0.64494   0.59529   0.00000  Uiso   1.00
N230   N     0.79609   0.37886   0.43583   0.00000  Uiso   1.00
C231   C     0.59164   0.67063   0.43388   0.00000  Uiso   1.00
C232   C     0.57039   0.76112   0.39850   0.00000  Uiso   1.00
C233   C     0.55695   0.66689   0.36258   0.00000  Uiso   1.00
C234   C     0.53822   0.77498   0.33396   0.00000  Uiso   1.00
C235   C     0.50598   0.88575   0.27796   0.00000  Uiso   1.00
C236   C     0.57528   0.71192   0.47802   0.00000  Uiso   1.00
C237   C     0.56596   0.57632   0.50895   0.00000  Uiso   1.00
C238   C     0.55136   0.64301   0.54727   0.00000  Uiso   1.00
C239   C     0.52674   0.67740   0.61473   0.00000  Uiso   1.00
C240   C     0.62283   0.78525   0.43406   0.00000  Uiso   1.00
C241   C     0.65349   0.71131   0.42805   0.00000  Uiso   1.00
C242   C     0.67892   0.83973   0.42937   0.00000  Uiso   1.00
C243   C     0.72812   0.98799   0.42859   0.00000  Uiso   1.00
C244   C     0.58227   0.03017   0.44692   0.00000  Uiso   1.00
C245   C     0.56530   0.95640   0.40559   0.00000  Uiso   1.00
C246   C     0.54658   0.06468   0.37701   0.00000  Uiso   1.00
C247   C     0.53312   0.97062   0.34105   0.00000  Uiso   1.00
C248   C     0.57019   0.90719   0.48510   0.00000  Uiso   1.00
C249   C     0.55560   0.97410   0.52338   0.00000  Uiso   1.00
C250   C     0.54626   0.83864   0.55437   0.00000  Uiso   1.00
C251   C     0.61774   0.98054   0.44114   0.00000  Uiso   1.00
C252   C     0.64312   0.10910   0.44248   0.00000  Uiso   1.00
C253   C     0.67382   0.03537   0.43647   0.00000  Uiso   1.00
H254   H     0.59560   0.51859   0.42837   0.00000  Uiso   1.00
H255   H     0.56089   0.51575   0.35712   0.00000  Uiso   1.00
H256   H     0.56991   0.42520   0.50347   0.00000  Uiso   1.00
H257   H     0.65742   0.56018   0.42257   0.00000  Uiso   1.00
H258   H     0.52016   0.59871   0.28125   0.00000  Uiso   1.00
H259   H     0.53918   0.40778   0.58984   0.00000  Uiso   1.00
H260   H     0.72372   0.69240   0.41927   0.00000  Uiso   1.00
H261   H     0.57831   0.18222   0.45244   0.00000  Uiso   1.00
H262   H     0.54265   0.21580   0.38250   0.00000  Uiso   1.00
H263   H     0.55166   0.12524   0.52885   0.00000  Uiso   1.00
H264   H     0.63918   0.26021   0.44796   0.00000  Uiso   1.00
H265   H     0.50535   0.16689   0.30185   0.00000  Uiso   1.00
H266   H     0.52437   0.97596   0.61045   0.00000  Uiso   1.00
H267   H     0.70891   0.26058   0.43987   0.00000  Uiso   1.00
O268   O     0.48960   0.89290   0.24512   0.00000  Uiso   1.00
O269   O     0.51456   0.64241   0.64999   0.00000  Uiso   1.00
O270   O     0.75667   0.01582   0.42619   0.00000  Uiso   1.00
N271   N     0.52157   0.72783   0.29569   0.00000  Uiso   1.00
N272   N     0.53935   0.54932   0.58421   0.00000  Uiso   1.00
N273   N     0.71188   0.81541   0.42474   0.00000  Uiso   1.00
N274   N     0.51360   0.03356   0.30678   0.00000  Uiso   1.00
N275   N     0.53138   0.85506   0.59529   0.00000  Uiso   1.00
N276   N     0.70391   0.12114   0.43583   0.00000  Uiso   1.00
C277   C     0.09164   0.32937   0.06612   0.00000  Uiso   1.00
C278   C     0.07039   0.23888   0.10150   0.00000  Uiso   1.00
C279   C     0.05695   0.33311   0.13742   0.00000  Uiso   1.00
C280   C     0.03822   0.22502   0.16604   0.00000  Uiso   1.00
C281   C     0.00598   0.11425   0.22204   0.00000  Uiso   1.00
C282   C     0.07528   0.28808   0.02198   0.00000  Uiso   1.00
C283   C     0.06596   0.42368   0.99105   0.00000  Uiso   1.00
C284   C     0.05136   0.35699   0.95273   0.00000  Uiso   1.00
C285   C     0.02674   0.32260   0.88527   0.00000  Uiso   1.00
C286   C     0.12283   0.21475   0.06594   0.00000  Uiso   1.00
C287   C     0.15349   0.28869   0.07195   0.00000  Uiso   1.00
C288   C     0.17892   0.16027   0.07063   0.00000  Uiso   1.00
C289   C     0.22812   0.01201   0.07141   0.00000  Uiso   1.00
C290   C     0.08227   0.96983   0.05308   0.00000  Uiso   1.00
C291   C     0.06530   0.04360   0.09441   0.00000  Uiso   1.00
C292   C     0.04658   0.93532   0.12299   0.00000  Uiso   1.00
C293   C     0.03312   0.02938   0.15895   0.00000  Uiso   1.00
C294   C     0.07019   0.09281   0.01490   0.00000  Uiso   1.00
C295   C     0.05560   0.02590   0.97662   0.00000  Uiso   1.00
C296   C     0.04626   0.16136   0.94563   0.00000  Uiso   1.00
C297   C     0.11774   0.01946   0.05886   0.00000  Uiso   1.00
C298   C     0.14312   0.89090   0.05752   0.00000  Uiso   1.00
C299   C     0.17382   0.96463   0.06353   0.00000  Uiso   1.00
H300   H     0.09560   0.48141   0.07163   0.00000  Uiso   1.00
H301   H     0.06089   0.48425   0.14288   0.00000  Uiso   1.00
H302   H     0.06991   0.57480   0.99653   0.00000  Uiso   1.00
H303   H     0.15742   0.43982   0.07743   0.00000  Uiso   1.00
H304   H     0.02016   0.40129   0.21875   0.00000  Uiso   1.00
H305   H     0.03918   0.59222   0.91016   0.00000  Uiso   1.00
H306   H     0.22372   0.30760   0.08073   0.00000  Uiso   1.00
H307   H     0.07831   0.81778   0.04756   0.00000  Uiso   1.00
H308   H     0.04265   0.78420   0.11750   0.00000  Uiso   1.00
H309   H     0.05166   0.87476   0.97115   0.00000  Uiso   1.00
H310   H     0.13918   0.73979   0.05204   0.00000  Uiso   1.00
H311   H     0.00535   0.83311   0.19815   0.00000  Uiso   1.00
H312   H     0.02437   0.02404   0.88955   0.00000  Uiso   1.00
H313   H     0.20891   0.73942   0.06013   0.00000  Uiso   1.00
O314   O     0.98960   0.10710   0.25488   0.00000  Uiso   1.00
O315   O     0.01456   0.35759   0.85001   0.00000  Uiso   1.00
O316   O     0.25667   0.98418   0.07381   0.00000  Uiso   1.00
N317   N     0.02157   0.27217   0.20431   0.00000  Uiso   1.00
N318   N     0.03935   0.45068   0.91579   0.00000  Uiso   1.00
N319   N     0.21188   0.18459   0.07526   0.00000  Uiso   1.00
N320   N     0.01360   0.96644   0.19322   0.00000  Uiso   1.00
N321   N     0.03138   0.14494   0.90471   0.00000  Uiso   1.00
N322   N     0.20391   0.87886   0.06417   0.00000  Uiso   1.00
C323   C     0.40836   0.17063   0.06612   0.00000  Uiso   1.00
C324   C     0.42961   0.26112   0.10150   0.00000  Uiso   1.00
C325   C     0.44305   0.16689   0.13742   0.00000  Uiso   1.00
C326   C     0.46178   0.27498   0.16604   0.00000  Uiso   1.00
C327   C     0.49402   0.38575   0.22204   0.00000  Uiso   1.00
C328   C     0.42472   0.21192   0.02198   0.00000  Uiso   1.00
C329   C     0.43404   0.07632   0.99105   0.00000  Uiso   1.00
C330   C     0.44864   0.14301   0.95273   0.00000  Uiso   1.00
C331   C     0.47326   0.17740   0.88527   0.00000  Uiso   1.00
C332   C     0.37717   0.28525   0.06594   0.00000  Uiso   1.00
C333   C     0.34651   0.21131   0.07195   0.00000  Uiso   1.00
C334   C     0.32108   0.33973   0.07063   0.00000  Uiso   1.00
C335   C     0.27188   0.48799   0.07141   0.00000  Uiso   1.00
C336   C     0.41773   0.53017   0.05308   0.00000  Uiso   1.00
C337   C     0.43470   0.45640   0.09441   0.00000  Uiso   1.00
C338   C     0.45342   0.56468   0.12299   0.00000  Uiso   1.00
C339   C     0.46688   0.47062   0.15895   0.00000  Uiso   1.00
C340   C     0.42981   0.40719   0.01490   0.00000  Uiso   1.00
C341   C     0.44440   0.47410   0.97662   0.00000  Uiso   1.00
C342   C     0.45374   0.33864   0.94563   0.00000  Uiso   1.00
C343   C     0.38226   0.48054   0.05886   0.00000  Uiso   1.00
C344   C     0.35688   0.60910   0.05752   0.00000  Uiso   1.00
C345   C     0.32618   0.53537   0.06353   0.00000  Uiso   1.00
H346   H     0.40440   0.01859   0.07163   0.00000  Uiso   1.00
H347   H     0.43911   0.01575   0.14288   0.00000  Uiso   1.00
H348   H     0.43009   0.92520   0.99653   0.00000  Uiso   1.00
H349   H     0.34258   0.06018   0.07743   0.00000  Uiso   1.00
H350   H     0.47984   0.09871   0.21875   0.00000  Uiso   1.00
H351   H     0.46082   0.90778   0.91016   0.00000  Uiso   1.00
H352   H     0.27628   0.19240   0.08073   0.00000  Uiso   1.00
H353   H     0.42169   0.68222   0.04756   0.00000  Uiso   1.00
H354   H     0.45735   0.71580   0.11750   0.00000  Uiso   1.00
H355   H     0.44834   0.62524   0.97115   0.00000  Uiso   1.00
H356   H     0.36082   0.76021   0.05204   0.00000  Uiso   1.00
H357   H     0.49465   0.66689   0.19815   0.00000  Uiso   1.00
H358   H     0.47563   0.47596   0.88955   0.00000  Uiso   1.00
H359   H     0.29109   0.76058   0.06013   0.00000  Uiso   1.00
O360   O     0.51040   0.39290   0.25488   0.00000  Uiso   1.00
O361   O     0.48544   0.14241   0.85001   0.00000  Uiso   1.00
O362   O     0.24333   0.51582   0.07381   0.00000  Uiso   1.00
N363   N     0.47843   0.22783   0.20431   0.00000  Uiso   1.00
N364   N     0.46065   0.04932   0.91579   0.00000  Uiso   1.00
N365   N     0.28812   0.31541   0.07526   0.00000  Uiso   1.00
N366   N     0.48640   0.53356   0.19322   0.00000  Uiso   1.00
N367   N     0.46862   0.35506   0.90471   0.00000  Uiso   1.00
N368   N     0.29609   0.62114   0.06417   0.00000  Uiso   1.00
