data_job_00142
_audit_creation_date              2018-12-19
_audit_creation_method            'Materials Studio'
_symmetry_space_group_name_H-M    'P1'
_symmetry_Int_Tables_number       1
_symmetry_cell_setting            triclinic
loop_
_symmetry_equiv_pos_as_xyz
  x,y,z
_cell_length_a                    9.4686
_cell_length_b                    9.8160
_cell_length_c                    12.3992
_cell_angle_alpha                 83.4196
_cell_angle_beta                  86.8096
_cell_angle_gamma                 82.4603
loop_
_atom_site_label
_atom_site_type_symbol
_atom_site_fract_x
_atom_site_fract_y
_atom_site_fract_z
_atom_site_U_iso_or_equiv
_atom_site_adp_type
_atom_site_occupancy
C1     C     0.62251   0.33802   0.76477   0.00000  Uiso   1.00
C2     C     0.61372   0.27249   0.66001   0.00000  Uiso   1.00
C3     C     0.49375   0.28308   0.59871   0.00000  Uiso   1.00
C4     C     0.50744   0.21558   0.50550   0.00000  Uiso   1.00
C5     C     0.47414   0.12524   0.34754   0.00000  Uiso   1.00
C6     C     0.67258   0.21979   0.85029   0.00000  Uiso   1.00
C7     C     0.60211   0.18610   0.94897   0.00000  Uiso   1.00
C8     C     0.66537   0.07424   0.01595   0.00000  Uiso   1.00
C9     C     0.72349   0.90215   0.15343   0.00000  Uiso   1.00
C10    C     0.74409   0.42670   0.74529   0.00000  Uiso   1.00
C11    C     0.73377   0.56697   0.75572   0.00000  Uiso   1.00
C12    C     0.85725   0.62931   0.73432   0.00000  Uiso   1.00
C13    C     0.02641   0.77847   0.70877   0.00000  Uiso   1.00
C14    C     0.86017   0.19931   0.70826   0.00000  Uiso   1.00
C15    C     0.74280   0.19715   0.62932   0.00000  Uiso   1.00
C16    C     0.75669   0.12962   0.53618   0.00000  Uiso   1.00
C17    C     0.63676   0.14011   0.47475   0.00000  Uiso   1.00
C18    C     0.80166   0.14445   0.81959   0.00000  Uiso   1.00
C19    C     0.86504   0.03263   0.88645   0.00000  Uiso   1.00
C20    C     0.79468   0.99876   0.98520   0.00000  Uiso   1.00
C21    C     0.87318   0.35136   0.71459   0.00000  Uiso   1.00
C22    C     0.99670   0.41350   0.69318   0.00000  Uiso   1.00
C23    C     0.98656   0.55383   0.70357   0.00000  Uiso   1.00
H24    H     0.52201   0.39667   0.78867   0.00000  Uiso   1.00
H25    H     0.39387   0.34139   0.62249   0.00000  Uiso   1.00
H26    H     0.50222   0.24443   0.97270   0.00000  Uiso   1.00
H27    H     0.63386   0.62524   0.77947   0.00000  Uiso   1.00
H28    H     0.30871   0.24683   0.42474   0.00000  Uiso   1.00
H29    H     0.53720   0.04241   0.16319   0.00000  Uiso   1.00
H30    H     0.81478   0.84542   0.75573   0.00000  Uiso   1.00
H31    H     0.96067   0.14065   0.68436   0.00000  Uiso   1.00
H32    H     0.85659   0.07132   0.51245   0.00000  Uiso   1.00
H33    H     0.96494   0.97436   0.86267   0.00000  Uiso   1.00
H34    H     0.09658   0.35517   0.66943   0.00000  Uiso   1.00
H35    H     0.68427   0.02763   0.33543   0.00000  Uiso   1.00
H36    H     0.91276   0.82321   0.07389   0.00000  Uiso   1.00
H37    H     0.19034   0.62622   0.66642   0.00000  Uiso   1.00
O38    O     0.42010   0.09620   0.26890   0.00000  Uiso   1.00
O39    O     0.71988   0.82803   0.23773   0.00000  Uiso   1.00
O40    O     0.08405   0.88156   0.70314   0.00000  Uiso   1.00
N41    N     0.41139   0.20478   0.42730   0.00000  Uiso   1.00
N42    N     0.62500   0.01364   0.11771   0.00000  Uiso   1.00
N43    N     0.88452   0.76439   0.73679   0.00000  Uiso   1.00
N44    N     0.61348   0.08683   0.37924   0.00000  Uiso   1.00
N45    N     0.82709   0.89569   0.06965   0.00000  Uiso   1.00
N46    N     0.08661   0.64644   0.68873   0.00000  Uiso   1.00
C47    C     0.37749   0.66198   0.23523   0.00000  Uiso   1.00
C48    C     0.38628   0.72751   0.33999   0.00000  Uiso   1.00
C49    C     0.50625   0.71692   0.40129   0.00000  Uiso   1.00
C50    C     0.49256   0.78442   0.49450   0.00000  Uiso   1.00
C51    C     0.52586   0.87476   0.65246   0.00000  Uiso   1.00
C52    C     0.32742   0.78021   0.14971   0.00000  Uiso   1.00
C53    C     0.39789   0.81390   0.05103   0.00000  Uiso   1.00
C54    C     0.33463   0.92576   0.98405   0.00000  Uiso   1.00
C55    C     0.27651   0.09785   0.84657   0.00000  Uiso   1.00
C56    C     0.25591   0.57330   0.25471   0.00000  Uiso   1.00
C57    C     0.26623   0.43303   0.24428   0.00000  Uiso   1.00
C58    C     0.14275   0.37069   0.26568   0.00000  Uiso   1.00
C59    C     0.97359   0.22153   0.29123   0.00000  Uiso   1.00
C60    C     0.13983   0.80069   0.29174   0.00000  Uiso   1.00
C61    C     0.25720   0.80285   0.37068   0.00000  Uiso   1.00
C62    C     0.24331   0.87038   0.46382   0.00000  Uiso   1.00
C63    C     0.36324   0.85989   0.52525   0.00000  Uiso   1.00
C64    C     0.19834   0.85555   0.18041   0.00000  Uiso   1.00
C65    C     0.13496   0.96737   0.11355   0.00000  Uiso   1.00
C66    C     0.20532   0.00124   0.01480   0.00000  Uiso   1.00
C67    C     0.12682   0.64864   0.28541   0.00000  Uiso   1.00
C68    C     0.00330   0.58650   0.30682   0.00000  Uiso   1.00
C69    C     0.01344   0.44617   0.29643   0.00000  Uiso   1.00
H70    H     0.47799   0.60333   0.21133   0.00000  Uiso   1.00
H71    H     0.60613   0.65861   0.37751   0.00000  Uiso   1.00
H72    H     0.49778   0.75557   0.02730   0.00000  Uiso   1.00
H73    H     0.36614   0.37476   0.22053   0.00000  Uiso   1.00
H74    H     0.69129   0.75317   0.57526   0.00000  Uiso   1.00
H75    H     0.46280   0.95759   0.83681   0.00000  Uiso   1.00
H76    H     0.18522   0.15458   0.24427   0.00000  Uiso   1.00
H77    H     0.03933   0.85935   0.31564   0.00000  Uiso   1.00
H78    H     0.14341   0.92868   0.48755   0.00000  Uiso   1.00
H79    H     0.03506   0.02564   0.13733   0.00000  Uiso   1.00
H80    H     0.90342   0.64483   0.33057   0.00000  Uiso   1.00
H81    H     0.31573   0.97237   0.66457   0.00000  Uiso   1.00
H82    H     0.08724   0.17679   0.92611   0.00000  Uiso   1.00
H83    H     0.80966   0.37378   0.33358   0.00000  Uiso   1.00
O84    O     0.57990   0.90380   0.73110   0.00000  Uiso   1.00
O85    O     0.28012   0.17197   0.76227   0.00000  Uiso   1.00
O86    O     0.91595   0.11844   0.29686   0.00000  Uiso   1.00
N87    N     0.58861   0.79522   0.57270   0.00000  Uiso   1.00
N88    N     0.37500   0.98636   0.88229   0.00000  Uiso   1.00
N89    N     0.11548   0.23561   0.26321   0.00000  Uiso   1.00
N90    N     0.38652   0.91317   0.62076   0.00000  Uiso   1.00
N91    N     0.17291   0.10431   0.93035   0.00000  Uiso   1.00
N92    N     0.91339   0.35356   0.31127   0.00000  Uiso   1.00
