data_job_06669
_audit_creation_date              2018-12-19
_audit_creation_method            'Materials Studio'
_symmetry_space_group_name_H-M    'P1'
_symmetry_Int_Tables_number       1
_symmetry_cell_setting            triclinic
loop_
_symmetry_equiv_pos_as_xyz
  x,y,z
_cell_length_a                    20.4377
_cell_length_b                    20.7834
_cell_length_c                    21.5722
_cell_angle_alpha                 82.7802
_cell_angle_beta                  111.4998
_cell_angle_gamma                 114.0701
loop_
_atom_site_label
_atom_site_type_symbol
_atom_site_fract_x
_atom_site_fract_y
_atom_site_fract_z
_atom_site_U_iso_or_equiv
_atom_site_adp_type
_atom_site_occupancy
C1     C     0.70954   0.98783   0.11878   0.00000  Uiso   1.00
C2     C     0.73849   0.03676   0.17853   0.00000  Uiso   1.00
C3     C     0.78263   0.02828   0.24296   0.00000  Uiso   1.00
C4     C     0.80327   0.07876   0.29061   0.00000  Uiso   1.00
C5     C     0.85165   0.14606   0.38588   0.00000  Uiso   1.00
C6     C     0.62289   0.96453   0.09129   0.00000  Uiso   1.00
C7     C     0.56983   0.89532   0.08235   0.00000  Uiso   1.00
C8     C     0.49317   0.88501   0.05654   0.00000  Uiso   1.00
C9     C     0.36207   0.84018   0.01631   0.00000  Uiso   1.00
C10    C     0.73857   0.03398   0.06599   0.00000  Uiso   1.00
C11    C     0.78278   0.02315   0.03578   0.00000  Uiso   1.00
C12    C     0.80350   0.07130   0.98866   0.00000  Uiso   1.00
C13    C     0.85202   0.13429   0.90916   0.00000  Uiso   1.00
C14    C     0.66771   0.09258   0.08882   0.00000  Uiso   1.00
C15    C     0.71576   0.09366   0.16226   0.00000  Uiso   1.00
C16    C     0.73635   0.14417   0.20982   0.00000  Uiso   1.00
C17    C     0.78052   0.13577   0.27431   0.00000  Uiso   1.00
C18    C     0.60017   0.02143   0.07501   0.00000  Uiso   1.00
C19    C     0.52356   0.01122   0.04921   0.00000  Uiso   1.00
C20    C     0.47041   0.94201   0.04024   0.00000  Uiso   1.00
C21    C     0.71586   0.09088   0.04972   0.00000  Uiso   1.00
C22    C     0.73650   0.13905   0.00264   0.00000  Uiso   1.00
C23    C     0.78073   0.12830   0.97236   0.00000  Uiso   1.00
H24    H     0.72722   0.94353   0.13145   0.00000  Uiso   1.00
H25    H     0.80019   0.98423   0.25554   0.00000  Uiso   1.00
H26    H     0.58743   0.85131   0.09494   0.00000  Uiso   1.00
H27    H     0.80035   0.97911   0.04838   0.00000  Uiso   1.00
H28    H     0.87105   0.05444   0.38595   0.00000  Uiso   1.00
H29    H     0.42244   0.77415   0.04730   0.00000  Uiso   1.00
H30    H     0.87140   0.04365   0.94912   0.00000  Uiso   1.00
H31    H     0.65002   0.13688   0.07615   0.00000  Uiso   1.00
H32    H     0.71876   0.18820   0.19722   0.00000  Uiso   1.00
H33    H     0.50600   0.05526   0.03662   0.00000  Uiso   1.00
H34    H     0.71891   0.18307   0.99006   0.00000  Uiso   1.00
H35    H     0.80496   0.21998   0.33861   0.00000  Uiso   1.00
H36    H     0.35634   0.93969   0.99996   0.00000  Uiso   1.00
H37    H     0.80531   0.20919   0.90178   0.00000  Uiso   1.00
O38    O     0.88459   0.16746   0.44292   0.00000  Uiso   1.00
O39    O     0.29603   0.79973   0.99862   0.00000  Uiso   1.00
O40    O     0.88507   0.15332   0.86981   0.00000  Uiso   1.00
N41    N     0.84608   0.08636   0.35819   0.00000  Uiso   1.00
N42    N     0.42665   0.82431   0.04159   0.00000  Uiso   1.00
N43    N     0.84638   0.07626   0.94978   0.00000  Uiso   1.00
N44    N     0.81051   0.17544   0.33272   0.00000  Uiso   1.00
N45    N     0.39108   0.91338   0.01611   0.00000  Uiso   1.00
N46    N     0.81081   0.16534   0.92431   0.00000  Uiso   1.00
C47    C     0.34651   0.51645   0.15126   0.00000  Uiso   1.00
C48    C     0.42896   0.52244   0.18184   0.00000  Uiso   1.00
C49    C     0.48101   0.55463   0.24284   0.00000  Uiso   1.00
C50    C     0.55367   0.55459   0.26196   0.00000  Uiso   1.00
C51    C     0.67870   0.56865   0.31558   0.00000  Uiso   1.00
C52    C     0.33855   0.54965   0.08311   0.00000  Uiso   1.00
C53    C     0.31457   0.60473   0.06111   0.00000  Uiso   1.00
C54    C     0.31112   0.62759   0.99711   0.00000  Uiso   1.00
C55    C     0.29573   0.68387   0.89743   0.00000  Uiso   1.00
C56    C     0.29702   0.43799   0.13775   0.00000  Uiso   1.00
C57    C     0.23809   0.39917   0.16168   0.00000  Uiso   1.00
C58    C     0.19966   0.32802   0.14368   0.00000  Uiso   1.00
C59    C     0.11978   0.21092   0.12885   0.00000  Uiso   1.00
C60    C     0.38301   0.45912   0.07672   0.00000  Uiso   1.00
C61    C     0.44879   0.49130   0.14135   0.00000  Uiso   1.00
C62    C     0.52139   0.49120   0.16038   0.00000  Uiso   1.00
C63    C     0.57353   0.52339   0.22141   0.00000  Uiso   1.00
C64    C     0.35838   0.51852   0.04262   0.00000  Uiso   1.00
C65    C     0.35496   0.54130   0.97864   0.00000  Uiso   1.00
C66    C     0.33098   0.59639   0.95655   0.00000  Uiso   1.00
C67    C     0.31685   0.40685   0.09726   0.00000  Uiso   1.00
C68    C     0.27849   0.33574   0.07921   0.00000  Uiso   1.00
C69    C     0.21952   0.29682   0.10312   0.00000  Uiso   1.00
H70    H     0.33107   0.54070   0.18278   0.00000  Uiso   1.00
H71    H     0.46564   0.57873   0.27416   0.00000  Uiso   1.00
H72    H     0.29922   0.62881   0.09245   0.00000  Uiso   1.00
H73    H     0.22277   0.42328   0.19301   0.00000  Uiso   1.00
H74    H     0.62359   0.60718   0.35761   0.00000  Uiso   1.00
H75    H     0.27267   0.71276   0.97445   0.00000  Uiso   1.00
H76    H     0.11144   0.27938   0.18650   0.00000  Uiso   1.00
H77    H     0.39844   0.43488   0.04520   0.00000  Uiso   1.00
H78    H     0.53672   0.46710   0.12903   0.00000  Uiso   1.00
H79    H     0.37030   0.51719   0.94732   0.00000  Uiso   1.00
H80    H     0.29385   0.31167   0.04788   0.00000  Uiso   1.00
H81    H     0.68128   0.51659   0.23982   0.00000  Uiso   1.00
H82    H     0.33036   0.62217   0.85666   0.00000  Uiso   1.00
H83    H     0.16913   0.18878   0.06871   0.00000  Uiso   1.00
O84    O     0.74219   0.58501   0.35634   0.00000  Uiso   1.00
O85    O     0.28178   0.72352   0.85364   0.00000  Uiso   1.00
O86    O     0.07026   0.15493   0.13186   0.00000  Uiso   1.00
N87    N     0.61819   0.58142   0.31839   0.00000  Uiso   1.00
N88    N     0.29011   0.68015   0.96016   0.00000  Uiso   1.00
N89    N     0.13936   0.27497   0.15840   0.00000  Uiso   1.00
N90    N     0.64923   0.53268   0.25501   0.00000  Uiso   1.00
N91    N     0.32115   0.63140   0.89678   0.00000  Uiso   1.00
N92    N     0.17040   0.22622   0.09502   0.00000  Uiso   1.00
C93    C     0.09542   0.83347   0.19074   0.00000  Uiso   1.00
C94    C     0.02449   0.76537   0.18081   0.00000  Uiso   1.00
C95    C     0.98743   0.73724   0.22646   0.00000  Uiso   1.00
C96    C     0.92350   0.67444   0.20799   0.00000  Uiso   1.00
C97    C     0.81732   0.57377   0.20201   0.00000  Uiso   1.00
C98    C     0.15503   0.81344   0.18097   0.00000  Uiso   1.00
C99    C     0.22772   0.82574   0.22675   0.00000  Uiso   1.00
C100   C     0.27367   0.80342   0.20841   0.00000  Uiso   1.00
C101   C     0.37018   0.77742   0.20267   0.00000  Uiso   1.00
C102   C     0.07409   0.87943   0.13232   0.00000  Uiso   1.00
C103   C     0.07876   0.94723   0.13718   0.00000  Uiso   1.00
C104   C     0.05659   0.98048   0.07788   0.00000  Uiso   1.00
C105   C     0.02743   0.05695   0.99658   0.00000  Uiso   1.00
C106   C     0.04777   0.77195   0.07676   0.00000  Uiso   1.00
C107   C     0.99862   0.73196   0.11890   0.00000  Uiso   1.00
C108   C     0.93472   0.66918   0.10036   0.00000  Uiso   1.00
C109   C     0.89757   0.64097   0.14597   0.00000  Uiso   1.00
C110   C     0.12915   0.78003   0.11907   0.00000  Uiso   1.00
C111   C     0.17501   0.75768   0.10065   0.00000  Uiso   1.00
C112   C     0.24775   0.76995   0.14639   0.00000  Uiso   1.00
C113   C     0.04821   0.84602   0.07041   0.00000  Uiso   1.00
C114   C     0.02604   0.87917   0.01108   0.00000  Uiso   1.00
C115   C     0.03066   0.94701   0.01586   0.00000  Uiso   1.00
H116   H     0.11557   0.85948   0.23893   0.00000  Uiso   1.00
H117   H     0.00748   0.76311   0.27437   0.00000  Uiso   1.00
H118   H     0.24773   0.85160   0.27465   0.00000  Uiso   1.00
H119   H     0.09879   0.97307   0.18510   0.00000  Uiso   1.00
H120   H     0.87625   0.64152   0.28636   0.00000  Uiso   1.00
H121   H     0.38284   0.82814   0.28696   0.00000  Uiso   1.00
H122   H     0.06876   0.08428   0.09811   0.00000  Uiso   1.00
H123   H     0.02763   0.74594   0.02856   0.00000  Uiso   1.00
H124   H     0.91470   0.64334   0.05245   0.00000  Uiso   1.00
H125   H     0.15496   0.73183   0.05274   0.00000  Uiso   1.00
H126   H     0.00601   0.85330   0.96318   0.00000  Uiso   1.00
H127   H     0.80095   0.54431   0.10624   0.00000  Uiso   1.00
H128   H     0.30755   0.73093   0.10684   0.00000  Uiso   1.00
H129   H     0.99346   0.98707   0.91800   0.00000  Uiso   1.00
O130   O     0.76592   0.52746   0.21582   0.00000  Uiso   1.00
O131   O     0.43056   0.77231   0.21661   0.00000  Uiso   1.00
O132   O     0.01849   0.10835   0.96884   0.00000  Uiso   1.00
N133   N     0.87401   0.63273   0.24068   0.00000  Uiso   1.00
N134   N     0.34765   0.80720   0.24125   0.00000  Uiso   1.00
N135   N     0.05403   0.04667   0.06470   0.00000  Uiso   1.00
N136   N     0.83349   0.58042   0.14377   0.00000  Uiso   1.00
N137   N     0.30713   0.75489   0.14433   0.00000  Uiso   1.00
N138   N     0.01351   0.99436   0.96778   0.00000  Uiso   1.00
C139   C     0.00767   0.37635   0.71979   0.00000  Uiso   1.00
C140   C     0.03289   0.31473   0.73892   0.00000  Uiso   1.00
C141   C     0.03342   0.27633   0.79646   0.00000  Uiso   1.00
C142   C     0.05851   0.22194   0.80479   0.00000  Uiso   1.00
C143   C     0.09403   0.12858   0.84172   0.00000  Uiso   1.00
C144   C     0.94483   0.35665   0.65145   0.00000  Uiso   1.00
C145   C     0.87132   0.35351   0.63544   0.00000  Uiso   1.00
C146   C     0.82228   0.33441   0.57014   0.00000  Uiso   1.00
C147   C     0.72110   0.30619   0.47125   0.00000  Uiso   1.00
C148   C     0.07519   0.43825   0.70901   0.00000  Uiso   1.00
C149   C     0.11128   0.50372   0.74139   0.00000  Uiso   1.00
C150   C     0.17200   0.55333   0.72453   0.00000  Uiso   1.00
C151   C     0.27322   0.65179   0.71502   0.00000  Uiso   1.00
C152   C     0.05131   0.34803   0.63227   0.00000  Uiso   1.00
C153   C     0.05659   0.29935   0.69138   0.00000  Uiso   1.00
C154   C     0.08169   0.24500   0.69963   0.00000  Uiso   1.00
C155   C     0.08226   0.20653   0.75717   0.00000  Uiso   1.00
C156   C     0.96853   0.34127   0.60391   0.00000  Uiso   1.00
C157   C     0.91959   0.32218   0.53861   0.00000  Uiso   1.00
C158   C     0.84603   0.31900   0.52251   0.00000  Uiso   1.00
C159   C     0.09890   0.42287   0.66147   0.00000  Uiso   1.00
C160   C     0.15956   0.47239   0.64456   0.00000  Uiso   1.00
C161   C     0.19574   0.53792   0.67691   0.00000  Uiso   1.00
H162   H     0.98922   0.38832   0.75679   0.00000  Uiso   1.00
H163   H     0.01506   0.28825   0.83323   0.00000  Uiso   1.00
H164   H     0.85300   0.36542   0.67224   0.00000  Uiso   1.00
H165   H     0.09293   0.51560   0.77817   0.00000  Uiso   1.00
H166   H     0.05415   0.17050   0.89701   0.00000  Uiso   1.00
H167   H     0.71242   0.33324   0.55754   0.00000  Uiso   1.00
H168   H     0.21836   0.64994   0.78091   0.00000  Uiso   1.00
H169   H     0.06976   0.33606   0.59525   0.00000  Uiso   1.00
H170   H     0.10003   0.23311   0.66283   0.00000  Uiso   1.00
H171   H     0.93796   0.31028   0.50184   0.00000  Uiso   1.00
H172   H     0.17789   0.46047   0.60777   0.00000  Uiso   1.00
H173   H     0.12310   0.12575   0.75870   0.00000  Uiso   1.00
H174   H     0.78138   0.28849   0.41923   0.00000  Uiso   1.00
H175   H     0.28732   0.60518   0.64261   0.00000  Uiso   1.00
O176   O     0.10706   0.08133   0.87521   0.00000  Uiso   1.00
O177   O     0.65874   0.29486   0.42984   0.00000  Uiso   1.00
O178   O     0.32252   0.71035   0.72291   0.00000  Uiso   1.00
N179   N     0.06624   0.17410   0.85519   0.00000  Uiso   1.00
N180   N     0.74674   0.32625   0.53781   0.00000  Uiso   1.00
N181   N     0.21974   0.62234   0.74663   0.00000  Uiso   1.00
N182   N     0.10334   0.15002   0.78077   0.00000  Uiso   1.00
N183   N     0.78385   0.30217   0.46339   0.00000  Uiso   1.00
N184   N     0.25684   0.59826   0.67221   0.00000  Uiso   1.00
C185   C     0.48295   0.58527   0.57447   0.00000  Uiso   1.00
C186   C     0.53798   0.65517   0.61197   0.00000  Uiso   1.00
C187   C     0.53454   0.67995   0.66704   0.00000  Uiso   1.00
C188   C     0.59019   0.74516   0.69420   0.00000  Uiso   1.00
C189   C     0.66698   0.84776   0.75655   0.00000  Uiso   1.00
C190   C     0.53223   0.54615   0.57539   0.00000  Uiso   1.00
C191   C     0.52395   0.47925   0.59969   0.00000  Uiso   1.00
C192   C     0.57476   0.45269   0.59605   0.00000  Uiso   1.00
C193   C     0.64259   0.38599   0.60155   0.00000  Uiso   1.00
C194   C     0.45057   0.60367   0.50202   0.00000  Uiso   1.00
C195   C     0.37363   0.58512   0.46462   0.00000  Uiso   1.00
C196   C     0.35569   0.60697   0.39919   0.00000  Uiso   1.00
C197   C     0.29674   0.62959   0.29078   0.00000  Uiso   1.00
C198   C     0.58790   0.65703   0.52479   0.00000  Uiso   1.00
C199   C     0.59498   0.69414   0.58498   0.00000  Uiso   1.00
C200   C     0.65065   0.75934   0.61207   0.00000  Uiso   1.00
C201   C     0.64730   0.78421   0.66717   0.00000  Uiso   1.00
C202   C     0.58923   0.58512   0.54840   0.00000  Uiso   1.00
C203   C     0.64006   0.55864   0.54472   0.00000  Uiso   1.00
C204   C     0.63187   0.49173   0.56901   0.00000  Uiso   1.00
C205   C     0.50758   0.64264   0.47503   0.00000  Uiso   1.00
C206   C     0.48975   0.66451   0.40965   0.00000  Uiso   1.00
C207   C     0.41280   0.64601   0.37216   0.00000  Uiso   1.00
H208   H     0.43857   0.55493   0.59548   0.00000  Uiso   1.00
H209   H     0.49042   0.64977   0.68791   0.00000  Uiso   1.00
H210   H     0.47983   0.44911   0.62056   0.00000  Uiso   1.00
H211   H     0.32954   0.55496   0.48552   0.00000  Uiso   1.00
H212   H     0.57306   0.77210   0.77850   0.00000  Uiso   1.00
H213   H     0.55070   0.34898   0.63647   0.00000  Uiso   1.00
H214   H     0.23378   0.57219   0.35170   0.00000  Uiso   1.00
H215   H     0.63228   0.68737   0.50377   0.00000  Uiso   1.00
H216   H     0.69476   0.78948   0.59117   0.00000  Uiso   1.00
H217   H     0.68417   0.58881   0.52382   0.00000  Uiso   1.00
H218   H     0.53388   0.69467   0.38878   0.00000  Uiso   1.00
H219   H     0.73891   0.88549   0.69999   0.00000  Uiso   1.00
H220   H     0.71655   0.46236   0.55795   0.00000  Uiso   1.00
H221   H     0.39964   0.68559   0.27318   0.00000  Uiso   1.00
O222   O     0.69360   0.89357   0.79841   0.00000  Uiso   1.00
O223   O     0.66426   0.33844   0.61206   0.00000  Uiso   1.00
O224   O     0.24848   0.63130   0.23844   0.00000  Uiso   1.00
N225   N     0.60351   0.78478   0.74802   0.00000  Uiso   1.00
N226   N     0.58261   0.38919   0.61524   0.00000  Uiso   1.00
N227   N     0.28632   0.59786   0.34899   0.00000  Uiso   1.00
N228   N     0.69275   0.84580   0.70577   0.00000  Uiso   1.00
N229   N     0.67186   0.45020   0.57299   0.00000  Uiso   1.00
N230   N     0.37556   0.65888   0.30674   0.00000  Uiso   1.00
C231   C     0.17608   0.83712   0.59278   0.00000  Uiso   1.00
C232   C     0.09809   0.84052   0.57456   0.00000  Uiso   1.00
C233   C     0.05273   0.81866   0.61398   0.00000  Uiso   1.00
C234   C     0.98330   0.82617   0.58839   0.00000  Uiso   1.00
C235   C     0.86575   0.82717   0.56967   0.00000  Uiso   1.00
C236   C     0.23127   0.91214   0.58792   0.00000  Uiso   1.00
C237   C     0.29790   0.95049   0.63856   0.00000  Uiso   1.00
C238   C     0.34058   0.01829   0.62422   0.00000  Uiso   1.00
C239   C     0.42983   0.13046   0.62622   0.00000  Uiso   1.00
C240   C     0.16964   0.79447   0.53667   0.00000  Uiso   1.00
C241   C     0.18445   0.73390   0.54423   0.00000  Uiso   1.00
C242   C     0.17526   0.70264   0.48673   0.00000  Uiso   1.00
C243   C     0.16881   0.63212   0.40917   0.00000  Uiso   1.00
C244   C     0.13343   0.88931   0.47724   0.00000  Uiso   1.00
C245   C     0.07493   0.86887   0.51181   0.00000  Uiso   1.00
C246   C     0.00555   0.87641   0.48615   0.00000  Uiso   1.00
C247   C     0.96009   0.85457   0.52552   0.00000  Uiso   1.00
C248   C     0.20811   0.94049   0.52517   0.00000  Uiso   1.00
C249   C     0.25071   0.00824   0.51074   0.00000  Uiso   1.00
C250   C     0.31737   0.04669   0.56135   0.00000  Uiso   1.00
C251   C     0.14647   0.82282   0.47392   0.00000  Uiso   1.00
C252   C     0.13726   0.79165   0.41640   0.00000  Uiso   1.00
C253   C     0.15205   0.73105   0.42387   0.00000  Uiso   1.00
H254   H     0.19412   0.81505   0.64163   0.00000  Uiso   1.00
H255   H     0.07069   0.79673   0.66254   0.00000  Uiso   1.00
H256   H     0.31581   0.92854   0.68712   0.00000  Uiso   1.00
H257   H     0.20238   0.71198   0.59280   0.00000  Uiso   1.00
H258   H     0.92364   0.78895   0.65806   0.00000  Uiso   1.00
H259   H     0.44051   0.06686   0.70988   0.00000  Uiso   1.00
H260   H     0.20132   0.61021   0.51098   0.00000  Uiso   1.00
H261   H     0.11539   0.91139   0.42838   0.00000  Uiso   1.00
H262   H     0.98763   0.89835   0.43759   0.00000  Uiso   1.00
H263   H     0.23276   0.03016   0.46217   0.00000  Uiso   1.00
H264   H     0.11933   0.81360   0.36785   0.00000  Uiso   1.00
H265   H     0.85623   0.87143   0.47548   0.00000  Uiso   1.00
H266   H     0.37311   0.14934   0.52730   0.00000  Uiso   1.00
H267   H     0.13392   0.69269   0.32841   0.00000  Uiso   1.00
O268   O     0.80732   0.81990   0.57668   0.00000  Uiso   1.00
O269   O     0.48545   0.18450   0.64466   0.00000  Uiso   1.00
O270   O     0.17164   0.58539   0.38372   0.00000  Uiso   1.00
N271   N     0.92530   0.81014   0.61382   0.00000  Uiso   1.00
N272   N     0.40854   0.06997   0.66227   0.00000  Uiso   1.00
N273   N     0.18494   0.64305   0.47632   0.00000  Uiso   1.00
N274   N     0.88903   0.85452   0.51557   0.00000  Uiso   1.00
N275   N     0.37227   0.11435   0.56403   0.00000  Uiso   1.00
N276   N     0.14867   0.68744   0.37808   0.00000  Uiso   1.00
C277   C     0.32945   0.13240   0.15595   0.00000  Uiso   1.00
C278   C     0.30071   0.07433   0.10424   0.00000  Uiso   1.00
C279   C     0.26888   0.07924   0.03580   0.00000  Uiso   1.00
C280   C     0.24613   0.02028   0.99695   0.00000  Uiso   1.00
C281   C     0.20020   0.93950   0.91231   0.00000  Uiso   1.00
C282   C     0.41262   0.14439   0.19559   0.00000  Uiso   1.00
C283   C     0.47489   0.20821   0.20394   0.00000  Uiso   1.00
C284   C     0.54635   0.20823   0.24200   0.00000  Uiso   1.00
C285   C     0.67416   0.23624   0.29920   0.00000  Uiso   1.00
C286   C     0.28613   0.10074   0.20414   0.00000  Uiso   1.00
C287   C     0.24205   0.12787   0.21972   0.00000  Uiso   1.00
C288   C     0.20703   0.09115   0.26499   0.00000  Uiso   1.00
C289   C     0.13845   0.05138   0.33549   0.00000  Uiso   1.00
C290   C     0.34566   0.01897   0.20867   0.00000  Uiso   1.00
C291   C     0.30952   0.01272   0.13288   0.00000  Uiso   1.00
C292   C     0.28681   0.95374   0.09413   0.00000  Uiso   1.00
C293   C     0.25495   0.95856   0.02564   0.00000  Uiso   1.00
C294   C     0.42143   0.08278   0.22422   0.00000  Uiso   1.00
C295   C     0.49282   0.08271   0.26227   0.00000  Uiso   1.00
C296   C     0.55517   0.14651   0.27068   0.00000  Uiso   1.00
C297   C     0.29493   0.03913   0.23278   0.00000  Uiso   1.00
C298   C     0.25998   0.00237   0.27804   0.00000  Uiso   1.00
C299   C     0.21586   0.02943   0.29368   0.00000  Uiso   1.00
H300   H     0.32260   0.18036   0.13366   0.00000  Uiso   1.00
H301   H     0.26208   0.12693   0.01366   0.00000  Uiso   1.00
H302   H     0.46805   0.25588   0.18178   0.00000  Uiso   1.00
H303   H     0.23525   0.17555   0.19755   0.00000  Uiso   1.00
H304   H     0.19889   0.04052   0.89324   0.00000  Uiso   1.00
H305   H     0.63319   0.31243   0.24776   0.00000  Uiso   1.00
H306   H     0.14229   0.14303   0.28101   0.00000  Uiso   1.00
H307   H     0.35252   0.97100   0.23097   0.00000  Uiso   1.00
H308   H     0.29363   0.90607   0.11630   0.00000  Uiso   1.00
H309   H     0.49961   0.03503   0.28443   0.00000  Uiso   1.00
H310   H     0.26681   0.95469   0.30019   0.00000  Uiso   1.00
H311   H     0.22450   0.86127   0.97655   0.00000  Uiso   1.00
H312   H     0.65881   0.13318   0.33108   0.00000  Uiso   1.00
H313   H     0.16790   0.96378   0.36432   0.00000  Uiso   1.00
O314   O     0.17244   0.91197   0.85771   0.00000  Uiso   1.00
O315   O     0.74223   0.26871   0.32284   0.00000  Uiso   1.00
O316   O     0.09818   0.04646   0.36645   0.00000  Uiso   1.00
N317   N     0.21298   0.00724   0.92859   0.00000  Uiso   1.00
N318   N     0.61903   0.26146   0.26003   0.00000  Uiso   1.00
N319   N     0.16010   0.10310   0.29113   0.00000  Uiso   1.00
N320   N     0.22676   0.91078   0.97342   0.00000  Uiso   1.00
N321   N     0.63282   0.16500   0.30486   0.00000  Uiso   1.00
N322   N     0.17388   0.00664   0.33596   0.00000  Uiso   1.00
C323   C     0.71224   0.77001   0.03255   0.00000  Uiso   1.00
C324   C     0.64836   0.79115   0.98489   0.00000  Uiso   1.00
C325   C     0.65594   0.84252   0.93725   0.00000  Uiso   1.00
C326   C     0.59066   0.85401   0.89854   0.00000  Uiso   1.00
C327   C     0.50214   0.89267   0.82320   0.00000  Uiso   1.00
C328   C     0.68480   0.69092   0.02115   0.00000  Uiso   1.00
C329   C     0.72304   0.65801   0.00401   0.00000  Uiso   1.00
C330   C     0.68844   0.58513   0.99584   0.00000  Uiso   1.00
C331   C     0.65654   0.46818   0.97685   0.00000  Uiso   1.00
C332   C     0.71488   0.77934   0.10253   0.00000  Uiso   1.00
C333   C     0.77841   0.82076   0.15383   0.00000  Uiso   1.00
C334   C     0.76914   0.82231   0.21417   0.00000  Uiso   1.00
C335   C     0.78394   0.84264   0.32153   0.00000  Uiso   1.00
C336   C     0.58282   0.69907   0.04851   0.00000  Uiso   1.00
C337   C     0.57806   0.75261   0.99356   0.00000  Uiso   1.00
C338   C     0.51275   0.76403   0.95491   0.00000  Uiso   1.00
C339   C     0.52024   0.81541   0.90723   0.00000  Uiso   1.00
C340   C     0.61451   0.65238   0.02982   0.00000  Uiso   1.00
C341   C     0.57985   0.57953   0.02168   0.00000  Uiso   1.00
C342   C     0.61802   0.54653   0.00453   0.00000  Uiso   1.00
C343   C     0.64458   0.74081   0.11120   0.00000  Uiso   1.00
C344   C     0.63522   0.74228   0.17148   0.00000  Uiso   1.00
C345   C     0.69872   0.78370   0.22286   0.00000  Uiso   1.00
H346   H     0.76697   0.80000   0.02580   0.00000  Uiso   1.00
H347   H     0.71035   0.87232   0.93055   0.00000  Uiso   1.00
H348   H     0.77744   0.68785   0.99731   0.00000  Uiso   1.00
H349   H     0.83280   0.85057   0.14710   0.00000  Uiso   1.00
H350   H     0.61656   0.93549   0.82877   0.00000  Uiso   1.00
H351   H     0.75805   0.54651   0.96956   0.00000  Uiso   1.00
H352   H     0.87478   0.88965   0.28541   0.00000  Uiso   1.00
H353   H     0.52809   0.66907   0.05526   0.00000  Uiso   1.00
H354   H     0.45836   0.73421   0.96163   0.00000  Uiso   1.00
H355   H     0.52545   0.54973   0.02839   0.00000  Uiso   1.00
H356   H     0.58081   0.71246   0.17818   0.00000  Uiso   1.00
H357   H     0.41204   0.82339   0.85399   0.00000  Uiso   1.00
H358   H     0.55352   0.43441   0.99478   0.00000  Uiso   1.00
H359   H     0.67026   0.77755   0.31063   0.00000  Uiso   1.00
O360   O     0.47273   0.92464   0.77924   0.00000  Uiso   1.00
O361   O     0.65836   0.41431   0.96397   0.00000  Uiso   1.00
O362   O     0.81151   0.86451   0.37835   0.00000  Uiso   1.00
N363   N     0.57800   0.90018   0.84756   0.00000  Uiso   1.00
N364   N     0.71027   0.53651   0.97918   0.00000  Uiso   1.00
N365   N     0.81942   0.85730   0.27448   0.00000  Uiso   1.00
N366   N     0.46795   0.83986   0.86113   0.00000  Uiso   1.00
N367   N     0.60022   0.47619   0.99275   0.00000  Uiso   1.00
N368   N     0.70936   0.79698   0.28805   0.00000  Uiso   1.00
C369   C     0.94061   0.28350   0.13355   0.00000  Uiso   1.00
C370   C     0.98903   0.33899   0.09741   0.00000  Uiso   1.00
C371   C     0.99416   0.32858   0.03733   0.00000  Uiso   1.00
C372   C     0.04157   0.38599   0.01247   0.00000  Uiso   1.00
C373   C     0.11052   0.46220   0.95115   0.00000  Uiso   1.00
C374   C     0.88869   0.31430   0.14309   0.00000  Uiso   1.00
C375   C     0.80945   0.28313   0.12142   0.00000  Uiso   1.00
C376   C     0.77241   0.31976   0.13502   0.00000  Uiso   1.00
C377   C     0.68557   0.35761   0.14466   0.00000  Uiso   1.00
C378   C     0.99558   0.27978   0.20310   0.00000  Uiso   1.00
C379   C     0.00621   0.21958   0.23190   0.00000  Uiso   1.00
C380   C     0.05914   0.22714   0.29603   0.00000  Uiso   1.00
C381   C     0.13827   0.21140   0.39886   0.00000  Uiso   1.00
C382   C     0.01571   0.40397   0.19622   0.00000  Uiso   1.00
C383   C     0.02981   0.40442   0.13145   0.00000  Uiso   1.00
C384   C     0.07724   0.46187   0.10667   0.00000  Uiso   1.00
C385   C     0.08244   0.45154   0.04657   0.00000  Uiso   1.00
C386   C     0.92947   0.37973   0.17713   0.00000  Uiso   1.00
C387   C     0.89254   0.41641   0.19076   0.00000  Uiso   1.00
C388   C     0.81327   0.38531   0.16912   0.00000  Uiso   1.00
C389   C     0.03637   0.34522   0.23714   0.00000  Uiso   1.00
C390   C     0.08929   0.35287   0.30124   0.00000  Uiso   1.00
C391   C     0.10000   0.29270   0.33014   0.00000  Uiso   1.00
H392   H     0.90885   0.23256   0.10705   0.00000  Uiso   1.00
H393   H     0.96258   0.27793   0.01100   0.00000  Uiso   1.00
H394   H     0.77790   0.23249   0.09509   0.00000  Uiso   1.00
H395   H     0.97463   0.16895   0.20555   0.00000  Uiso   1.00
H396   H     0.04010   0.35710   0.91951   0.00000  Uiso   1.00
H397   H     0.65071   0.26126   0.09683   0.00000  Uiso   1.00
H398   H     0.06555   0.12729   0.32976   0.00000  Uiso   1.00
H399   H     0.04746   0.45492   0.22273   0.00000  Uiso   1.00
H400   H     0.10880   0.51250   0.13302   0.00000  Uiso   1.00
H401   H     0.92412   0.46705   0.21711   0.00000  Uiso   1.00
H402   H     0.12085   0.40352   0.32757   0.00000  Uiso   1.00
H403   H     0.15878   0.54748   0.01855   0.00000  Uiso   1.00
H404   H     0.76939   0.45164   0.19587   0.00000  Uiso   1.00
H405   H     0.18422   0.31767   0.42880   0.00000  Uiso   1.00
O406   O     0.13727   0.48616   0.90793   0.00000  Uiso   1.00
O407   O     0.62640   0.36042   0.14057   0.00000  Uiso   1.00
O408   O     0.17066   0.18465   0.44617   0.00000  Uiso   1.00
N409   N     0.05963   0.39400   0.95514   0.00000  Uiso   1.00
N410   N     0.69557   0.30440   0.12091   0.00000  Uiso   1.00
N411   N     0.08339   0.17914   0.33869   0.00000  Uiso   1.00
N412   N     0.12349   0.49645   0.00843   0.00000  Uiso   1.00
N413   N     0.75943   0.40685   0.17420   0.00000  Uiso   1.00
N414   N     0.14725   0.28159   0.39198   0.00000  Uiso   1.00
C415   C     0.59757   0.96469   0.51499   0.00000  Uiso   1.00
C416   C     0.58088   0.02918   0.51786   0.00000  Uiso   1.00
C417   C     0.56026   0.07006   0.46422   0.00000  Uiso   1.00
C418   C     0.54747   0.12686   0.47715   0.00000  Uiso   1.00
C419   C     0.52045   0.22468   0.47183   0.00000  Uiso   1.00
C420   C     0.67784   0.97978   0.56517   0.00000  Uiso   1.00
C421   C     0.73873   0.97912   0.55131   0.00000  Uiso   1.00
C422   C     0.80755   0.99433   0.60407   0.00000  Uiso   1.00
C423   C     0.93103   0.01542   0.67221   0.00000  Uiso   1.00
C424   C     0.54354   0.90443   0.54304   0.00000  Uiso   1.00
C425   C     0.49153   0.84039   0.51059   0.00000  Uiso   1.00
C426   C     0.44729   0.79215   0.54472   0.00000  Uiso   1.00
C427   C     0.36227   0.69623   0.57850   0.00000  Uiso   1.00
C428   C     0.61151   0.99287   0.63333   0.00000  Uiso   1.00
C429   C     0.58846   0.04448   0.58214   0.00000  Uiso   1.00
C430   C     0.57569   0.10123   0.59515   0.00000  Uiso   1.00
C431   C     0.55505   0.14219   0.54154   0.00000  Uiso   1.00
C432   C     0.68541   0.99509   0.62945   0.00000  Uiso   1.00
C433   C     0.75415   0.01030   0.68224   0.00000  Uiso   1.00
C434   C     0.81513   0.00966   0.66846   0.00000  Uiso   1.00
C435   C     0.55111   0.91973   0.60732   0.00000  Uiso   1.00
C436   C     0.50695   0.87157   0.64151   0.00000  Uiso   1.00
C437   C     0.45488   0.80748   0.60911   0.00000  Uiso   1.00
H438   H     0.59168   0.95278   0.46495   0.00000  Uiso   1.00
H439   H     0.55442   0.05820   0.41449   0.00000  Uiso   1.00
H440   H     0.73285   0.96727   0.50157   0.00000  Uiso   1.00
H441   H     0.48569   0.82857   0.46084   0.00000  Uiso   1.00
H442   H     0.51648   0.18185   0.38689   0.00000  Uiso   1.00
H443   H     0.89270   0.99009   0.57050   0.00000  Uiso   1.00
H444   H     0.37151   0.69761   0.48463   0.00000  Uiso   1.00
H445   H     0.61741   0.00478   0.68338   0.00000  Uiso   1.00
H446   H     0.58155   0.11306   0.64490   0.00000  Uiso   1.00
H447   H     0.75999   0.02213   0.73198   0.00000  Uiso   1.00
H448   H     0.51283   0.88343   0.69125   0.00000  Uiso   1.00
H449   H     0.53850   0.22638   0.57390   0.00000  Uiso   1.00
H450   H     0.91473   0.03462   0.75751   0.00000  Uiso   1.00
H451   H     0.39354   0.74214   0.67164   0.00000  Uiso   1.00
O452   O     0.50347   0.27442   0.45114   0.00000  Uiso   1.00
O453   O     0.99706   0.02283   0.69204   0.00000  Uiso   1.00
O454   O     0.31327   0.63910   0.57938   0.00000  Uiso   1.00
N455   N     0.52656   0.17746   0.43618   0.00000  Uiso   1.00
N456   N     0.87832   0.99819   0.60784   0.00000  Uiso   1.00
N457   N     0.39107   0.72474   0.52757   0.00000  Uiso   1.00
N458   N     0.53842   0.20142   0.53681   0.00000  Uiso   1.00
N459   N     0.89017   0.02215   0.70847   0.00000  Uiso   1.00
N460   N     0.40292   0.74870   0.62820   0.00000  Uiso   1.00
C461   C     0.98036   0.64141   0.73482   0.00000  Uiso   1.00
C462   C     0.93217   0.57077   0.75636   0.00000  Uiso   1.00
C463   C     0.96020   0.52712   0.80267   0.00000  Uiso   1.00
C464   C     0.90678   0.46470   0.81550   0.00000  Uiso   1.00
C465   C     0.84392   0.35775   0.85383   0.00000  Uiso   1.00
C466   C     0.95608   0.63538   0.65928   0.00000  Uiso   1.00
C467   C     0.00422   0.64607   0.62397   0.00000  Uiso   1.00
C468   C     0.97093   0.63804   0.55509   0.00000  Uiso   1.00
C469   C     0.94519   0.63146   0.44270   0.00000  Uiso   1.00
C470   C     0.95364   0.69528   0.74801   0.00000  Uiso   1.00
C471   C     0.99974   0.75635   0.78729   0.00000  Uiso   1.00
C472   C     0.96440   0.79876   0.79309   0.00000  Uiso   1.00
C473   C     0.93489   0.88518   0.81847   0.00000  Uiso   1.00
C474   C     0.83563   0.60817   0.67526   0.00000  Uiso   1.00
C475   C     0.85356   0.55272   0.72400   0.00000  Uiso   1.00
C476   C     0.80008   0.49035   0.73677   0.00000  Uiso   1.00
C477   C     0.82803   0.44661   0.78309   0.00000  Uiso   1.00
C478   C     0.87747   0.61733   0.62693   0.00000  Uiso   1.00
C479   C     0.84410   0.60929   0.55808   0.00000  Uiso   1.00
C480   C     0.89218   0.61996   0.52267   0.00000  Uiso   1.00
C481   C     0.87503   0.67723   0.71566   0.00000  Uiso   1.00
C482   C     0.83962   0.71956   0.72140   0.00000  Uiso   1.00
C483   C     0.88565   0.78067   0.76068   0.00000  Uiso   1.00
H484   H     0.04156   0.65547   0.76001   0.00000  Uiso   1.00
H485   H     0.02104   0.54111   0.82769   0.00000  Uiso   1.00
H486   H     0.06505   0.66005   0.64902   0.00000  Uiso   1.00
H487   H     0.06057   0.77030   0.81232   0.00000  Uiso   1.00
H488   H     0.96363   0.40636   0.88844   0.00000  Uiso   1.00
H489   H     0.05643   0.65716   0.51171   0.00000  Uiso   1.00
H490   H     0.04699   0.88965   0.85605   0.00000  Uiso   1.00
H491   H     0.77443   0.59411   0.65007   0.00000  Uiso   1.00
H492   H     0.73925   0.47639   0.71173   0.00000  Uiso   1.00
H493   H     0.78327   0.59532   0.53306   0.00000  Uiso   1.00
H494   H     0.77878   0.70557   0.69635   0.00000  Uiso   1.00
H495   H     0.73492   0.35382   0.79432   0.00000  Uiso   1.00
H496   H     0.82773   0.60463   0.41759   0.00000  Uiso   1.00
H497   H     0.81828   0.83712   0.76193   0.00000  Uiso   1.00
O498   O     0.83096   0.30375   0.88391   0.00000  Uiso   1.00
O499   O     0.95272   0.63280   0.38965   0.00000  Uiso   1.00
O500   O     0.94032   0.93782   0.84142   0.00000  Uiso   1.00
N501   N     0.91463   0.41016   0.85784   0.00000  Uiso   1.00
N502   N     0.00140   0.64463   0.50562   0.00000  Uiso   1.00
N503   N     0.99257   0.86200   0.82753   0.00000  Uiso   1.00
N504   N     0.79157   0.38189   0.80720   0.00000  Uiso   1.00
N505   N     0.87833   0.61636   0.45498   0.00000  Uiso   1.00
N506   N     0.86950   0.83373   0.77689   0.00000  Uiso   1.00
C507   C     0.24396   0.33145   0.58945   0.00000  Uiso   1.00
C508   C     0.29827   0.34457   0.55178   0.00000  Uiso   1.00
C509   C     0.31215   0.39682   0.50584   0.00000  Uiso   1.00
C510   C     0.36382   0.40013   0.47679   0.00000  Uiso   1.00
C511   C     0.44259   0.42768   0.41579   0.00000  Uiso   1.00
C512   C     0.18779   0.25486   0.57392   0.00000  Uiso   1.00
C513   C     0.10878   0.23168   0.54660   0.00000  Uiso   1.00
C514   C     0.06745   0.15947   0.53620   0.00000  Uiso   1.00
C515   C     0.97468   0.04774   0.50961   0.00000  Uiso   1.00
C516   C     0.29178   0.33527   0.66327   0.00000  Uiso   1.00
C517   C     0.30019   0.37969   0.71110   0.00000  Uiso   1.00
C518   C     0.34640   0.37517   0.77593   0.00000  Uiso   1.00
C519   C     0.41509   0.38829   0.88807   0.00000  Uiso   1.00
C520   C     0.31104   0.24442   0.61955   0.00000  Uiso   1.00
C521   C     0.33470   0.29730   0.56813   0.00000  Uiso   1.00
C522   C     0.38637   0.30054   0.53914   0.00000  Uiso   1.00
C523   C     0.40033   0.35278   0.49317   0.00000  Uiso   1.00
C524   C     0.22422   0.20759   0.59026   0.00000  Uiso   1.00
C525   C     0.18300   0.13540   0.57990   0.00000  Uiso   1.00
C526   C     0.10395   0.11212   0.55257   0.00000  Uiso   1.00
C527   C     0.32822   0.28801   0.67962   0.00000  Uiso   1.00
C528   C     0.37441   0.28341   0.74439   0.00000  Uiso   1.00
C529   C     0.38290   0.32782   0.79230   0.00000  Uiso   1.00
H530   H     0.21559   0.36825   0.57672   0.00000  Uiso   1.00
H531   H     0.28394   0.43339   0.49320   0.00000  Uiso   1.00
H532   H     0.08060   0.26827   0.53396   0.00000  Uiso   1.00
H533   H     0.27199   0.41626   0.69843   0.00000  Uiso   1.00
H534   H     0.37577   0.48475   0.40779   0.00000  Uiso   1.00
H535   H     0.94701   0.13660   0.49376   0.00000  Uiso   1.00
H536   H     0.35059   0.44866   0.84057   0.00000  Uiso   1.00
H537   H     0.33941   0.20762   0.63227   0.00000  Uiso   1.00
H538   H     0.41456   0.26395   0.55180   0.00000  Uiso   1.00
H539   H     0.21121   0.09884   0.59256   0.00000  Uiso   1.00
H540   H     0.40260   0.24683   0.75702   0.00000  Uiso   1.00
H541   H     0.48178   0.34722   0.45535   0.00000  Uiso   1.00
H542   H     0.05302   0.99907   0.54132   0.00000  Uiso   1.00
H543   H     0.45660   0.31114   0.88813   0.00000  Uiso   1.00
O544   O     0.47596   0.45592   0.37762   0.00000  Uiso   1.00
O545   O     0.91345   0.99917   0.49042   0.00000  Uiso   1.00
O546   O     0.44293   0.40859   0.94542   0.00000  Uiso   1.00
N547   N     0.39042   0.44466   0.43004   0.00000  Uiso   1.00
N548   N     0.98955   0.11916   0.51041   0.00000  Uiso   1.00
N549   N     0.36685   0.41090   0.83464   0.00000  Uiso   1.00
N550   N     0.44746   0.37066   0.45563   0.00000  Uiso   1.00
N551   N     0.04660   0.04516   0.53600   0.00000  Uiso   1.00
N552   N     0.42389   0.33690   0.86024   0.00000  Uiso   1.00
