data_job_02544
_audit_creation_date              2018-12-19
_audit_creation_method            'Materials Studio'
_symmetry_space_group_name_H-M    'P1'
_symmetry_Int_Tables_number       1
_symmetry_cell_setting            triclinic
loop_
_symmetry_equiv_pos_as_xyz
  x,y,z
_cell_length_a                    18.2271
_cell_length_b                    16.9120
_cell_length_c                    29.7025
_cell_angle_alpha                 90.0000
_cell_angle_beta                  48.7125
_cell_angle_gamma                 90.0000
loop_
_atom_site_label
_atom_site_type_symbol
_atom_site_fract_x
_atom_site_fract_y
_atom_site_fract_z
_atom_site_U_iso_or_equiv
_atom_site_adp_type
_atom_site_occupancy
C1     C     0.02280   0.27570   0.86615   0.00000  Uiso   1.00
C2     C     0.06959   0.27271   0.89376   0.00000  Uiso   1.00
C3     C     0.07139   0.33410   0.92402   0.00000  Uiso   1.00
C4     C     0.11784   0.31961   0.94593   0.00000  Uiso   1.00
C5     C     0.18399   0.32612   0.99000   0.00000  Uiso   1.00
C6     C     0.10332   0.25428   0.80025   0.00000  Uiso   1.00
C7     C     0.13347   0.30018   0.75189   0.00000  Uiso   1.00
C8     C     0.20831   0.27017   0.69509   0.00000  Uiso   1.00
C9     C     0.32677   0.24805   0.59399   0.00000  Uiso   1.00
C10    C     0.94982   0.20765   0.89423   0.00000  Uiso   1.00
C11    C     0.85091   0.21434   0.92487   0.00000  Uiso   1.00
C12    C     0.79652   0.14506   0.94718   0.00000  Uiso   1.00
C13    C     0.67666   0.05054   0.99200   0.00000  Uiso   1.00
C14    C     0.10209   0.14077   0.85126   0.00000  Uiso   1.00
C15    C     0.11266   0.19942   0.88567   0.00000  Uiso   1.00
C16    C     0.15911   0.18482   0.90754   0.00000  Uiso   1.00
C17    C     0.16098   0.24619   0.93783   0.00000  Uiso   1.00
C18    C     0.14639   0.18100   0.79216   0.00000  Uiso   1.00
C19    C     0.22119   0.15090   0.73542   0.00000  Uiso   1.00
C20    C     0.25145   0.19675   0.68699   0.00000  Uiso   1.00
C21    C     0.99289   0.13436   0.88614   0.00000  Uiso   1.00
C22    C     0.93864   0.06506   0.90840   0.00000  Uiso   1.00
C23    C     0.83966   0.07164   0.93908   0.00000  Uiso   1.00
H24    H     0.98927   0.33276   0.87244   0.00000  Uiso   1.00
H25    H     0.03806   0.39081   0.93026   0.00000  Uiso   1.00
H26    H     0.10012   0.35689   0.75817   0.00000  Uiso   1.00
H27    H     0.81761   0.27106   0.93113   0.00000  Uiso   1.00
H28    H     0.11117   0.42287   0.99078   0.00000  Uiso   1.00
H29    H     0.24201   0.35133   0.62791   0.00000  Uiso   1.00
H30    H     0.64628   0.17034   0.99262   0.00000  Uiso   1.00
H31    H     0.13562   0.08371   0.84496   0.00000  Uiso   1.00
H32    H     0.19243   0.12810   0.90127   0.00000  Uiso   1.00
H33    H     0.25450   0.09419   0.72918   0.00000  Uiso   1.00
H34    H     0.97199   0.00835   0.90213   0.00000  Uiso   1.00
H35    H     0.23647   0.20965   0.96725   0.00000  Uiso   1.00
H36    H     0.36731   0.13811   0.60437   0.00000  Uiso   1.00
H37    H     0.77158   0.95712   0.96909   0.00000  Uiso   1.00
O38    O     0.20859   0.34996   0.01654   0.00000  Uiso   1.00
O39    O     0.38023   0.25610   0.54046   0.00000  Uiso   1.00
O40    O     0.59865   0.01865   0.01896   0.00000  Uiso   1.00
N41    N     0.13285   0.36659   0.97752   0.00000  Uiso   1.00
N42    N     0.25519   0.29972   0.63826   0.00000  Uiso   1.00
N43    N     0.69823   0.13050   0.97922   0.00000  Uiso   1.00
N44    N     0.20027   0.25186   0.96486   0.00000  Uiso   1.00
N45    N     0.32261   0.18498   0.62560   0.00000  Uiso   1.00
N46    N     0.76566   0.01577   0.96656   0.00000  Uiso   1.00
C47    C     0.52280   0.77570   0.86615   0.00000  Uiso   1.00
C48    C     0.56959   0.77271   0.89376   0.00000  Uiso   1.00
C49    C     0.57139   0.83410   0.92402   0.00000  Uiso   1.00
C50    C     0.61784   0.81961   0.94593   0.00000  Uiso   1.00
C51    C     0.68399   0.82612   0.99000   0.00000  Uiso   1.00
C52    C     0.60332   0.75428   0.80025   0.00000  Uiso   1.00
C53    C     0.63347   0.80018   0.75189   0.00000  Uiso   1.00
C54    C     0.70831   0.77017   0.69509   0.00000  Uiso   1.00
C55    C     0.82677   0.74805   0.59399   0.00000  Uiso   1.00
C56    C     0.44982   0.70765   0.89423   0.00000  Uiso   1.00
C57    C     0.35091   0.71434   0.92487   0.00000  Uiso   1.00
C58    C     0.29652   0.64506   0.94718   0.00000  Uiso   1.00
C59    C     0.17666   0.55054   0.99200   0.00000  Uiso   1.00
C60    C     0.60209   0.64077   0.85126   0.00000  Uiso   1.00
C61    C     0.61266   0.69942   0.88567   0.00000  Uiso   1.00
C62    C     0.65911   0.68482   0.90754   0.00000  Uiso   1.00
C63    C     0.66098   0.74619   0.93783   0.00000  Uiso   1.00
C64    C     0.64639   0.68100   0.79216   0.00000  Uiso   1.00
C65    C     0.72119   0.65090   0.73542   0.00000  Uiso   1.00
C66    C     0.75145   0.69675   0.68699   0.00000  Uiso   1.00
C67    C     0.49289   0.63436   0.88614   0.00000  Uiso   1.00
C68    C     0.43864   0.56506   0.90840   0.00000  Uiso   1.00
C69    C     0.33966   0.57164   0.93908   0.00000  Uiso   1.00
H70    H     0.48927   0.83276   0.87244   0.00000  Uiso   1.00
H71    H     0.53806   0.89081   0.93026   0.00000  Uiso   1.00
H72    H     0.60012   0.85689   0.75817   0.00000  Uiso   1.00
H73    H     0.31761   0.77106   0.93113   0.00000  Uiso   1.00
H74    H     0.61117   0.92287   0.99078   0.00000  Uiso   1.00
H75    H     0.74201   0.85133   0.62791   0.00000  Uiso   1.00
H76    H     0.14628   0.67034   0.99262   0.00000  Uiso   1.00
H77    H     0.63562   0.58371   0.84496   0.00000  Uiso   1.00
H78    H     0.69243   0.62810   0.90127   0.00000  Uiso   1.00
H79    H     0.75450   0.59419   0.72918   0.00000  Uiso   1.00
H80    H     0.47199   0.50835   0.90213   0.00000  Uiso   1.00
H81    H     0.73647   0.70965   0.96725   0.00000  Uiso   1.00
H82    H     0.86731   0.63811   0.60437   0.00000  Uiso   1.00
H83    H     0.27158   0.45712   0.96909   0.00000  Uiso   1.00
O84    O     0.70859   0.84996   0.01654   0.00000  Uiso   1.00
O85    O     0.88023   0.75610   0.54046   0.00000  Uiso   1.00
O86    O     0.09865   0.51865   0.01896   0.00000  Uiso   1.00
N87    N     0.63285   0.86659   0.97752   0.00000  Uiso   1.00
N88    N     0.75519   0.79972   0.63826   0.00000  Uiso   1.00
N89    N     0.19823   0.63050   0.97922   0.00000  Uiso   1.00
N90    N     0.70027   0.75186   0.96486   0.00000  Uiso   1.00
N91    N     0.82261   0.68498   0.62560   0.00000  Uiso   1.00
N92    N     0.26566   0.51577   0.96656   0.00000  Uiso   1.00
C93    C     0.97720   0.27570   0.63385   0.00000  Uiso   1.00
C94    C     0.93041   0.27271   0.60624   0.00000  Uiso   1.00
C95    C     0.92861   0.33410   0.57598   0.00000  Uiso   1.00
C96    C     0.88216   0.31961   0.55407   0.00000  Uiso   1.00
C97    C     0.81601   0.32612   0.51000   0.00000  Uiso   1.00
C98    C     0.89668   0.25428   0.69975   0.00000  Uiso   1.00
C99    C     0.86653   0.30018   0.74811   0.00000  Uiso   1.00
C100   C     0.79169   0.27017   0.80491   0.00000  Uiso   1.00
C101   C     0.67323   0.24805   0.90601   0.00000  Uiso   1.00
C102   C     0.05018   0.20765   0.60577   0.00000  Uiso   1.00
C103   C     0.14909   0.21434   0.57513   0.00000  Uiso   1.00
C104   C     0.20348   0.14506   0.55282   0.00000  Uiso   1.00
C105   C     0.32334   0.05054   0.50800   0.00000  Uiso   1.00
C106   C     0.89791   0.14077   0.64874   0.00000  Uiso   1.00
C107   C     0.88734   0.19942   0.61433   0.00000  Uiso   1.00
C108   C     0.84089   0.18482   0.59246   0.00000  Uiso   1.00
C109   C     0.83902   0.24619   0.56217   0.00000  Uiso   1.00
C110   C     0.85361   0.18100   0.70784   0.00000  Uiso   1.00
C111   C     0.77881   0.15090   0.76458   0.00000  Uiso   1.00
C112   C     0.74855   0.19675   0.81301   0.00000  Uiso   1.00
C113   C     0.00711   0.13436   0.61386   0.00000  Uiso   1.00
C114   C     0.06136   0.06506   0.59160   0.00000  Uiso   1.00
C115   C     0.16034   0.07164   0.56092   0.00000  Uiso   1.00
H116   H     0.01073   0.33276   0.62756   0.00000  Uiso   1.00
H117   H     0.96194   0.39081   0.56974   0.00000  Uiso   1.00
H118   H     0.89988   0.35689   0.74183   0.00000  Uiso   1.00
H119   H     0.18239   0.27106   0.56887   0.00000  Uiso   1.00
H120   H     0.88883   0.42287   0.50922   0.00000  Uiso   1.00
H121   H     0.75799   0.35133   0.87209   0.00000  Uiso   1.00
H122   H     0.35372   0.17034   0.50738   0.00000  Uiso   1.00
H123   H     0.86438   0.08371   0.65504   0.00000  Uiso   1.00
H124   H     0.80757   0.12810   0.59873   0.00000  Uiso   1.00
H125   H     0.74550   0.09419   0.77082   0.00000  Uiso   1.00
H126   H     0.02801   0.00835   0.59787   0.00000  Uiso   1.00
H127   H     0.76353   0.20965   0.53275   0.00000  Uiso   1.00
H128   H     0.63269   0.13811   0.89563   0.00000  Uiso   1.00
H129   H     0.22842   0.95712   0.53091   0.00000  Uiso   1.00
O130   O     0.79141   0.34996   0.48346   0.00000  Uiso   1.00
O131   O     0.61977   0.25610   0.95954   0.00000  Uiso   1.00
O132   O     0.40135   0.01865   0.48104   0.00000  Uiso   1.00
N133   N     0.86715   0.36659   0.52248   0.00000  Uiso   1.00
N134   N     0.74481   0.29972   0.86174   0.00000  Uiso   1.00
N135   N     0.30177   0.13050   0.52078   0.00000  Uiso   1.00
N136   N     0.79973   0.25186   0.53514   0.00000  Uiso   1.00
N137   N     0.67739   0.18498   0.87440   0.00000  Uiso   1.00
N138   N     0.23434   0.01577   0.53344   0.00000  Uiso   1.00
C139   C     0.47720   0.77570   0.63385   0.00000  Uiso   1.00
C140   C     0.43041   0.77271   0.60624   0.00000  Uiso   1.00
C141   C     0.42861   0.83410   0.57598   0.00000  Uiso   1.00
C142   C     0.38216   0.81961   0.55407   0.00000  Uiso   1.00
C143   C     0.31601   0.82612   0.51000   0.00000  Uiso   1.00
C144   C     0.39668   0.75428   0.69975   0.00000  Uiso   1.00
C145   C     0.36653   0.80018   0.74811   0.00000  Uiso   1.00
C146   C     0.29169   0.77017   0.80491   0.00000  Uiso   1.00
C147   C     0.17323   0.74805   0.90601   0.00000  Uiso   1.00
C148   C     0.55018   0.70765   0.60577   0.00000  Uiso   1.00
C149   C     0.64909   0.71434   0.57513   0.00000  Uiso   1.00
C150   C     0.70348   0.64506   0.55282   0.00000  Uiso   1.00
C151   C     0.82334   0.55054   0.50800   0.00000  Uiso   1.00
C152   C     0.39791   0.64077   0.64874   0.00000  Uiso   1.00
C153   C     0.38734   0.69942   0.61433   0.00000  Uiso   1.00
C154   C     0.34089   0.68482   0.59246   0.00000  Uiso   1.00
C155   C     0.33902   0.74619   0.56217   0.00000  Uiso   1.00
C156   C     0.35361   0.68100   0.70784   0.00000  Uiso   1.00
C157   C     0.27881   0.65090   0.76458   0.00000  Uiso   1.00
C158   C     0.24855   0.69675   0.81301   0.00000  Uiso   1.00
C159   C     0.50711   0.63436   0.61386   0.00000  Uiso   1.00
C160   C     0.56136   0.56506   0.59160   0.00000  Uiso   1.00
C161   C     0.66034   0.57164   0.56092   0.00000  Uiso   1.00
H162   H     0.51073   0.83276   0.62756   0.00000  Uiso   1.00
H163   H     0.46194   0.89081   0.56974   0.00000  Uiso   1.00
H164   H     0.39988   0.85689   0.74183   0.00000  Uiso   1.00
H165   H     0.68239   0.77106   0.56887   0.00000  Uiso   1.00
H166   H     0.38883   0.92287   0.50922   0.00000  Uiso   1.00
H167   H     0.25799   0.85133   0.87209   0.00000  Uiso   1.00
H168   H     0.85372   0.67034   0.50738   0.00000  Uiso   1.00
H169   H     0.36438   0.58371   0.65504   0.00000  Uiso   1.00
H170   H     0.30757   0.62810   0.59873   0.00000  Uiso   1.00
H171   H     0.24550   0.59419   0.77082   0.00000  Uiso   1.00
H172   H     0.52801   0.50835   0.59787   0.00000  Uiso   1.00
H173   H     0.26353   0.70965   0.53275   0.00000  Uiso   1.00
H174   H     0.13269   0.63811   0.89563   0.00000  Uiso   1.00
H175   H     0.72842   0.45712   0.53091   0.00000  Uiso   1.00
O176   O     0.29141   0.84996   0.48346   0.00000  Uiso   1.00
O177   O     0.11977   0.75610   0.95954   0.00000  Uiso   1.00
O178   O     0.90135   0.51865   0.48104   0.00000  Uiso   1.00
N179   N     0.36715   0.86659   0.52248   0.00000  Uiso   1.00
N180   N     0.24481   0.79972   0.86174   0.00000  Uiso   1.00
N181   N     0.80177   0.63050   0.52078   0.00000  Uiso   1.00
N182   N     0.29973   0.75186   0.53514   0.00000  Uiso   1.00
N183   N     0.17739   0.68498   0.87440   0.00000  Uiso   1.00
N184   N     0.73434   0.51577   0.53344   0.00000  Uiso   1.00
C185   C     0.97720   0.72430   0.13385   0.00000  Uiso   1.00
C186   C     0.93041   0.72729   0.10624   0.00000  Uiso   1.00
C187   C     0.92861   0.66590   0.07598   0.00000  Uiso   1.00
C188   C     0.88216   0.68039   0.05407   0.00000  Uiso   1.00
C189   C     0.81601   0.67388   0.01000   0.00000  Uiso   1.00
C190   C     0.89668   0.74572   0.19975   0.00000  Uiso   1.00
C191   C     0.86653   0.69982   0.24811   0.00000  Uiso   1.00
C192   C     0.79169   0.72983   0.30491   0.00000  Uiso   1.00
C193   C     0.67323   0.75195   0.40601   0.00000  Uiso   1.00
C194   C     0.05018   0.79235   0.10577   0.00000  Uiso   1.00
C195   C     0.14909   0.78566   0.07513   0.00000  Uiso   1.00
C196   C     0.20348   0.85494   0.05282   0.00000  Uiso   1.00
C197   C     0.32334   0.94946   0.00800   0.00000  Uiso   1.00
C198   C     0.89791   0.85923   0.14874   0.00000  Uiso   1.00
C199   C     0.88734   0.80058   0.11433   0.00000  Uiso   1.00
C200   C     0.84089   0.81518   0.09246   0.00000  Uiso   1.00
C201   C     0.83902   0.75381   0.06217   0.00000  Uiso   1.00
C202   C     0.85361   0.81900   0.20784   0.00000  Uiso   1.00
C203   C     0.77881   0.84910   0.26458   0.00000  Uiso   1.00
C204   C     0.74855   0.80325   0.31301   0.00000  Uiso   1.00
C205   C     0.00711   0.86564   0.11386   0.00000  Uiso   1.00
C206   C     0.06136   0.93494   0.09160   0.00000  Uiso   1.00
C207   C     0.16034   0.92836   0.06092   0.00000  Uiso   1.00
H208   H     0.01073   0.66724   0.12756   0.00000  Uiso   1.00
H209   H     0.96194   0.60919   0.06974   0.00000  Uiso   1.00
H210   H     0.89988   0.64311   0.24183   0.00000  Uiso   1.00
H211   H     0.18239   0.72894   0.06887   0.00000  Uiso   1.00
H212   H     0.88883   0.57713   0.00922   0.00000  Uiso   1.00
H213   H     0.75799   0.64867   0.37209   0.00000  Uiso   1.00
H214   H     0.35372   0.82966   0.00738   0.00000  Uiso   1.00
H215   H     0.86438   0.91629   0.15504   0.00000  Uiso   1.00
H216   H     0.80757   0.87190   0.09873   0.00000  Uiso   1.00
H217   H     0.74550   0.90581   0.27082   0.00000  Uiso   1.00
H218   H     0.02801   0.99165   0.09787   0.00000  Uiso   1.00
H219   H     0.76353   0.79035   0.03275   0.00000  Uiso   1.00
H220   H     0.63269   0.86189   0.39563   0.00000  Uiso   1.00
H221   H     0.22842   0.04288   0.03091   0.00000  Uiso   1.00
O222   O     0.79141   0.65004   0.98346   0.00000  Uiso   1.00
O223   O     0.61977   0.74390   0.45954   0.00000  Uiso   1.00
O224   O     0.40135   0.98135   0.98104   0.00000  Uiso   1.00
N225   N     0.86715   0.63341   0.02248   0.00000  Uiso   1.00
N226   N     0.74481   0.70028   0.36174   0.00000  Uiso   1.00
N227   N     0.30177   0.86950   0.02078   0.00000  Uiso   1.00
N228   N     0.79973   0.74814   0.03514   0.00000  Uiso   1.00
N229   N     0.67739   0.81502   0.37440   0.00000  Uiso   1.00
N230   N     0.23434   0.98423   0.03344   0.00000  Uiso   1.00
C231   C     0.47720   0.22430   0.13385   0.00000  Uiso   1.00
C232   C     0.43041   0.22729   0.10624   0.00000  Uiso   1.00
C233   C     0.42861   0.16590   0.07598   0.00000  Uiso   1.00
C234   C     0.38216   0.18039   0.05407   0.00000  Uiso   1.00
C235   C     0.31601   0.17388   0.01000   0.00000  Uiso   1.00
C236   C     0.39668   0.24572   0.19975   0.00000  Uiso   1.00
C237   C     0.36653   0.19982   0.24811   0.00000  Uiso   1.00
C238   C     0.29169   0.22983   0.30491   0.00000  Uiso   1.00
C239   C     0.17323   0.25195   0.40601   0.00000  Uiso   1.00
C240   C     0.55018   0.29235   0.10577   0.00000  Uiso   1.00
C241   C     0.64909   0.28566   0.07513   0.00000  Uiso   1.00
C242   C     0.70348   0.35494   0.05282   0.00000  Uiso   1.00
C243   C     0.82334   0.44946   0.00800   0.00000  Uiso   1.00
C244   C     0.39791   0.35923   0.14874   0.00000  Uiso   1.00
C245   C     0.38734   0.30058   0.11433   0.00000  Uiso   1.00
C246   C     0.34089   0.31518   0.09246   0.00000  Uiso   1.00
C247   C     0.33902   0.25381   0.06217   0.00000  Uiso   1.00
C248   C     0.35361   0.31900   0.20784   0.00000  Uiso   1.00
C249   C     0.27881   0.34910   0.26458   0.00000  Uiso   1.00
C250   C     0.24855   0.30325   0.31301   0.00000  Uiso   1.00
C251   C     0.50711   0.36564   0.11386   0.00000  Uiso   1.00
C252   C     0.56136   0.43494   0.09160   0.00000  Uiso   1.00
C253   C     0.66034   0.42836   0.06092   0.00000  Uiso   1.00
H254   H     0.51073   0.16724   0.12756   0.00000  Uiso   1.00
H255   H     0.46194   0.10919   0.06974   0.00000  Uiso   1.00
H256   H     0.39988   0.14311   0.24183   0.00000  Uiso   1.00
H257   H     0.68239   0.22894   0.06887   0.00000  Uiso   1.00
H258   H     0.38883   0.07713   0.00922   0.00000  Uiso   1.00
H259   H     0.25799   0.14867   0.37209   0.00000  Uiso   1.00
H260   H     0.85372   0.32966   0.00738   0.00000  Uiso   1.00
H261   H     0.36438   0.41629   0.15504   0.00000  Uiso   1.00
H262   H     0.30757   0.37190   0.09873   0.00000  Uiso   1.00
H263   H     0.24550   0.40581   0.27082   0.00000  Uiso   1.00
H264   H     0.52801   0.49165   0.09787   0.00000  Uiso   1.00
H265   H     0.26353   0.29035   0.03275   0.00000  Uiso   1.00
H266   H     0.13269   0.36189   0.39563   0.00000  Uiso   1.00
H267   H     0.72842   0.54288   0.03091   0.00000  Uiso   1.00
O268   O     0.29141   0.15004   0.98346   0.00000  Uiso   1.00
O269   O     0.11977   0.24390   0.45954   0.00000  Uiso   1.00
O270   O     0.90135   0.48135   0.98104   0.00000  Uiso   1.00
N271   N     0.36715   0.13341   0.02248   0.00000  Uiso   1.00
N272   N     0.24481   0.20028   0.36174   0.00000  Uiso   1.00
N273   N     0.80177   0.36950   0.02078   0.00000  Uiso   1.00
N274   N     0.29973   0.24814   0.03514   0.00000  Uiso   1.00
N275   N     0.17739   0.31502   0.37440   0.00000  Uiso   1.00
N276   N     0.73434   0.48423   0.03344   0.00000  Uiso   1.00
C277   C     0.02280   0.72430   0.36615   0.00000  Uiso   1.00
C278   C     0.06959   0.72729   0.39376   0.00000  Uiso   1.00
C279   C     0.07139   0.66590   0.42402   0.00000  Uiso   1.00
C280   C     0.11784   0.68039   0.44593   0.00000  Uiso   1.00
C281   C     0.18399   0.67388   0.49000   0.00000  Uiso   1.00
C282   C     0.10332   0.74572   0.30025   0.00000  Uiso   1.00
C283   C     0.13347   0.69982   0.25189   0.00000  Uiso   1.00
C284   C     0.20831   0.72983   0.19509   0.00000  Uiso   1.00
C285   C     0.32677   0.75195   0.09399   0.00000  Uiso   1.00
C286   C     0.94982   0.79235   0.39423   0.00000  Uiso   1.00
C287   C     0.85091   0.78566   0.42487   0.00000  Uiso   1.00
C288   C     0.79652   0.85494   0.44718   0.00000  Uiso   1.00
C289   C     0.67666   0.94946   0.49200   0.00000  Uiso   1.00
C290   C     0.10209   0.85923   0.35126   0.00000  Uiso   1.00
C291   C     0.11266   0.80058   0.38567   0.00000  Uiso   1.00
C292   C     0.15911   0.81518   0.40754   0.00000  Uiso   1.00
C293   C     0.16098   0.75381   0.43783   0.00000  Uiso   1.00
C294   C     0.14639   0.81900   0.29216   0.00000  Uiso   1.00
C295   C     0.22119   0.84910   0.23542   0.00000  Uiso   1.00
C296   C     0.25145   0.80325   0.18699   0.00000  Uiso   1.00
C297   C     0.99289   0.86564   0.38614   0.00000  Uiso   1.00
C298   C     0.93864   0.93494   0.40840   0.00000  Uiso   1.00
C299   C     0.83966   0.92836   0.43908   0.00000  Uiso   1.00
H300   H     0.98927   0.66724   0.37244   0.00000  Uiso   1.00
H301   H     0.03806   0.60919   0.43026   0.00000  Uiso   1.00
H302   H     0.10012   0.64311   0.25817   0.00000  Uiso   1.00
H303   H     0.81761   0.72894   0.43113   0.00000  Uiso   1.00
H304   H     0.11117   0.57713   0.49078   0.00000  Uiso   1.00
H305   H     0.24201   0.64867   0.12791   0.00000  Uiso   1.00
H306   H     0.64628   0.82966   0.49262   0.00000  Uiso   1.00
H307   H     0.13562   0.91629   0.34496   0.00000  Uiso   1.00
H308   H     0.19243   0.87190   0.40127   0.00000  Uiso   1.00
H309   H     0.25450   0.90581   0.22918   0.00000  Uiso   1.00
H310   H     0.97199   0.99165   0.40213   0.00000  Uiso   1.00
H311   H     0.23647   0.79035   0.46725   0.00000  Uiso   1.00
H312   H     0.36731   0.86189   0.10437   0.00000  Uiso   1.00
H313   H     0.77158   0.04288   0.46909   0.00000  Uiso   1.00
O314   O     0.20859   0.65004   0.51654   0.00000  Uiso   1.00
O315   O     0.38023   0.74390   0.04046   0.00000  Uiso   1.00
O316   O     0.59865   0.98135   0.51896   0.00000  Uiso   1.00
N317   N     0.13285   0.63341   0.47752   0.00000  Uiso   1.00
N318   N     0.25519   0.70028   0.13826   0.00000  Uiso   1.00
N319   N     0.69823   0.86950   0.47922   0.00000  Uiso   1.00
N320   N     0.20027   0.74814   0.46486   0.00000  Uiso   1.00
N321   N     0.32261   0.81502   0.12560   0.00000  Uiso   1.00
N322   N     0.76566   0.98423   0.46656   0.00000  Uiso   1.00
C323   C     0.52280   0.22430   0.36615   0.00000  Uiso   1.00
C324   C     0.56959   0.22729   0.39376   0.00000  Uiso   1.00
C325   C     0.57139   0.16590   0.42402   0.00000  Uiso   1.00
C326   C     0.61784   0.18039   0.44593   0.00000  Uiso   1.00
C327   C     0.68399   0.17388   0.49000   0.00000  Uiso   1.00
C328   C     0.60332   0.24572   0.30025   0.00000  Uiso   1.00
C329   C     0.63347   0.19982   0.25189   0.00000  Uiso   1.00
C330   C     0.70831   0.22983   0.19509   0.00000  Uiso   1.00
C331   C     0.82677   0.25195   0.09399   0.00000  Uiso   1.00
C332   C     0.44982   0.29235   0.39423   0.00000  Uiso   1.00
C333   C     0.35091   0.28566   0.42487   0.00000  Uiso   1.00
C334   C     0.29652   0.35494   0.44718   0.00000  Uiso   1.00
C335   C     0.17666   0.44946   0.49200   0.00000  Uiso   1.00
C336   C     0.60209   0.35923   0.35126   0.00000  Uiso   1.00
C337   C     0.61266   0.30058   0.38567   0.00000  Uiso   1.00
C338   C     0.65911   0.31518   0.40754   0.00000  Uiso   1.00
C339   C     0.66098   0.25381   0.43783   0.00000  Uiso   1.00
C340   C     0.64639   0.31900   0.29216   0.00000  Uiso   1.00
C341   C     0.72119   0.34910   0.23542   0.00000  Uiso   1.00
C342   C     0.75145   0.30325   0.18699   0.00000  Uiso   1.00
C343   C     0.49289   0.36564   0.38614   0.00000  Uiso   1.00
C344   C     0.43864   0.43494   0.40840   0.00000  Uiso   1.00
C345   C     0.33966   0.42836   0.43908   0.00000  Uiso   1.00
H346   H     0.48927   0.16724   0.37244   0.00000  Uiso   1.00
H347   H     0.53806   0.10919   0.43026   0.00000  Uiso   1.00
H348   H     0.60012   0.14311   0.25817   0.00000  Uiso   1.00
H349   H     0.31761   0.22894   0.43113   0.00000  Uiso   1.00
H350   H     0.61117   0.07713   0.49078   0.00000  Uiso   1.00
H351   H     0.74201   0.14867   0.12791   0.00000  Uiso   1.00
H352   H     0.14628   0.32966   0.49262   0.00000  Uiso   1.00
H353   H     0.63562   0.41629   0.34496   0.00000  Uiso   1.00
H354   H     0.69243   0.37190   0.40127   0.00000  Uiso   1.00
H355   H     0.75450   0.40581   0.22918   0.00000  Uiso   1.00
H356   H     0.47199   0.49165   0.40213   0.00000  Uiso   1.00
H357   H     0.73647   0.29035   0.46725   0.00000  Uiso   1.00
H358   H     0.86731   0.36189   0.10437   0.00000  Uiso   1.00
H359   H     0.27158   0.54288   0.46909   0.00000  Uiso   1.00
O360   O     0.70859   0.15004   0.51654   0.00000  Uiso   1.00
O361   O     0.88023   0.24390   0.04046   0.00000  Uiso   1.00
O362   O     0.09865   0.48135   0.51896   0.00000  Uiso   1.00
N363   N     0.63285   0.13341   0.47752   0.00000  Uiso   1.00
N364   N     0.75519   0.20028   0.13826   0.00000  Uiso   1.00
N365   N     0.19823   0.36950   0.47922   0.00000  Uiso   1.00
N366   N     0.70027   0.24814   0.46486   0.00000  Uiso   1.00
N367   N     0.82261   0.31502   0.12560   0.00000  Uiso   1.00
N368   N     0.26566   0.48423   0.46656   0.00000  Uiso   1.00
