data_job_01392
_audit_creation_date              2018-12-19
_audit_creation_method            'Materials Studio'
_symmetry_space_group_name_H-M    'P1'
_symmetry_Int_Tables_number       1
_symmetry_cell_setting            triclinic
loop_
_symmetry_equiv_pos_as_xyz
  x,y,z
_cell_length_a                    12.4917
_cell_length_b                    38.2269
_cell_length_c                    11.3850
_cell_angle_alpha                 90.0000
_cell_angle_beta                  90.0000
_cell_angle_gamma                 90.0000
loop_
_atom_site_label
_atom_site_type_symbol
_atom_site_fract_x
_atom_site_fract_y
_atom_site_fract_z
_atom_site_U_iso_or_equiv
_atom_site_adp_type
_atom_site_occupancy
C1     C     0.09339   0.60708   0.32543   0.00000  Uiso   1.00
C2     C     0.00947   0.62167   0.40948   0.00000  Uiso   1.00
C3     C     0.91116   0.60648   0.43446   0.00000  Uiso   1.00
C4     C     0.84570   0.62391   0.51376   0.00000  Uiso   1.00
C5     C     0.71053   0.64178   0.63625   0.00000  Uiso   1.00
C6     C     0.11488   0.63591   0.23590   0.00000  Uiso   1.00
C7     C     0.10521   0.63270   0.11494   0.00000  Uiso   1.00
C8     C     0.12849   0.66212   0.04813   0.00000  Uiso   1.00
C9     C     0.15704   0.70209   0.90113   0.00000  Uiso   1.00
C10    C     0.19596   0.60338   0.39698   0.00000  Uiso   1.00
C11    C     0.25449   0.57283   0.41143   0.00000  Uiso   1.00
C12    C     0.34607   0.57486   0.48022   0.00000  Uiso   1.00
C13    C     0.50051   0.56433   0.58333   0.00000  Uiso   1.00
C14    C     0.15196   0.66503   0.42185   0.00000  Uiso   1.00
C15    C     0.04129   0.65314   0.46184   0.00000  Uiso   1.00
C16    C     0.97596   0.67060   0.54114   0.00000  Uiso   1.00
C17    C     0.87757   0.65544   0.56623   0.00000  Uiso   1.00
C18    C     0.14669   0.66738   0.28827   0.00000  Uiso   1.00
C19    C     0.17001   0.69681   0.22162   0.00000  Uiso   1.00
C20    C     0.16037   0.69365   0.10059   0.00000  Uiso   1.00
C21    C     0.22778   0.63486   0.44936   0.00000  Uiso   1.00
C22    C     0.31929   0.63694   0.51812   0.00000  Uiso   1.00
C23    C     0.37794   0.60639   0.53268   0.00000  Uiso   1.00
H24    H     0.06863   0.58258   0.28465   0.00000  Uiso   1.00
H25    H     0.88657   0.58212   0.39390   0.00000  Uiso   1.00
H26    H     0.08060   0.60834   0.07444   0.00000  Uiso   1.00
H27    H     0.22985   0.54847   0.37089   0.00000  Uiso   1.00
H28    H     0.69873   0.59551   0.53809   0.00000  Uiso   1.00
H29    H     0.10788   0.65077   0.86448   0.00000  Uiso   1.00
H30    H     0.42262   0.52454   0.48961   0.00000  Uiso   1.00
H31    H     0.17673   0.68954   0.46262   0.00000  Uiso   1.00
H32    H     0.00060   0.69495   0.58165   0.00000  Uiso   1.00
H33    H     0.19463   0.72117   0.26218   0.00000  Uiso   1.00
H34    H     0.34388   0.66130   0.55863   0.00000  Uiso   1.00
H35    H     0.79128   0.68709   0.69047   0.00000  Uiso   1.00
H36    H     0.20044   0.74235   0.01685   0.00000  Uiso   1.00
H37    H     0.51517   0.61612   0.64199   0.00000  Uiso   1.00
O38    O     0.62718   0.64294   0.68934   0.00000  Uiso   1.00
O39    O     0.16399   0.71544   0.80558   0.00000  Uiso   1.00
O40    O     0.57691   0.54983   0.62574   0.00000  Uiso   1.00
N41    N     0.74470   0.61632   0.55764   0.00000  Uiso   1.00
N42    N     0.12721   0.66799   0.92785   0.00000  Uiso   1.00
N43    N     0.42148   0.54997   0.51227   0.00000  Uiso   1.00
N44    N     0.79450   0.66559   0.63963   0.00000  Uiso   1.00
N45    N     0.17701   0.71726   0.00984   0.00000  Uiso   1.00
N46    N     0.47128   0.59925   0.59426   0.00000  Uiso   1.00
C47    C     0.94399   0.40967   0.65332   0.00000  Uiso   1.00
C48    C     0.02749   0.40559   0.55657   0.00000  Uiso   1.00
C49    C     0.12342   0.42377   0.54904   0.00000  Uiso   1.00
C50    C     0.18890   0.41628   0.45377   0.00000  Uiso   1.00
C51    C     0.32306   0.41371   0.31645   0.00000  Uiso   1.00
C52    C     0.92786   0.37325   0.70507   0.00000  Uiso   1.00
C53    C     0.94000   0.36424   0.82240   0.00000  Uiso   1.00
C54    C     0.92160   0.32953   0.85213   0.00000  Uiso   1.00
C55    C     0.90101   0.27676   0.94537   0.00000  Uiso   1.00
C56    C     0.83943   0.41890   0.59153   0.00000  Uiso   1.00
C57    C     0.77720   0.44825   0.61343   0.00000  Uiso   1.00
C58    C     0.68433   0.45197   0.54759   0.00000  Uiso   1.00
C59    C     0.52644   0.47006   0.46456   0.00000  Uiso   1.00
C60    C     0.88971   0.36405   0.49749   0.00000  Uiso   1.00
C61    C     0.99801   0.38082   0.47193   0.00000  Uiso   1.00
C62    C     0.06336   0.37330   0.37664   0.00000  Uiso   1.00
C63    C     0.15936   0.39146   0.36897   0.00000  Uiso   1.00
C64    C     0.89838   0.34848   0.62043   0.00000  Uiso   1.00
C65    C     0.87995   0.31377   0.65000   0.00000  Uiso   1.00
C66    C     0.89207   0.30471   0.76734   0.00000  Uiso   1.00
C67    C     0.80995   0.39412   0.50689   0.00000  Uiso   1.00
C68    C     0.71715   0.39779   0.44102   0.00000  Uiso   1.00
C69    C     0.65479   0.42715   0.46280   0.00000  Uiso   1.00
H70    H     0.96695   0.42895   0.71922   0.00000  Uiso   1.00
H71    H     0.14621   0.44294   0.61457   0.00000  Uiso   1.00
H72    H     0.96281   0.38342   0.88788   0.00000  Uiso   1.00
H73    H     0.80004   0.46742   0.67893   0.00000  Uiso   1.00
H74    H     0.33197   0.44750   0.46125   0.00000  Uiso   1.00
H75    H     0.94524   0.32201   0.03754   0.00000  Uiso   1.00
H76    H     0.60200   0.49915   0.59694   0.00000  Uiso   1.00
H77    H     0.86675   0.34476   0.43159   0.00000  Uiso   1.00
H78    H     0.04052   0.35413   0.31115   0.00000  Uiso   1.00
H79    H     0.85713   0.29461   0.58447   0.00000  Uiso   1.00
H80    H     0.69436   0.37861   0.37553   0.00000  Uiso   1.00
H81    H     0.24619   0.37542   0.21499   0.00000  Uiso   1.00
H82    H     0.85945   0.24993   0.79129   0.00000  Uiso   1.00
H83    H     0.51622   0.42706   0.35069   0.00000  Uiso   1.00
O84    O     0.40522   0.41913   0.26410   0.00000  Uiso   1.00
O85    O     0.89781   0.25450   0.02019   0.00000  Uiso   1.00
O86    O     0.44750   0.48689   0.44212   0.00000  Uiso   1.00
N87    N     0.28793   0.42926   0.41980   0.00000  Uiso   1.00
N88    N     0.92637   0.31193   0.95861   0.00000  Uiso   1.00
N89    N     0.60545   0.47753   0.54670   0.00000  Uiso   1.00
N90    N     0.24177   0.39047   0.28729   0.00000  Uiso   1.00
N91    N     0.88021   0.27314   0.82610   0.00000  Uiso   1.00
N92    N     0.55930   0.43874   0.41419   0.00000  Uiso   1.00
C93    C     0.40661   0.39292   0.82543   0.00000  Uiso   1.00
C94    C     0.49053   0.37833   0.90948   0.00000  Uiso   1.00
C95    C     0.58884   0.39352   0.93446   0.00000  Uiso   1.00
C96    C     0.65430   0.37609   0.01376   0.00000  Uiso   1.00
C97    C     0.78947   0.35822   0.13625   0.00000  Uiso   1.00
C98    C     0.38512   0.36409   0.73590   0.00000  Uiso   1.00
C99    C     0.39479   0.36730   0.61494   0.00000  Uiso   1.00
C100   C     0.37151   0.33788   0.54813   0.00000  Uiso   1.00
C101   C     0.34296   0.29791   0.40113   0.00000  Uiso   1.00
C102   C     0.30404   0.39662   0.89698   0.00000  Uiso   1.00
C103   C     0.24551   0.42717   0.91143   0.00000  Uiso   1.00
C104   C     0.15393   0.42514   0.98022   0.00000  Uiso   1.00
C105   C     0.99949   0.43567   0.08333   0.00000  Uiso   1.00
C106   C     0.34804   0.33497   0.92185   0.00000  Uiso   1.00
C107   C     0.45871   0.34686   0.96184   0.00000  Uiso   1.00
C108   C     0.52404   0.32940   0.04114   0.00000  Uiso   1.00
C109   C     0.62243   0.34456   0.06623   0.00000  Uiso   1.00
C110   C     0.35331   0.33262   0.78827   0.00000  Uiso   1.00
C111   C     0.32999   0.30319   0.72162   0.00000  Uiso   1.00
C112   C     0.33963   0.30635   0.60059   0.00000  Uiso   1.00
C113   C     0.27222   0.36514   0.94936   0.00000  Uiso   1.00
C114   C     0.18071   0.36306   0.01812   0.00000  Uiso   1.00
C115   C     0.12206   0.39361   0.03268   0.00000  Uiso   1.00
H116   H     0.43137   0.41742   0.78465   0.00000  Uiso   1.00
H117   H     0.61343   0.41788   0.89390   0.00000  Uiso   1.00
H118   H     0.41940   0.39166   0.57444   0.00000  Uiso   1.00
H119   H     0.27015   0.45153   0.87089   0.00000  Uiso   1.00
H120   H     0.80127   0.40449   0.03809   0.00000  Uiso   1.00
H121   H     0.39212   0.34923   0.36448   0.00000  Uiso   1.00
H122   H     0.07738   0.47546   0.98961   0.00000  Uiso   1.00
H123   H     0.32327   0.31046   0.96262   0.00000  Uiso   1.00
H124   H     0.49940   0.30505   0.08165   0.00000  Uiso   1.00
H125   H     0.30537   0.27883   0.76218   0.00000  Uiso   1.00
H126   H     0.15612   0.33870   0.05863   0.00000  Uiso   1.00
H127   H     0.70872   0.31291   0.19047   0.00000  Uiso   1.00
H128   H     0.29956   0.25765   0.51685   0.00000  Uiso   1.00
H129   H     0.98483   0.38388   0.14199   0.00000  Uiso   1.00
O130   O     0.87282   0.35706   0.18934   0.00000  Uiso   1.00
O131   O     0.33601   0.28456   0.30558   0.00000  Uiso   1.00
O132   O     0.92309   0.45017   0.12574   0.00000  Uiso   1.00
N133   N     0.75530   0.38368   0.05764   0.00000  Uiso   1.00
N134   N     0.37279   0.33201   0.42785   0.00000  Uiso   1.00
N135   N     0.07852   0.45003   0.01227   0.00000  Uiso   1.00
N136   N     0.70550   0.33441   0.13963   0.00000  Uiso   1.00
N137   N     0.32299   0.28274   0.50984   0.00000  Uiso   1.00
N138   N     0.02872   0.40075   0.09426   0.00000  Uiso   1.00
C139   C     0.55601   0.59033   0.15332   0.00000  Uiso   1.00
C140   C     0.47251   0.59441   0.05657   0.00000  Uiso   1.00
C141   C     0.37658   0.57623   0.04904   0.00000  Uiso   1.00
C142   C     0.31110   0.58372   0.95377   0.00000  Uiso   1.00
C143   C     0.17694   0.58629   0.81645   0.00000  Uiso   1.00
C144   C     0.57214   0.62675   0.20507   0.00000  Uiso   1.00
C145   C     0.56000   0.63576   0.32240   0.00000  Uiso   1.00
C146   C     0.57840   0.67047   0.35213   0.00000  Uiso   1.00
C147   C     0.59899   0.72324   0.44537   0.00000  Uiso   1.00
C148   C     0.66057   0.58110   0.09153   0.00000  Uiso   1.00
C149   C     0.72280   0.55175   0.11343   0.00000  Uiso   1.00
C150   C     0.81567   0.54803   0.04759   0.00000  Uiso   1.00
C151   C     0.97356   0.52994   0.96456   0.00000  Uiso   1.00
C152   C     0.61029   0.63595   0.99749   0.00000  Uiso   1.00
C153   C     0.50199   0.61918   0.97193   0.00000  Uiso   1.00
C154   C     0.43664   0.62670   0.87664   0.00000  Uiso   1.00
C155   C     0.34064   0.60854   0.86897   0.00000  Uiso   1.00
C156   C     0.60162   0.65152   0.12043   0.00000  Uiso   1.00
C157   C     0.62005   0.68623   0.15000   0.00000  Uiso   1.00
C158   C     0.60793   0.69529   0.26734   0.00000  Uiso   1.00
C159   C     0.69005   0.60588   0.00689   0.00000  Uiso   1.00
C160   C     0.78285   0.60221   0.94102   0.00000  Uiso   1.00
C161   C     0.84521   0.57285   0.96280   0.00000  Uiso   1.00
H162   H     0.53305   0.57105   0.21922   0.00000  Uiso   1.00
H163   H     0.35379   0.55706   0.11457   0.00000  Uiso   1.00
H164   H     0.53719   0.61658   0.38788   0.00000  Uiso   1.00
H165   H     0.69996   0.53258   0.17893   0.00000  Uiso   1.00
H166   H     0.16803   0.55250   0.96125   0.00000  Uiso   1.00
H167   H     0.55476   0.67799   0.53754   0.00000  Uiso   1.00
H168   H     0.89800   0.50085   0.09694   0.00000  Uiso   1.00
H169   H     0.63325   0.65524   0.93159   0.00000  Uiso   1.00
H170   H     0.45948   0.64587   0.81115   0.00000  Uiso   1.00
H171   H     0.64287   0.70539   0.08447   0.00000  Uiso   1.00
H172   H     0.80564   0.62139   0.87553   0.00000  Uiso   1.00
H173   H     0.25381   0.62458   0.71499   0.00000  Uiso   1.00
H174   H     0.64055   0.75007   0.29129   0.00000  Uiso   1.00
H175   H     0.98378   0.57294   0.85069   0.00000  Uiso   1.00
O176   O     0.09478   0.58087   0.76410   0.00000  Uiso   1.00
O177   O     0.60219   0.74550   0.52019   0.00000  Uiso   1.00
O178   O     0.05250   0.51311   0.94212   0.00000  Uiso   1.00
N179   N     0.21207   0.57074   0.91980   0.00000  Uiso   1.00
N180   N     0.57363   0.68807   0.45861   0.00000  Uiso   1.00
N181   N     0.89455   0.52247   0.04670   0.00000  Uiso   1.00
N182   N     0.25823   0.60953   0.78729   0.00000  Uiso   1.00
N183   N     0.61979   0.72686   0.32610   0.00000  Uiso   1.00
N184   N     0.94070   0.56126   0.91419   0.00000  Uiso   1.00
C185   C     0.90661   0.10708   0.17457   0.00000  Uiso   1.00
C186   C     0.99053   0.12167   0.09052   0.00000  Uiso   1.00
C187   C     0.08884   0.10648   0.06554   0.00000  Uiso   1.00
C188   C     0.15430   0.12391   0.98624   0.00000  Uiso   1.00
C189   C     0.28947   0.14178   0.86375   0.00000  Uiso   1.00
C190   C     0.88512   0.13591   0.26410   0.00000  Uiso   1.00
C191   C     0.89479   0.13270   0.38506   0.00000  Uiso   1.00
C192   C     0.87151   0.16212   0.45187   0.00000  Uiso   1.00
C193   C     0.84296   0.20209   0.59887   0.00000  Uiso   1.00
C194   C     0.80404   0.10338   0.10302   0.00000  Uiso   1.00
C195   C     0.74551   0.07283   0.08857   0.00000  Uiso   1.00
C196   C     0.65393   0.07486   0.01978   0.00000  Uiso   1.00
C197   C     0.49949   0.06433   0.91667   0.00000  Uiso   1.00
C198   C     0.84804   0.16503   0.07815   0.00000  Uiso   1.00
C199   C     0.95871   0.15314   0.03816   0.00000  Uiso   1.00
C200   C     0.02404   0.17060   0.95886   0.00000  Uiso   1.00
C201   C     0.12243   0.15544   0.93377   0.00000  Uiso   1.00
C202   C     0.85331   0.16738   0.21173   0.00000  Uiso   1.00
C203   C     0.82999   0.19681   0.27838   0.00000  Uiso   1.00
C204   C     0.83963   0.19365   0.39941   0.00000  Uiso   1.00
C205   C     0.77222   0.13486   0.05064   0.00000  Uiso   1.00
C206   C     0.68071   0.13694   0.98188   0.00000  Uiso   1.00
C207   C     0.62206   0.10639   0.96732   0.00000  Uiso   1.00
H208   H     0.93137   0.08258   0.21535   0.00000  Uiso   1.00
H209   H     0.11343   0.08212   0.10610   0.00000  Uiso   1.00
H210   H     0.91940   0.10834   0.42556   0.00000  Uiso   1.00
H211   H     0.77015   0.04847   0.12911   0.00000  Uiso   1.00
H212   H     0.30127   0.09551   0.96191   0.00000  Uiso   1.00
H213   H     0.89212   0.15077   0.63552   0.00000  Uiso   1.00
H214   H     0.57738   0.02454   0.01039   0.00000  Uiso   1.00
H215   H     0.82327   0.18954   0.03738   0.00000  Uiso   1.00
H216   H     0.99940   0.19495   0.91835   0.00000  Uiso   1.00
H217   H     0.80537   0.22117   0.23782   0.00000  Uiso   1.00
H218   H     0.65612   0.16130   0.94137   0.00000  Uiso   1.00
H219   H     0.20872   0.18709   0.80953   0.00000  Uiso   1.00
H220   H     0.79956   0.24235   0.48315   0.00000  Uiso   1.00
H221   H     0.48483   0.11612   0.85801   0.00000  Uiso   1.00
O222   O     0.37282   0.14294   0.81066   0.00000  Uiso   1.00
O223   O     0.83601   0.21544   0.69442   0.00000  Uiso   1.00
O224   O     0.42309   0.04983   0.87426   0.00000  Uiso   1.00
N225   N     0.25530   0.11632   0.94236   0.00000  Uiso   1.00
N226   N     0.87279   0.16799   0.57215   0.00000  Uiso   1.00
N227   N     0.57852   0.04997   0.98773   0.00000  Uiso   1.00
N228   N     0.20550   0.16559   0.86037   0.00000  Uiso   1.00
N229   N     0.82299   0.21726   0.49016   0.00000  Uiso   1.00
N230   N     0.52872   0.09925   0.90574   0.00000  Uiso   1.00
C231   C     0.05601   0.90967   0.84668   0.00000  Uiso   1.00
C232   C     0.97251   0.90559   0.94343   0.00000  Uiso   1.00
C233   C     0.87658   0.92377   0.95096   0.00000  Uiso   1.00
C234   C     0.81110   0.91628   0.04623   0.00000  Uiso   1.00
C235   C     0.67694   0.91371   0.18355   0.00000  Uiso   1.00
C236   C     0.07214   0.87325   0.79493   0.00000  Uiso   1.00
C237   C     0.06000   0.86424   0.67760   0.00000  Uiso   1.00
C238   C     0.07840   0.82953   0.64787   0.00000  Uiso   1.00
C239   C     0.09899   0.77676   0.55463   0.00000  Uiso   1.00
C240   C     0.16057   0.91890   0.90847   0.00000  Uiso   1.00
C241   C     0.22280   0.94825   0.88657   0.00000  Uiso   1.00
C242   C     0.31567   0.95197   0.95241   0.00000  Uiso   1.00
C243   C     0.47356   0.97006   0.03544   0.00000  Uiso   1.00
C244   C     0.11029   0.86405   0.00251   0.00000  Uiso   1.00
C245   C     0.00199   0.88082   0.02807   0.00000  Uiso   1.00
C246   C     0.93664   0.87330   0.12336   0.00000  Uiso   1.00
C247   C     0.84064   0.89146   0.13103   0.00000  Uiso   1.00
C248   C     0.10162   0.84848   0.87957   0.00000  Uiso   1.00
C249   C     0.12005   0.81377   0.85000   0.00000  Uiso   1.00
C250   C     0.10793   0.80471   0.73266   0.00000  Uiso   1.00
C251   C     0.19005   0.89412   0.99311   0.00000  Uiso   1.00
C252   C     0.28285   0.89779   0.05898   0.00000  Uiso   1.00
C253   C     0.34521   0.92715   0.03720   0.00000  Uiso   1.00
H254   H     0.03305   0.92895   0.78078   0.00000  Uiso   1.00
H255   H     0.85379   0.94294   0.88543   0.00000  Uiso   1.00
H256   H     0.03719   0.88342   0.61212   0.00000  Uiso   1.00
H257   H     0.19996   0.96742   0.82107   0.00000  Uiso   1.00
H258   H     0.66803   0.94750   0.03875   0.00000  Uiso   1.00
H259   H     0.05476   0.82201   0.46246   0.00000  Uiso   1.00
H260   H     0.39800   0.99915   0.90306   0.00000  Uiso   1.00
H261   H     0.13325   0.84476   0.06841   0.00000  Uiso   1.00
H262   H     0.95948   0.85413   0.18885   0.00000  Uiso   1.00
H263   H     0.14287   0.79461   0.91553   0.00000  Uiso   1.00
H264   H     0.30564   0.87861   0.12447   0.00000  Uiso   1.00
H265   H     0.75381   0.87542   0.28501   0.00000  Uiso   1.00
H266   H     0.14055   0.74993   0.70871   0.00000  Uiso   1.00
H267   H     0.48378   0.92706   0.14931   0.00000  Uiso   1.00
O268   O     0.59478   0.91913   0.23590   0.00000  Uiso   1.00
O269   O     0.10219   0.75450   0.47981   0.00000  Uiso   1.00
O270   O     0.55250   0.98689   0.05788   0.00000  Uiso   1.00
N271   N     0.71207   0.92926   0.08020   0.00000  Uiso   1.00
N272   N     0.07363   0.81193   0.54139   0.00000  Uiso   1.00
N273   N     0.39455   0.97753   0.95330   0.00000  Uiso   1.00
N274   N     0.75823   0.89047   0.21271   0.00000  Uiso   1.00
N275   N     0.11979   0.77314   0.67390   0.00000  Uiso   1.00
N276   N     0.44070   0.93874   0.08581   0.00000  Uiso   1.00
C277   C     0.59339   0.89292   0.67457   0.00000  Uiso   1.00
C278   C     0.50947   0.87833   0.59052   0.00000  Uiso   1.00
C279   C     0.41116   0.89352   0.56554   0.00000  Uiso   1.00
C280   C     0.34570   0.87609   0.48624   0.00000  Uiso   1.00
C281   C     0.21053   0.85822   0.36375   0.00000  Uiso   1.00
C282   C     0.61488   0.86409   0.76410   0.00000  Uiso   1.00
C283   C     0.60521   0.86730   0.88506   0.00000  Uiso   1.00
C284   C     0.62849   0.83788   0.95187   0.00000  Uiso   1.00
C285   C     0.65704   0.79791   0.09887   0.00000  Uiso   1.00
C286   C     0.69596   0.89662   0.60302   0.00000  Uiso   1.00
C287   C     0.75449   0.92717   0.58857   0.00000  Uiso   1.00
C288   C     0.84607   0.92514   0.51978   0.00000  Uiso   1.00
C289   C     0.00051   0.93567   0.41667   0.00000  Uiso   1.00
C290   C     0.65196   0.83497   0.57815   0.00000  Uiso   1.00
C291   C     0.54129   0.84686   0.53816   0.00000  Uiso   1.00
C292   C     0.47596   0.82940   0.45886   0.00000  Uiso   1.00
C293   C     0.37757   0.84456   0.43377   0.00000  Uiso   1.00
C294   C     0.64669   0.83262   0.71173   0.00000  Uiso   1.00
C295   C     0.67001   0.80319   0.77838   0.00000  Uiso   1.00
C296   C     0.66037   0.80635   0.89941   0.00000  Uiso   1.00
C297   C     0.72778   0.86514   0.55064   0.00000  Uiso   1.00
C298   C     0.81929   0.86306   0.48188   0.00000  Uiso   1.00
C299   C     0.87794   0.89361   0.46732   0.00000  Uiso   1.00
H300   H     0.56863   0.91742   0.71535   0.00000  Uiso   1.00
H301   H     0.38657   0.91788   0.60610   0.00000  Uiso   1.00
H302   H     0.58060   0.89166   0.92556   0.00000  Uiso   1.00
H303   H     0.72985   0.95153   0.62911   0.00000  Uiso   1.00
H304   H     0.19873   0.90449   0.46191   0.00000  Uiso   1.00
H305   H     0.60788   0.84923   0.13552   0.00000  Uiso   1.00
H306   H     0.92262   0.97546   0.51039   0.00000  Uiso   1.00
H307   H     0.67673   0.81046   0.53738   0.00000  Uiso   1.00
H308   H     0.50060   0.80505   0.41835   0.00000  Uiso   1.00
H309   H     0.69463   0.77883   0.73782   0.00000  Uiso   1.00
H310   H     0.84388   0.83870   0.44137   0.00000  Uiso   1.00
H311   H     0.29128   0.81291   0.30953   0.00000  Uiso   1.00
H312   H     0.70044   0.75765   0.98315   0.00000  Uiso   1.00
H313   H     0.01517   0.88388   0.35801   0.00000  Uiso   1.00
O314   O     0.12718   0.85706   0.31066   0.00000  Uiso   1.00
O315   O     0.66399   0.78456   0.19442   0.00000  Uiso   1.00
O316   O     0.07691   0.95017   0.37426   0.00000  Uiso   1.00
N317   N     0.24470   0.88368   0.44236   0.00000  Uiso   1.00
N318   N     0.62721   0.83201   0.07215   0.00000  Uiso   1.00
N319   N     0.92148   0.95003   0.48773   0.00000  Uiso   1.00
N320   N     0.29450   0.83441   0.36037   0.00000  Uiso   1.00
N321   N     0.67701   0.78274   0.99016   0.00000  Uiso   1.00
N322   N     0.97128   0.90075   0.40574   0.00000  Uiso   1.00
C323   C     0.44399   0.09033   0.34668   0.00000  Uiso   1.00
C324   C     0.52749   0.09441   0.44343   0.00000  Uiso   1.00
C325   C     0.62342   0.07623   0.45096   0.00000  Uiso   1.00
C326   C     0.68890   0.08372   0.54623   0.00000  Uiso   1.00
C327   C     0.82306   0.08629   0.68355   0.00000  Uiso   1.00
C328   C     0.42786   0.12675   0.29493   0.00000  Uiso   1.00
C329   C     0.44000   0.13576   0.17760   0.00000  Uiso   1.00
C330   C     0.42160   0.17047   0.14787   0.00000  Uiso   1.00
C331   C     0.40101   0.22324   0.05463   0.00000  Uiso   1.00
C332   C     0.33943   0.08110   0.40847   0.00000  Uiso   1.00
C333   C     0.27720   0.05175   0.38657   0.00000  Uiso   1.00
C334   C     0.18433   0.04803   0.45241   0.00000  Uiso   1.00
C335   C     0.02644   0.02994   0.53544   0.00000  Uiso   1.00
C336   C     0.38971   0.13595   0.50251   0.00000  Uiso   1.00
C337   C     0.49801   0.11918   0.52807   0.00000  Uiso   1.00
C338   C     0.56336   0.12670   0.62336   0.00000  Uiso   1.00
C339   C     0.65936   0.10854   0.63103   0.00000  Uiso   1.00
C340   C     0.39838   0.15152   0.37957   0.00000  Uiso   1.00
C341   C     0.37995   0.18623   0.35000   0.00000  Uiso   1.00
C342   C     0.39207   0.19529   0.23266   0.00000  Uiso   1.00
C343   C     0.30995   0.10588   0.49311   0.00000  Uiso   1.00
C344   C     0.21715   0.10221   0.55898   0.00000  Uiso   1.00
C345   C     0.15479   0.07285   0.53720   0.00000  Uiso   1.00
H346   H     0.46695   0.07105   0.28078   0.00000  Uiso   1.00
H347   H     0.64621   0.05706   0.38543   0.00000  Uiso   1.00
H348   H     0.46281   0.11658   0.11212   0.00000  Uiso   1.00
H349   H     0.30004   0.03258   0.32107   0.00000  Uiso   1.00
H350   H     0.83197   0.05250   0.53875   0.00000  Uiso   1.00
H351   H     0.44524   0.17799   0.96246   0.00000  Uiso   1.00
H352   H     0.10200   0.00085   0.40306   0.00000  Uiso   1.00
H353   H     0.36675   0.15524   0.56841   0.00000  Uiso   1.00
H354   H     0.54052   0.14587   0.68885   0.00000  Uiso   1.00
H355   H     0.35713   0.20539   0.41553   0.00000  Uiso   1.00
H356   H     0.19436   0.12139   0.62447   0.00000  Uiso   1.00
H357   H     0.74619   0.12458   0.78501   0.00000  Uiso   1.00
H358   H     0.35945   0.25007   0.20871   0.00000  Uiso   1.00
H359   H     0.01622   0.07294   0.64931   0.00000  Uiso   1.00
O360   O     0.90522   0.08087   0.73590   0.00000  Uiso   1.00
O361   O     0.39781   0.24550   0.97981   0.00000  Uiso   1.00
O362   O     0.94750   0.01311   0.55788   0.00000  Uiso   1.00
N363   N     0.78793   0.07074   0.58020   0.00000  Uiso   1.00
N364   N     0.42637   0.18807   0.04139   0.00000  Uiso   1.00
N365   N     0.10545   0.02247   0.45330   0.00000  Uiso   1.00
N366   N     0.74177   0.10953   0.71271   0.00000  Uiso   1.00
N367   N     0.38021   0.22686   0.17390   0.00000  Uiso   1.00
N368   N     0.05930   0.06126   0.58581   0.00000  Uiso   1.00
