data_job_06786
_audit_creation_date              2018-12-19
_audit_creation_method            'Materials Studio'
_symmetry_space_group_name_H-M    'P1'
_symmetry_Int_Tables_number       1
_symmetry_cell_setting            triclinic
loop_
_symmetry_equiv_pos_as_xyz
  x,y,z
_cell_length_a                    19.1411
_cell_length_b                    20.8052
_cell_length_c                    20.1033
_cell_angle_alpha                 83.3513
_cell_angle_beta                  67.8622
_cell_angle_gamma                 78.8387
loop_
_atom_site_label
_atom_site_type_symbol
_atom_site_fract_x
_atom_site_fract_y
_atom_site_fract_z
_atom_site_U_iso_or_equiv
_atom_site_adp_type
_atom_site_occupancy
C1     C     0.57689   0.17913   0.30013   0.00000  Uiso   1.00
C2     C     0.55444   0.11688   0.34489   0.00000  Uiso   1.00
C3     C     0.60401   0.05916   0.34742   0.00000  Uiso   1.00
C4     C     0.57228   0.00777   0.39167   0.00000  Uiso   1.00
C5     C     0.54936   0.91017   0.45501   0.00000  Uiso   1.00
C6     C     0.52836   0.19445   0.25332   0.00000  Uiso   1.00
C7     C     0.55599   0.20195   0.17885   0.00000  Uiso   1.00
C8     C     0.50229   0.21586   0.14602   0.00000  Uiso   1.00
C9     C     0.43887   0.23873   0.06720   0.00000  Uiso   1.00
C10    C     0.54886   0.23383   0.35296   0.00000  Uiso   1.00
C11    C     0.59372   0.27447   0.36227   0.00000  Uiso   1.00
C12    C     0.55728   0.32155   0.41332   0.00000  Uiso   1.00
C13    C     0.52568   0.40557   0.48921   0.00000  Uiso   1.00
C14    C     0.43240   0.19049   0.37422   0.00000  Uiso   1.00
C15    C     0.47596   0.12305   0.38513   0.00000  Uiso   1.00
C16    C     0.44414   0.07173   0.42939   0.00000  Uiso   1.00
C17    C     0.49366   0.01395   0.43198   0.00000  Uiso   1.00
C18    C     0.44987   0.20062   0.29356   0.00000  Uiso   1.00
C19    C     0.39612   0.21452   0.26083   0.00000  Uiso   1.00
C20    C     0.42367   0.22204   0.18633   0.00000  Uiso   1.00
C21    C     0.47037   0.24000   0.39321   0.00000  Uiso   1.00
C22    C     0.43385   0.28703   0.44424   0.00000  Uiso   1.00
C23    C     0.47865   0.32773   0.45363   0.00000  Uiso   1.00
H24    H     0.63799   0.17432   0.26880   0.00000  Uiso   1.00
H25    H     0.66474   0.05440   0.31626   0.00000  Uiso   1.00
H26    H     0.61673   0.19718   0.14773   0.00000  Uiso   1.00
H27    H     0.65445   0.26968   0.33112   0.00000  Uiso   1.00
H28    H     0.65979   0.92417   0.38661   0.00000  Uiso   1.00
H29    H     0.55854   0.22524   0.03125   0.00000  Uiso   1.00
H30    H     0.63809   0.37812   0.41796   0.00000  Uiso   1.00
H31    H     0.37129   0.19529   0.40555   0.00000  Uiso   1.00
H32    H     0.38341   0.07652   0.46053   0.00000  Uiso   1.00
H33    H     0.33539   0.21930   0.29199   0.00000  Uiso   1.00
H34    H     0.37312   0.29180   0.47538   0.00000  Uiso   1.00
H35    H     0.43144   0.94212   0.50369   0.00000  Uiso   1.00
H36    H     0.33020   0.24319   0.14833   0.00000  Uiso   1.00
H37    H     0.40975   0.39607   0.53504   0.00000  Uiso   1.00
O38    O     0.55839   0.85462   0.47882   0.00000  Uiso   1.00
O39    O     0.42557   0.24963   0.01261   0.00000  Uiso   1.00
O40    O     0.52993   0.45020   0.51996   0.00000  Uiso   1.00
N41    N     0.60438   0.94469   0.40663   0.00000  Uiso   1.00
N42    N     0.50973   0.22617   0.07439   0.00000  Uiso   1.00
N43    N     0.58410   0.36911   0.43592   0.00000  Uiso   1.00
N44    N     0.48151   0.95435   0.46964   0.00000  Uiso   1.00
N45    N     0.38686   0.23583   0.13739   0.00000  Uiso   1.00
N46    N     0.46123   0.37877   0.49892   0.00000  Uiso   1.00
C47    C     0.22327   0.52769   0.23083   0.00000  Uiso   1.00
C48    C     0.25872   0.49999   0.15619   0.00000  Uiso   1.00
C49    C     0.24435   0.52805   0.09560   0.00000  Uiso   1.00
C50    C     0.28247   0.49510   0.03236   0.00000  Uiso   1.00
C51    C     0.32979   0.46103   0.91685   0.00000  Uiso   1.00
C52    C     0.18498   0.47374   0.28148   0.00000  Uiso   1.00
C53    C     0.10861   0.47973   0.32624   0.00000  Uiso   1.00
C54    C     0.08465   0.42468   0.36848   0.00000  Uiso   1.00
C55    C     0.01749   0.34987   0.44752   0.00000  Uiso   1.00
C56    C     0.29000   0.53504   0.25169   0.00000  Uiso   1.00
C57    C     0.30193   0.59257   0.27142   0.00000  Uiso   1.00
C58    C     0.36639   0.58913   0.28860   0.00000  Uiso   1.00
C59    C     0.46229   0.60951   0.32139   0.00000  Uiso   1.00
C60    C     0.31652   0.41928   0.22627   0.00000  Uiso   1.00
C61    C     0.30937   0.44111   0.15372   0.00000  Uiso   1.00
C62    C     0.34752   0.40811   0.09055   0.00000  Uiso   1.00
C63    C     0.33322   0.43611   0.02987   0.00000  Uiso   1.00
C64    C     0.23562   0.41485   0.27901   0.00000  Uiso   1.00
C65    C     0.21178   0.35978   0.32119   0.00000  Uiso   1.00
C66    C     0.13539   0.36569   0.36600   0.00000  Uiso   1.00
C67    C     0.34065   0.47616   0.24921   0.00000  Uiso   1.00
C68    C     0.40510   0.47263   0.26637   0.00000  Uiso   1.00
C69    C     0.41713   0.53014   0.28612   0.00000  Uiso   1.00
H70    H     0.18383   0.57353   0.23276   0.00000  Uiso   1.00
H71    H     0.20515   0.57362   0.09753   0.00000  Uiso   1.00
H72    H     0.06943   0.52530   0.32815   0.00000  Uiso   1.00
H73    H     0.26272   0.63813   0.27333   0.00000  Uiso   1.00
H74    H     0.25110   0.54773   0.94653   0.00000  Uiso   1.00
H75    H     0.96492   0.44587   0.43280   0.00000  Uiso   1.00
H76    H     0.37252   0.68379   0.31722   0.00000  Uiso   1.00
H77    H     0.35595   0.37343   0.22434   0.00000  Uiso   1.00
H78    H     0.38672   0.36254   0.08865   0.00000  Uiso   1.00
H79    H     0.25099   0.31423   0.31927   0.00000  Uiso   1.00
H80    H     0.44428   0.42705   0.26445   0.00000  Uiso   1.00
H81    H     0.39846   0.37641   0.93932   0.00000  Uiso   1.00
H82    H     0.11228   0.27455   0.42560   0.00000  Uiso   1.00
H83    H     0.51989   0.51247   0.31001   0.00000  Uiso   1.00
O84    O     0.34189   0.45850   0.85382   0.00000  Uiso   1.00
O85    O     0.96645   0.32487   0.49180   0.00000  Uiso   1.00
O86    O     0.50121   0.63701   0.34015   0.00000  Uiso   1.00
N87    N     0.28157   0.50891   0.96345   0.00000  Uiso   1.00
N88    N     0.01401   0.41367   0.41808   0.00000  Uiso   1.00
N89    N     0.39507   0.63610   0.31003   0.00000  Uiso   1.00
N90    N     0.36086   0.41673   0.95957   0.00000  Uiso   1.00
N91    N     0.09331   0.32149   0.41420   0.00000  Uiso   1.00
N92    N     0.47437   0.54392   0.30616   0.00000  Uiso   1.00
C93    C     0.14587   0.11499   0.66503   0.00000  Uiso   1.00
C94    C     0.05895   0.13162   0.69068   0.00000  Uiso   1.00
C95    C     0.00789   0.10410   0.75131   0.00000  Uiso   1.00
C96    C     0.93059   0.12587   0.76557   0.00000  Uiso   1.00
C97    C     0.79946   0.14442   0.81219   0.00000  Uiso   1.00
C98    C     0.17252   0.09370   0.58809   0.00000  Uiso   1.00
C99    C     0.21696   0.03431   0.56247   0.00000  Uiso   1.00
C100   C     0.23528   0.02416   0.49037   0.00000  Uiso   1.00
C101   C     0.28053   0.98386   0.37771   0.00000  Uiso   1.00
C102   C     0.17427   0.17968   0.65979   0.00000  Uiso   1.00
C103   C     0.22020   0.19258   0.69443   0.00000  Uiso   1.00
C104   C     0.24000   0.25482   0.68268   0.00000  Uiso   1.00
C105   C     0.28797   0.34802   0.68134   0.00000  Uiso   1.00
C106   C     0.09938   0.20258   0.58254   0.00000  Uiso   1.00
C107   C     0.03370   0.17919   0.64587   0.00000  Uiso   1.00
C108   C     0.95645   0.20101   0.66004   0.00000  Uiso   1.00
C109   C     0.90529   0.17353   0.72069   0.00000  Uiso   1.00
C110   C     0.14727   0.14127   0.54329   0.00000  Uiso   1.00
C111   C     0.16553   0.13121   0.47120   0.00000  Uiso   1.00
C112   C     0.20998   0.07182   0.44548   0.00000  Uiso   1.00
C113   C     0.14902   0.22726   0.61498   0.00000  Uiso   1.00
C114   C     0.16876   0.28949   0.60317   0.00000  Uiso   1.00
C115   C     0.21470   0.30248   0.63779   0.00000  Uiso   1.00
H116   H     0.16553   0.07795   0.69991   0.00000  Uiso   1.00
H117   H     0.02745   0.06728   0.78597   0.00000  Uiso   1.00
H118   H     0.23650   0.99750   0.59716   0.00000  Uiso   1.00
H119   H     0.23973   0.15575   0.72910   0.00000  Uiso   1.00
H120   H     0.86323   0.07641   0.86161   0.00000  Uiso   1.00
H121   H     0.30405   0.92929   0.46348   0.00000  Uiso   1.00
H122   H     0.31086   0.26298   0.74171   0.00000  Uiso   1.00
H123   H     0.07972   0.23962   0.54765   0.00000  Uiso   1.00
H124   H     0.93693   0.23783   0.62536   0.00000  Uiso   1.00
H125   H     0.14598   0.16804   0.43654   0.00000  Uiso   1.00
H126   H     0.14921   0.32629   0.56849   0.00000  Uiso   1.00
H127   H     0.78976   0.21483   0.73125   0.00000  Uiso   1.00
H128   H     0.23058   0.06770   0.33312   0.00000  Uiso   1.00
H129   H     0.23739   0.40140   0.61135   0.00000  Uiso   1.00
O130   O     0.73412   0.14150   0.85028   0.00000  Uiso   1.00
O131   O     0.31246   0.94849   0.32795   0.00000  Uiso   1.00
O132   O     0.32139   0.38629   0.69298   0.00000  Uiso   1.00
N133   N     0.86554   0.10925   0.82027   0.00000  Uiso   1.00
N134   N     0.27766   0.97169   0.44805   0.00000  Uiso   1.00
N135   N     0.28405   0.28366   0.70816   0.00000  Uiso   1.00
N136   N     0.82600   0.18373   0.75013   0.00000  Uiso   1.00
N137   N     0.23813   0.04617   0.37790   0.00000  Uiso   1.00
N138   N     0.24451   0.35814   0.63801   0.00000  Uiso   1.00
C139   C     0.08094   0.69135   0.67314   0.00000  Uiso   1.00
C140   C     0.07693   0.70340   0.59829   0.00000  Uiso   1.00
C141   C     0.13891   0.70569   0.53418   0.00000  Uiso   1.00
C142   C     0.12329   0.71729   0.47138   0.00000  Uiso   1.00
C143   C     0.12847   0.73459   0.35494   0.00000  Uiso   1.00
C144   C     0.04145   0.63219   0.70674   0.00000  Uiso   1.00
C145   C     0.07360   0.57462   0.73384   0.00000  Uiso   1.00
C146   C     0.02810   0.52628   0.76234   0.00000  Uiso   1.00
C147   C     0.97818   0.43305   0.81433   0.00000  Uiso   1.00
C148   C     0.02989   0.74978   0.71608   0.00000  Uiso   1.00
C149   C     0.05231   0.79107   0.75105   0.00000  Uiso   1.00
C150   C     0.99707   0.84173   0.78744   0.00000  Uiso   1.00
C151   C     0.92920   0.93108   0.85393   0.00000  Uiso   1.00
C152   C     0.94298   0.70787   0.67561   0.00000  Uiso   1.00
C153   C     0.00200   0.71237   0.59963   0.00000  Uiso   1.00
C154   C     0.98627   0.72397   0.53691   0.00000  Uiso   1.00
C155   C     0.04822   0.72628   0.47272   0.00000  Uiso   1.00
C156   C     0.96652   0.64116   0.70808   0.00000  Uiso   1.00
C157   C     0.92096   0.59290   0.73656   0.00000  Uiso   1.00
C158   C     0.95303   0.53527   0.76368   0.00000  Uiso   1.00
C159   C     0.95496   0.75876   0.71742   0.00000  Uiso   1.00
C160   C     0.89967   0.80935   0.75377   0.00000  Uiso   1.00
C161   C     0.92200   0.85072   0.78878   0.00000  Uiso   1.00
H162   H     0.13927   0.68436   0.67210   0.00000  Uiso   1.00
H163   H     0.19689   0.69874   0.53317   0.00000  Uiso   1.00
H164   H     0.13158   0.56769   0.73280   0.00000  Uiso   1.00
H165   H     0.11030   0.78411   0.75000   0.00000  Uiso   1.00
H166   H     0.22773   0.71861   0.37972   0.00000  Uiso   1.00
H167   H     0.09002   0.44230   0.80067   0.00000  Uiso   1.00
H168   H     0.04513   0.89867   0.83695   0.00000  Uiso   1.00
H169   H     0.88464   0.71486   0.67665   0.00000  Uiso   1.00
H170   H     0.92828   0.73091   0.53796   0.00000  Uiso   1.00
H171   H     0.86298   0.59986   0.73759   0.00000  Uiso   1.00
H172   H     0.84169   0.81628   0.75479   0.00000  Uiso   1.00
H173   H     0.00971   0.74472   0.38361   0.00000  Uiso   1.00
H174   H     0.87200   0.46841   0.80457   0.00000  Uiso   1.00
H175   H     0.82712   0.92478   0.84084   0.00000  Uiso   1.00
O176   O     0.15203   0.74165   0.29035   0.00000  Uiso   1.00
O177   O     0.97135   0.37915   0.84263   0.00000  Uiso   1.00
O178   O     0.91246   0.97789   0.89023   0.00000  Uiso   1.00
N179   N     0.17043   0.72256   0.39967   0.00000  Uiso   1.00
N180   N     0.04168   0.46422   0.79323   0.00000  Uiso   1.00
N181   N     0.99971   0.89088   0.82716   0.00000  Uiso   1.00
N182   N     0.05311   0.73661   0.40176   0.00000  Uiso   1.00
N183   N     0.92437   0.47827   0.79532   0.00000  Uiso   1.00
N184   N     0.88240   0.90493   0.82925   0.00000  Uiso   1.00
C185   C     0.71684   0.65244   0.04860   0.00000  Uiso   1.00
C186   C     0.72679   0.57813   0.06171   0.00000  Uiso   1.00
C187   C     0.69322   0.54477   0.12656   0.00000  Uiso   1.00
C188   C     0.70945   0.47675   0.12750   0.00000  Uiso   1.00
C189   C     0.71756   0.36645   0.15724   0.00000  Uiso   1.00
C190   C     0.68724   0.66719   0.98695   0.00000  Uiso   1.00
C191   C     0.62041   0.70873   0.98894   0.00000  Uiso   1.00
C192   C     0.60335   0.71569   0.92694   0.00000  Uiso   1.00
C193   C     0.55007   0.74369   0.84059   0.00000  Uiso   1.00
C194   C     0.79715   0.66986   0.01926   0.00000  Uiso   1.00
C195   C     0.82274   0.71365   0.04841   0.00000  Uiso   1.00
C196   C     0.89822   0.72286   0.01361   0.00000  Uiso   1.00
C197   C     0.01560   0.75501   0.97743   0.00000  Uiso   1.00
C198   C     0.80537   0.59095   0.93495   0.00000  Uiso   1.00
C199   C     0.77488   0.54473   0.99998   0.00000  Uiso   1.00
C200   C     0.79117   0.47674   0.00082   0.00000  Uiso   1.00
C201   C     0.75763   0.44329   0.06566   0.00000  Uiso   1.00
C202   C     0.73532   0.63380   0.92522   0.00000  Uiso   1.00
C203   C     0.71836   0.64070   0.86320   0.00000  Uiso   1.00
C204   C     0.65152   0.68223   0.86510   0.00000  Uiso   1.00
C205   C     0.84524   0.63646   0.95753   0.00000  Uiso   1.00
C206   C     0.92069   0.64561   0.92267   0.00000  Uiso   1.00
C207   C     0.94639   0.68941   0.95176   0.00000  Uiso   1.00
H208   H     0.67940   0.67844   0.09666   0.00000  Uiso   1.00
H209   H     0.65600   0.57064   0.17432   0.00000  Uiso   1.00
H210   H     0.58321   0.73457   0.03671   0.00000  Uiso   1.00
H211   H     0.78551   0.73948   0.09618   0.00000  Uiso   1.00
H212   H     0.65125   0.43639   0.23319   0.00000  Uiso   1.00
H213   H     0.49777   0.78207   0.94304   0.00000  Uiso   1.00
H214   H     0.92436   0.79243   0.06843   0.00000  Uiso   1.00
H215   H     0.84281   0.56495   0.88689   0.00000  Uiso   1.00
H216   H     0.82838   0.45091   0.95304   0.00000  Uiso   1.00
H217   H     0.75559   0.61485   0.81544   0.00000  Uiso   1.00
H218   H     0.95789   0.61976   0.87491   0.00000  Uiso   1.00
H219   H     0.79115   0.33921   0.05359   0.00000  Uiso   1.00
H220   H     0.63768   0.68490   0.76344   0.00000  Uiso   1.00
H221   H     0.06427   0.69526   0.88884   0.00000  Uiso   1.00
O222   O     0.70874   0.31483   0.19069   0.00000  Uiso   1.00
O223   O     0.50740   0.76836   0.81001   0.00000  Uiso   1.00
O224   O     0.06707   0.78196   0.97453   0.00000  Uiso   1.00
N225   N     0.68617   0.42917   0.18185   0.00000  Uiso   1.00
N226   N     0.54267   0.75235   0.91057   0.00000  Uiso   1.00
N227   N     0.94149   0.76205   0.02780   0.00000  Uiso   1.00
N228   N     0.76145   0.37688   0.08521   0.00000  Uiso   1.00
N229   N     0.61795   0.70006   0.81394   0.00000  Uiso   1.00
N230   N     0.01677   0.70977   0.93116   0.00000  Uiso   1.00
C231   C     0.64511   0.02211   0.82500   0.00000  Uiso   1.00
C232   C     0.56366   0.01915   0.83191   0.00000  Uiso   1.00
C233   C     0.50931   0.07255   0.82734   0.00000  Uiso   1.00
C234   C     0.43810   0.05959   0.83510   0.00000  Uiso   1.00
C235   C     0.31410   0.06475   0.84399   0.00000  Uiso   1.00
C236   C     0.69735   0.97762   0.76439   0.00000  Uiso   1.00
C237   C     0.75542   0.99611   0.70306   0.00000  Uiso   1.00
C238   C     0.79676   0.94818   0.65398   0.00000  Uiso   1.00
C239   C     0.88036   0.88886   0.55808   0.00000  Uiso   1.00
C240   C     0.65387   0.98869   0.89368   0.00000  Uiso   1.00
C241   C     0.67540   0.01647   0.94105   0.00000  Uiso   1.00
C242   C     0.68015   0.97785   0.00082   0.00000  Uiso   1.00
C243   C     0.69625   0.93570   0.10565   0.00000  Uiso   1.00
C244   C     0.61528   0.90413   0.84689   0.00000  Uiso   1.00
C245   C     0.54746   0.95507   0.84380   0.00000  Uiso   1.00
C246   C     0.47631   0.94202   0.85156   0.00000  Uiso   1.00
C247   C     0.42186   0.99540   0.84701   0.00000  Uiso   1.00
C248   C     0.68116   0.91354   0.77628   0.00000  Uiso   1.00
C249   C     0.72242   0.86558   0.72728   0.00000  Uiso   1.00
C250   C     0.78053   0.88398   0.66590   0.00000  Uiso   1.00
C251   C     0.63767   0.92461   0.90557   0.00000  Uiso   1.00
C252   C     0.64240   0.88594   0.96527   0.00000  Uiso   1.00
C253   C     0.66392   0.91365   0.01273   0.00000  Uiso   1.00
H254   H     0.65773   0.07199   0.81573   0.00000  Uiso   1.00
H255   H     0.52187   0.12214   0.81813   0.00000  Uiso   1.00
H256   H     0.76795   0.04570   0.69388   0.00000  Uiso   1.00
H257   H     0.68794   0.06606   0.93183   0.00000  Uiso   1.00
H258   H     0.36412   0.14947   0.82601   0.00000  Uiso   1.00
H259   H     0.88300   0.98829   0.56403   0.00000  Uiso   1.00
H260   H     0.71428   0.03122   0.06579   0.00000  Uiso   1.00
H261   H     0.60267   0.85423   0.85614   0.00000  Uiso   1.00
H262   H     0.46379   0.89243   0.86076   0.00000  Uiso   1.00
H263   H     0.70987   0.81599   0.73651   0.00000  Uiso   1.00
H264   H     0.62986   0.83635   0.97446   0.00000  Uiso   1.00
H265   H     0.31698   0.96303   0.86061   0.00000  Uiso   1.00
H266   H     0.83586   0.80185   0.59862   0.00000  Uiso   1.00
H267   H     0.66714   0.84478   0.10039   0.00000  Uiso   1.00
O268   O     0.25019   0.08530   0.84560   0.00000  Uiso   1.00
O269   O     0.93095   0.87384   0.50189   0.00000  Uiso   1.00
O270   O     0.70959   0.93016   0.16019   0.00000  Uiso   1.00
N271   N     0.37208   0.10035   0.83353   0.00000  Uiso   1.00
N272   N     0.85719   0.94966   0.58859   0.00000  Uiso   1.00
N273   N     0.69948   0.98979   0.05769   0.00000  Uiso   1.00
N274   N     0.34671   0.00003   0.85215   0.00000  Uiso   1.00
N275   N     0.83183   0.84934   0.60720   0.00000  Uiso   1.00
N276   N     0.67411   0.88946   0.07630   0.00000  Uiso   1.00
C277   C     0.28486   0.88193   0.67830   0.00000  Uiso   1.00
C278   C     0.34493   0.92479   0.66727   0.00000  Uiso   1.00
C279   C     0.33074   0.99196   0.67538   0.00000  Uiso   1.00
C280   C     0.39344   0.02220   0.66285   0.00000  Uiso   1.00
C281   C     0.47543   0.09417   0.64879   0.00000  Uiso   1.00
C282   C     0.29398   0.82835   0.73436   0.00000  Uiso   1.00
C283   C     0.23693   0.81444   0.79887   0.00000  Uiso   1.00
C284   C     0.25674   0.76349   0.84282   0.00000  Uiso   1.00
C285   C     0.25961   0.68571   0.93289   0.00000  Uiso   1.00
C286   C     0.30927   0.84760   0.60814   0.00000  Uiso   1.00
C287   C     0.26508   0.84986   0.56653   0.00000  Uiso   1.00
C288   C     0.29777   0.81510   0.50421   0.00000  Uiso   1.00
C289   C     0.32438   0.76721   0.39830   0.00000  Uiso   1.00
C290   C     0.42146   0.81619   0.64162   0.00000  Uiso   1.00
C291   C     0.41913   0.88907   0.64735   0.00000  Uiso   1.00
C292   C     0.48187   0.91922   0.63480   0.00000  Uiso   1.00
C293   C     0.46777   0.98642   0.64289   0.00000  Uiso   1.00
C294   C     0.36817   0.79264   0.71444   0.00000  Uiso   1.00
C295   C     0.38807   0.74170   0.75830   0.00000  Uiso   1.00
C296   C     0.33107   0.72771   0.82286   0.00000  Uiso   1.00
C297   C     0.38347   0.81189   0.58821   0.00000  Uiso   1.00
C298   C     0.41622   0.77712   0.52595   0.00000  Uiso   1.00
C299   C     0.37210   0.77933   0.48425   0.00000  Uiso   1.00
H300   H     0.22709   0.90973   0.69381   0.00000  Uiso   1.00
H301   H     0.27331   0.01958   0.69080   0.00000  Uiso   1.00
H302   H     0.17952   0.84208   0.81427   0.00000  Uiso   1.00
H303   H     0.20767   0.87750   0.58196   0.00000  Uiso   1.00
H304   H     0.35727   0.12561   0.67871   0.00000  Uiso   1.00
H305   H     0.15950   0.75133   0.93904   0.00000  Uiso   1.00
H306   H     0.21886   0.82601   0.44917   0.00000  Uiso   1.00
H307   H     0.47923   0.78838   0.62611   0.00000  Uiso   1.00
H308   H     0.53929   0.89157   0.61939   0.00000  Uiso   1.00
H309   H     0.44549   0.71407   0.74286   0.00000  Uiso   1.00
H310   H     0.47364   0.74949   0.51055   0.00000  Uiso   1.00
H311   H     0.57314   0.02171   0.62075   0.00000  Uiso   1.00
H312   H     0.37537   0.64743   0.88108   0.00000  Uiso   1.00
H313   H     0.43473   0.72212   0.39121   0.00000  Uiso   1.00
O314   O     0.50016   0.14373   0.64655   0.00000  Uiso   1.00
O315   O     0.24069   0.65268   0.98809   0.00000  Uiso   1.00
O316   O     0.31857   0.75067   0.34539   0.00000  Uiso   1.00
N317   N     0.39983   0.08700   0.66598   0.00000  Uiso   1.00
N318   N     0.21493   0.73708   0.90938   0.00000  Uiso   1.00
N319   N     0.27042   0.80689   0.45140   0.00000  Uiso   1.00
N320   N     0.51600   0.03109   0.63479   0.00000  Uiso   1.00
N321   N     0.33110   0.68117   0.87819   0.00000  Uiso   1.00
N322   N     0.38658   0.75098   0.42021   0.00000  Uiso   1.00
C323   C     0.63203   0.36594   0.89070   0.00000  Uiso   1.00
C324   C     0.59758   0.43068   0.92788   0.00000  Uiso   1.00
C325   C     0.58438   0.44063   0.99898   0.00000  Uiso   1.00
C326   C     0.55244   0.50347   0.02281   0.00000  Uiso   1.00
C327   C     0.50174   0.59624   0.08747   0.00000  Uiso   1.00
C328   C     0.70159   0.37973   0.82528   0.00000  Uiso   1.00
C329   C     0.77583   0.34683   0.81012   0.00000  Uiso   1.00
C330   C     0.83144   0.36678   0.74758   0.00000  Uiso   1.00
C331   C     0.94220   0.38042   0.65294   0.00000  Uiso   1.00
C332   C     0.57413   0.35177   0.86128   0.00000  Uiso   1.00
C333   C     0.54122   0.29536   0.87638   0.00000  Uiso   1.00
C334   C     0.48954   0.29177   0.84413   0.00000  Uiso   1.00
C335   C     0.40241   0.26200   0.80539   0.00000  Uiso   1.00
C336   C     0.59878   0.45986   0.80657   0.00000  Uiso   1.00
C337   C     0.57953   0.48169   0.88218   0.00000  Uiso   1.00
C338   C     0.54759   0.54454   0.90591   0.00000  Uiso   1.00
C339   C     0.53435   0.55458   0.97703   0.00000  Uiso   1.00
C340   C     0.68353   0.43074   0.77959   0.00000  Uiso   1.00
C341   C     0.73904   0.45074   0.71705   0.00000  Uiso   1.00
C342   C     0.81335   0.41789   0.70180   0.00000  Uiso   1.00
C343   C     0.55607   0.40278   0.81559   0.00000  Uiso   1.00
C344   C     0.50443   0.39927   0.78331   0.00000  Uiso   1.00
C345   C     0.47145   0.34287   0.79835   0.00000  Uiso   1.00
H346   H     0.64609   0.32622   0.92627   0.00000  Uiso   1.00
H347   H     0.59837   0.40114   0.03432   0.00000  Uiso   1.00
H348   H     0.78979   0.30735   0.84549   0.00000  Uiso   1.00
H349   H     0.55521   0.25590   0.91174   0.00000  Uiso   1.00
H350   H     0.53753   0.50670   0.13396   0.00000  Uiso   1.00
H351   H     0.94113   0.30893   0.73579   0.00000  Uiso   1.00
H352   H     0.44649   0.20042   0.87548   0.00000  Uiso   1.00
H353   H     0.58472   0.49957   0.77100   0.00000  Uiso   1.00
H354   H     0.53363   0.58400   0.87053   0.00000  Uiso   1.00
H355   H     0.72505   0.49022   0.68170   0.00000  Uiso   1.00
H356   H     0.49047   0.43876   0.74795   0.00000  Uiso   1.00
H357   H     0.48498   0.65512   0.00102   0.00000  Uiso   1.00
H358   H     0.88859   0.45735   0.60285   0.00000  Uiso   1.00
H359   H     0.39394   0.34884   0.74255   0.00000  Uiso   1.00
O360   O     0.47877   0.63333   0.13576   0.00000  Uiso   1.00
O361   O     0.00829   0.37386   0.61337   0.00000  Uiso   1.00
O362   O     0.35932   0.23149   0.79665   0.00000  Uiso   1.00
N363   N     0.53216   0.53004   0.08902   0.00000  Uiso   1.00
N364   N     0.90951   0.34515   0.71676   0.00000  Uiso   1.00
N365   N     0.44707   0.24369   0.84734   0.00000  Uiso   1.00
N366   N     0.50388   0.60990   0.01749   0.00000  Uiso   1.00
N367   N     0.88123   0.42501   0.64523   0.00000  Uiso   1.00
N368   N     0.41880   0.32355   0.77581   0.00000  Uiso   1.00
C369   C     0.85246   0.67404   0.40523   0.00000  Uiso   1.00
C370   C     0.89818   0.63352   0.44791   0.00000  Uiso   1.00
C371   C     0.97706   0.61543   0.42312   0.00000  Uiso   1.00
C372   C     0.00796   0.57833   0.47043   0.00000  Uiso   1.00
C373   C     0.08600   0.51822   0.52614   0.00000  Uiso   1.00
C374   C     0.80603   0.73282   0.44995   0.00000  Uiso   1.00
C375   C     0.80743   0.79823   0.42688   0.00000  Uiso   1.00
C376   C     0.76076   0.84472   0.47591   0.00000  Uiso   1.00
C377   C     0.69570   0.93878   0.53476   0.00000  Uiso   1.00
C378   C     0.79467   0.63268   0.40560   0.00000  Uiso   1.00
C379   C     0.78650   0.61389   0.34524   0.00000  Uiso   1.00
C380   C     0.73025   0.57608   0.35693   0.00000  Uiso   1.00
C381   C     0.64755   0.51465   0.34693   0.00000  Uiso   1.00
C382   C     0.76708   0.64031   0.53331   0.00000  Uiso   1.00
C383   C     0.85180   0.61520   0.51748   0.00000  Uiso   1.00
C384   C     0.88259   0.57811   0.56484   0.00000  Uiso   1.00
C385   C     0.96151   0.55997   0.54013   0.00000  Uiso   1.00
C386   C     0.75966   0.71450   0.51952   0.00000  Uiso   1.00
C387   C     0.71297   0.76091   0.56859   0.00000  Uiso   1.00
C388   C     0.71430   0.82637   0.54560   0.00000  Uiso   1.00
C389   C     0.74830   0.61435   0.47517   0.00000  Uiso   1.00
C390   C     0.69204   0.57657   0.48696   0.00000  Uiso   1.00
C391   C     0.68379   0.55773   0.42663   0.00000  Uiso   1.00
H392   H     0.88857   0.68831   0.35106   0.00000  Uiso   1.00
H393   H     0.01293   0.62962   0.36928   0.00000  Uiso   1.00
H394   H     0.84332   0.81239   0.37303   0.00000  Uiso   1.00
H395   H     0.82239   0.62808   0.29141   0.00000  Uiso   1.00
H396   H     0.13035   0.55650   0.42017   0.00000  Uiso   1.00
H397   H     0.77271   0.94187   0.42807   0.00000  Uiso   1.00
H398   H     0.72858   0.55322   0.25596   0.00000  Uiso   1.00
H399   H     0.73098   0.62605   0.58748   0.00000  Uiso   1.00
H400   H     0.84669   0.56394   0.61867   0.00000  Uiso   1.00
H401   H     0.67709   0.74671   0.62242   0.00000  Uiso   1.00
H402   H     0.65616   0.56240   0.54080   0.00000  Uiso   1.00
H403   H     0.99543   0.50319   0.62259   0.00000  Uiso   1.00
H404   H     0.63779   0.88857   0.63049   0.00000  Uiso   1.00
H405   H     0.59366   0.49991   0.45838   0.00000  Uiso   1.00
O406   O     0.14186   0.49013   0.53764   0.00000  Uiso   1.00
O407   O     0.67264   0.99573   0.54800   0.00000  Uiso   1.00
O408   O     0.61475   0.48582   0.32220   0.00000  Uiso   1.00
N409   N     0.08272   0.55247   0.46353   0.00000  Uiso   1.00
N410   N     0.74835   0.91277   0.47092   0.00000  Uiso   1.00
N411   N     0.70708   0.54942   0.31001   0.00000  Uiso   1.00
N412   N     0.01012   0.52378   0.57244   0.00000  Uiso   1.00
N413   N     0.67576   0.88408   0.57983   0.00000  Uiso   1.00
N414   N     0.63448   0.52074   0.41892   0.00000  Uiso   1.00
C415   C     0.81973   0.26588   0.30979   0.00000  Uiso   1.00
C416   C     0.81445   0.24409   0.38638   0.00000  Uiso   1.00
C417   C     0.74736   0.24255   0.44573   0.00000  Uiso   1.00
C418   C     0.75466   0.22107   0.51116   0.00000  Uiso   1.00
C419   C     0.73553   0.19018   0.62921   0.00000  Uiso   1.00
C420   C     0.86773   0.32076   0.28695   0.00000  Uiso   1.00
C421   C     0.84544   0.38368   0.26268   0.00000  Uiso   1.00
C422   C     0.89760   0.42673   0.24440   0.00000  Uiso   1.00
C423   C     0.96122   0.51487   0.20803   0.00000  Uiso   1.00
C424   C     0.86764   0.20854   0.26334   0.00000  Uiso   1.00
C425   C     0.84529   0.17711   0.21922   0.00000  Uiso   1.00
C426   C     0.89739   0.12569   0.18105   0.00000  Uiso   1.00
C427   C     0.96086   0.03959   0.10803   0.00000  Uiso   1.00
C428   C     0.95199   0.23047   0.32044   0.00000  Uiso   1.00
C429   C     0.88629   0.22486   0.39217   0.00000  Uiso   1.00
C430   C     0.89369   0.20337   0.45752   0.00000  Uiso   1.00
C431   C     0.82663   0.20180   0.51696   0.00000  Uiso   1.00
C432   C     0.93956   0.30153   0.29273   0.00000  Uiso   1.00
C433   C     0.99177   0.34450   0.27448   0.00000  Uiso   1.00
C434   C     0.96957   0.40747   0.25020   0.00000  Uiso   1.00
C435   C     0.93948   0.18930   0.26913   0.00000  Uiso   1.00
C436   C     0.99162   0.13793   0.23101   0.00000  Uiso   1.00
C437   C     0.96935   0.10642   0.18685   0.00000  Uiso   1.00
H438   H     0.76380   0.28086   0.30528   0.00000  Uiso   1.00
H439   H     0.69178   0.25744   0.44123   0.00000  Uiso   1.00
H440   H     0.78985   0.39854   0.25820   0.00000  Uiso   1.00
H441   H     0.78970   0.19200   0.21475   0.00000  Uiso   1.00
H442   H     0.64361   0.22302   0.59451   0.00000  Uiso   1.00
H443   H     0.85041   0.52054   0.20857   0.00000  Uiso   1.00
H444   H     0.85009   0.08501   0.11694   0.00000  Uiso   1.00
H445   H     0.00792   0.21550   0.32495   0.00000  Uiso   1.00
H446   H     0.94929   0.18849   0.46199   0.00000  Uiso   1.00
H447   H     0.04736   0.32960   0.27896   0.00000  Uiso   1.00
H448   H     0.04720   0.12306   0.23551   0.00000  Uiso   1.00
H449   H     0.85261   0.16706   0.61136   0.00000  Uiso   1.00
H450   H     0.05941   0.46458   0.22542   0.00000  Uiso   1.00
H451   H     0.05909   0.02905   0.13379   0.00000  Uiso   1.00
O452   O     0.70514   0.17847   0.69273   0.00000  Uiso   1.00
O453   O     0.97646   0.56880   0.18638   0.00000  Uiso   1.00
O454   O     0.97603   0.99740   0.06616   0.00000  Uiso   1.00
N455   N     0.70084   0.21354   0.57967   0.00000  Uiso   1.00
N456   N     0.89418   0.49171   0.21885   0.00000  Uiso   1.00
N457   N     0.89389   0.08454   0.13316   0.00000  Uiso   1.00
N458   N     0.81331   0.18343   0.58874   0.00000  Uiso   1.00
N459   N     0.00665   0.46160   0.22792   0.00000  Uiso   1.00
N460   N     0.00635   0.05443   0.14223   0.00000  Uiso   1.00
C461   C     0.13305   0.27021   0.94619   0.00000  Uiso   1.00
C462   C     0.12764   0.34444   0.94439   0.00000  Uiso   1.00
C463   C     0.16156   0.38373   0.88454   0.00000  Uiso   1.00
C464   C     0.14980   0.45056   0.89396   0.00000  Uiso   1.00
C465   C     0.14815   0.56179   0.88100   0.00000  Uiso   1.00
C466   C     0.16493   0.24255   0.00452   0.00000  Uiso   1.00
C467   C     0.23019   0.19617   0.99523   0.00000  Uiso   1.00
C468   C     0.24983   0.17722   0.05527   0.00000  Uiso   1.00
C469   C     0.30603   0.13023   0.13567   0.00000  Uiso   1.00
C470   C     0.05094   0.25709   0.97406   0.00000  Uiso   1.00
C471   C     0.02037   0.22290   0.93918   0.00000  Uiso   1.00
C472   C     0.94404   0.21618   0.97358   0.00000  Uiso   1.00
C473   C     0.82326   0.19176   0.00669   0.00000  Uiso   1.00
C474   C     0.05186   0.31904   0.06934   0.00000  Uiso   1.00
C475   C     0.08354   0.37097   0.01128   0.00000  Uiso   1.00
C476   C     0.07173   0.43776   0.02079   0.00000  Uiso   1.00
C477   C     0.10562   0.47713   0.96097   0.00000  Uiso   1.00
C478   C     0.12083   0.26908   0.07140   0.00000  Uiso   1.00
C479   C     0.14037   0.25020   0.13147   0.00000  Uiso   1.00
C480   C     0.20565   0.20379   0.12228   0.00000  Uiso   1.00
C481   C     0.00684   0.28361   0.04095   0.00000  Uiso   1.00
C482   C     0.93054   0.27694   0.07542   0.00000  Uiso   1.00
C483   C     0.89986   0.24276   0.04059   0.00000  Uiso   1.00
H484   H     0.16738   0.24955   0.89412   0.00000  Uiso   1.00
H485   H     0.19569   0.36318   0.83279   0.00000  Uiso   1.00
H486   H     0.26431   0.17564   0.94346   0.00000  Uiso   1.00
H487   H     0.05452   0.20238   0.88742   0.00000  Uiso   1.00
H488   H     0.20764   0.50085   0.79430   0.00000  Uiso   1.00
H489   H     0.35231   0.10540   0.02767   0.00000  Uiso   1.00
H490   H     0.90993   0.16179   0.90948   0.00000  Uiso   1.00
H491   H     0.01752   0.33969   0.12141   0.00000  Uiso   1.00
H492   H     0.03760   0.45827   0.07256   0.00000  Uiso   1.00
H493   H     0.10623   0.27073   0.18323   0.00000  Uiso   1.00
H494   H     0.89643   0.29747   0.12718   0.00000  Uiso   1.00
H495   H     0.07934   0.57803   0.98890   0.00000  Uiso   1.00
H496   H     0.22401   0.18258   0.22227   0.00000  Uiso   1.00
H497   H     0.78163   0.23896   0.10408   0.00000  Uiso   1.00
O498   O     0.15942   0.61581   0.85537   0.00000  Uiso   1.00
O499   O     0.34922   0.09699   0.16153   0.00000  Uiso   1.00
O500   O     0.76882   0.17097   0.00647   0.00000  Uiso   1.00
N501   N     0.17468   0.50274   0.84680   0.00000  Uiso   1.00
N502   N     0.30995   0.13303   0.06498   0.00000  Uiso   1.00
N503   N     0.89636   0.18573   0.95449   0.00000  Uiso   1.00
N504   N     0.10564   0.54427   0.95152   0.00000  Uiso   1.00
N505   N     0.24091   0.17456   0.16969   0.00000  Uiso   1.00
N506   N     0.82732   0.22726   0.05921   0.00000  Uiso   1.00
C507   C     0.19262   0.86902   0.18509   0.00000  Uiso   1.00
C508   C     0.27694   0.86613   0.17213   0.00000  Uiso   1.00
C509   C     0.32759   0.81003   0.17752   0.00000  Uiso   1.00
C510   C     0.40236   0.81766   0.16357   0.00000  Uiso   1.00
C511   C     0.52975   0.80382   0.14633   0.00000  Uiso   1.00
C512   C     0.14859   0.91838   0.24308   0.00000  Uiso   1.00
C513   C     0.09133   0.90620   0.30813   0.00000  Uiso   1.00
C514   C     0.05806   0.95781   0.35390   0.00000  Uiso   1.00
C515   C     0.98614   0.02509   0.44678   0.00000  Uiso   1.00
C516   C     0.18161   0.90021   0.11651   0.00000  Uiso   1.00
C517   C     0.15208   0.87278   0.07514   0.00000  Uiso   1.00
C518   C     0.14659   0.90911   0.01435   0.00000  Uiso   1.00
C519   C     0.12595   0.94819   0.91071   0.00000  Uiso   1.00
C520   C     0.23535   0.98234   0.15071   0.00000  Uiso   1.00
C521   C     0.30015   0.92768   0.15346   0.00000  Uiso   1.00
C522   C     0.37487   0.93540   0.13949   0.00000  Uiso   1.00
C523   C     0.42562   0.87932   0.14487   0.00000  Uiso   1.00
C524   C     0.17180   0.97992   0.22441   0.00000  Uiso   1.00
C525   C     0.13860   0.03157   0.27010   0.00000  Uiso   1.00
C526   C     0.08131   0.01947   0.33520   0.00000  Uiso   1.00
C527   C     0.20482   0.96176   0.09783   0.00000  Uiso   1.00
C528   C     0.19937   0.99815   0.03710   0.00000  Uiso   1.00
C529   C     0.16984   0.97077   0.99565   0.00000  Uiso   1.00
H530   H     0.17455   0.82111   0.19963   0.00000  Uiso   1.00
H531   H     0.30960   0.76241   0.19198   0.00000  Uiso   1.00
H532   H     0.07337   0.85857   0.32256   0.00000  Uiso   1.00
H533   H     0.13413   0.82515   0.08960   0.00000  Uiso   1.00
H534   H     0.46957   0.72448   0.17530   0.00000  Uiso   1.00
H535   H     0.97145   0.92724   0.45061   0.00000  Uiso   1.00
H536   H     0.09956   0.85677   0.95938   0.00000  Uiso   1.00
H537   H     0.25342   0.03026   0.13618   0.00000  Uiso   1.00
H538   H     0.39281   0.98303   0.12505   0.00000  Uiso   1.00
H539   H     0.15658   0.07919   0.25563   0.00000  Uiso   1.00
H540   H     0.21733   0.04577   0.02267   0.00000  Uiso   1.00
H541   H     0.53710   0.90355   0.12097   0.00000  Uiso   1.00
H542   H     0.03897   0.10630   0.39629   0.00000  Uiso   1.00
H543   H     0.16709   0.03584   0.90506   0.00000  Uiso   1.00
O544   O     0.59360   0.77918   0.14198   0.00000  Uiso   1.00
O545   O     0.94007   0.04519   0.50318   0.00000  Uiso   1.00
O546   O     0.10816   0.95274   0.85869   0.00000  Uiso   1.00
N547   N     0.46633   0.77310   0.16402   0.00000  Uiso   1.00
N548   N     0.00063   0.96266   0.42143   0.00000  Uiso   1.00
N549   N     0.12038   0.89679   0.96218   0.00000  Uiso   1.00
N550   N     0.50267   0.86946   0.13479   0.00000  Uiso   1.00
N551   N     0.03697   0.05902   0.39220   0.00000  Uiso   1.00
N552   N     0.15672   0.99314   0.93295   0.00000  Uiso   1.00
