data_job_05669
_audit_creation_date              2018-12-19
_audit_creation_method            'Materials Studio'
_symmetry_space_group_name_H-M    'P1'
_symmetry_Int_Tables_number       1
_symmetry_cell_setting            triclinic
loop_
_symmetry_equiv_pos_as_xyz
  x,y,z
_cell_length_a                    14.4223
_cell_length_b                    10.7021
_cell_length_c                    16.3490
_cell_angle_alpha                 89.9738
_cell_angle_beta                  67.4056
_cell_angle_gamma                 89.9331
loop_
_atom_site_label
_atom_site_type_symbol
_atom_site_fract_x
_atom_site_fract_y
_atom_site_fract_z
_atom_site_U_iso_or_equiv
_atom_site_adp_type
_atom_site_occupancy
C1     C     0.66338   0.46403   0.24413   0.00000  Uiso   1.00
C2     C     0.74382   0.39830   0.16626   0.00000  Uiso   1.00
C3     C     0.72936   0.34305   0.09530   0.00000  Uiso   1.00
C4     C     0.81246   0.28768   0.03078   0.00000  Uiso   1.00
C5     C     0.92303   0.18556   0.90894   0.00000  Uiso   1.00
C6     C     0.66221   0.39829   0.32729   0.00000  Uiso   1.00
C7     C     0.57912   0.34306   0.39173   0.00000  Uiso   1.00
C8     C     0.59352   0.28770   0.46278   0.00000  Uiso   1.00
C9     C     0.57736   0.18566   0.59097   0.00000  Uiso   1.00
C10    C     0.70288   0.59544   0.24679   0.00000  Uiso   1.00
C11    C     0.65399   0.70598   0.24356   0.00000  Uiso   1.00
C12    C     0.70263   0.81661   0.24686   0.00000  Uiso   1.00
C13    C     0.74963   0.02067   0.25006   0.00000  Uiso   1.00
C14    C     0.83668   0.46395   0.25574   0.00000  Uiso   1.00
C15    C     0.83795   0.39825   0.17258   0.00000  Uiso   1.00
C16    C     0.92110   0.34296   0.10815   0.00000  Uiso   1.00
C17    C     0.90676   0.28764   0.03710   0.00000  Uiso   1.00
C18    C     0.75633   0.39825   0.33360   0.00000  Uiso   1.00
C19    C     0.77085   0.34297   0.40458   0.00000  Uiso   1.00
C20    C     0.68782   0.28766   0.46910   0.00000  Uiso   1.00
C21    C     0.79701   0.59540   0.25310   0.00000  Uiso   1.00
C22    C     0.84573   0.70588   0.25641   0.00000  Uiso   1.00
C23    C     0.79693   0.81657   0.25318   0.00000  Uiso   1.00
H24    H     0.59010   0.46406   0.23922   0.00000  Uiso   1.00
H25    H     0.65650   0.34309   0.09045   0.00000  Uiso   1.00
H26    H     0.50628   0.34312   0.38683   0.00000  Uiso   1.00
H27    H     0.58115   0.70598   0.23868   0.00000  Uiso   1.00
H28    H     0.77163   0.20891   0.92830   0.00000  Uiso   1.00
H29    H     0.45487   0.20900   0.55326   0.00000  Uiso   1.00
H30    H     0.61274   0.97417   0.24086   0.00000  Uiso   1.00
H31    H     0.90997   0.46392   0.26066   0.00000  Uiso   1.00
H32    H     0.99393   0.34294   0.11305   0.00000  Uiso   1.00
H33    H     0.84371   0.34296   0.40944   0.00000  Uiso   1.00
H34    H     0.91857   0.70582   0.26129   0.00000  Uiso   1.00
H35    H     0.04549   0.20878   0.94665   0.00000  Uiso   1.00
H36    H     0.72874   0.20888   0.57161   0.00000  Uiso   1.00
H37    H     0.88661   0.97403   0.25921   0.00000  Uiso   1.00
O38    O     0.95801   0.12923   0.84000   0.00000  Uiso   1.00
O39    O     0.54244   0.12937   0.65993   0.00000  Uiso   1.00
O40    O     0.74956   0.13324   0.25007   0.00000  Uiso   1.00
N41    N     0.82456   0.22551   0.95286   0.00000  Uiso   1.00
N42    N     0.52842   0.22557   0.53716   0.00000  Uiso   1.00
N43    N     0.67600   0.94093   0.24512   0.00000  Uiso   1.00
N44    N     0.97193   0.22544   0.96274   0.00000  Uiso   1.00
N45    N     0.67579   0.22550   0.54703   0.00000  Uiso   1.00
N46    N     0.82336   0.94087   0.25499   0.00000  Uiso   1.00
C47    C     0.33641   0.36629   0.25646   0.00000  Uiso   1.00
C48    C     0.25561   0.30056   0.33399   0.00000  Uiso   1.00
C49    C     0.26947   0.24524   0.40525   0.00000  Uiso   1.00
C50    C     0.18612   0.18990   0.46937   0.00000  Uiso   1.00
C51    C     0.07493   0.08778   0.59079   0.00000  Uiso   1.00
C52    C     0.33841   0.30062   0.17304   0.00000  Uiso   1.00
C53    C     0.42188   0.24536   0.10898   0.00000  Uiso   1.00
C54    C     0.40823   0.19009   0.03760   0.00000  Uiso   1.00
C55    C     0.42560   0.08814   0.90912   0.00000  Uiso   1.00
C56    C     0.29689   0.49774   0.25354   0.00000  Uiso   1.00
C57    C     0.34546   0.60823   0.25714   0.00000  Uiso   1.00
C58    C     0.29686   0.71891   0.25353   0.00000  Uiso   1.00
C59    C     0.24977   0.92302   0.25004   0.00000  Uiso   1.00
C60    C     0.16374   0.36639   0.24362   0.00000  Uiso   1.00
C61    C     0.16183   0.30062   0.32701   0.00000  Uiso   1.00
C62    C     0.07843   0.24535   0.39104   0.00000  Uiso   1.00
C63    C     0.09216   0.18996   0.46239   0.00000  Uiso   1.00
C64    C     0.24462   0.30068   0.16606   0.00000  Uiso   1.00
C65    C     0.23084   0.24548   0.09477   0.00000  Uiso   1.00
C66    C     0.31427   0.19014   0.03061   0.00000  Uiso   1.00
C67    C     0.20310   0.49780   0.24657   0.00000  Uiso   1.00
C68    C     0.15442   0.60834   0.24294   0.00000  Uiso   1.00
C69    C     0.20291   0.71897   0.24654   0.00000  Uiso   1.00
H70    H     0.40943   0.36624   0.26189   0.00000  Uiso   1.00
H71    H     0.34206   0.24520   0.41062   0.00000  Uiso   1.00
H72    H     0.49445   0.24534   0.11439   0.00000  Uiso   1.00
H73    H     0.41804   0.60814   0.26254   0.00000  Uiso   1.00
H74    H     0.22602   0.11100   0.57243   0.00000  Uiso   1.00
H75    H     0.54735   0.11133   0.94779   0.00000  Uiso   1.00
H76    H     0.38623   0.87637   0.26020   0.00000  Uiso   1.00
H77    H     0.09072   0.36644   0.23818   0.00000  Uiso   1.00
H78    H     0.00586   0.24541   0.38562   0.00000  Uiso   1.00
H79    H     0.15825   0.24554   0.08939   0.00000  Uiso   1.00
H80    H     0.08184   0.60835   0.23754   0.00000  Uiso   1.00
H81    H     0.95315   0.11116   0.55214   0.00000  Uiso   1.00
H82    H     0.27448   0.11149   0.92749   0.00000  Uiso   1.00
H83    H     0.11335   0.87653   0.23990   0.00000  Uiso   1.00
O84    O     0.03952   0.03142   0.65969   0.00000  Uiso   1.00
O85    O     0.46110   0.03188   0.84018   0.00000  Uiso   1.00
O86    O     0.24970   0.03559   0.25005   0.00000  Uiso   1.00
N87    N     0.17344   0.12767   0.54743   0.00000  Uiso   1.00
N88    N     0.47387   0.12796   0.96344   0.00000  Uiso   1.00
N89    N     0.32324   0.84320   0.25548   0.00000  Uiso   1.00
N90    N     0.02661   0.12775   0.53651   0.00000  Uiso   1.00
N91    N     0.32703   0.12804   0.95252   0.00000  Uiso   1.00
N92    N     0.17640   0.84329   0.24457   0.00000  Uiso   1.00
C93    C     0.33662   0.53597   0.75587   0.00000  Uiso   1.00
C94    C     0.25618   0.60170   0.83374   0.00000  Uiso   1.00
C95    C     0.27064   0.65695   0.90470   0.00000  Uiso   1.00
C96    C     0.18754   0.71232   0.96922   0.00000  Uiso   1.00
C97    C     0.07697   0.81444   0.09106   0.00000  Uiso   1.00
C98    C     0.33779   0.60171   0.67271   0.00000  Uiso   1.00
C99    C     0.42088   0.65694   0.60827   0.00000  Uiso   1.00
C100   C     0.40648   0.71230   0.53722   0.00000  Uiso   1.00
C101   C     0.42264   0.81434   0.40903   0.00000  Uiso   1.00
C102   C     0.29712   0.40456   0.75321   0.00000  Uiso   1.00
C103   C     0.34601   0.29402   0.75644   0.00000  Uiso   1.00
C104   C     0.29737   0.18339   0.75314   0.00000  Uiso   1.00
C105   C     0.25037   0.97933   0.74994   0.00000  Uiso   1.00
C106   C     0.16332   0.53605   0.74426   0.00000  Uiso   1.00
C107   C     0.16205   0.60175   0.82742   0.00000  Uiso   1.00
C108   C     0.07890   0.65704   0.89185   0.00000  Uiso   1.00
C109   C     0.09324   0.71236   0.96290   0.00000  Uiso   1.00
C110   C     0.24367   0.60175   0.66640   0.00000  Uiso   1.00
C111   C     0.22915   0.65703   0.59542   0.00000  Uiso   1.00
C112   C     0.31218   0.71234   0.53090   0.00000  Uiso   1.00
C113   C     0.20299   0.40460   0.74690   0.00000  Uiso   1.00
C114   C     0.15427   0.29412   0.74359   0.00000  Uiso   1.00
C115   C     0.20307   0.18343   0.74682   0.00000  Uiso   1.00
H116   H     0.40990   0.53594   0.76078   0.00000  Uiso   1.00
H117   H     0.34350   0.65691   0.90955   0.00000  Uiso   1.00
H118   H     0.49372   0.65688   0.61317   0.00000  Uiso   1.00
H119   H     0.41885   0.29402   0.76132   0.00000  Uiso   1.00
H120   H     0.22837   0.79109   0.07170   0.00000  Uiso   1.00
H121   H     0.54513   0.79100   0.44674   0.00000  Uiso   1.00
H122   H     0.38726   0.02583   0.75914   0.00000  Uiso   1.00
H123   H     0.09003   0.53608   0.73934   0.00000  Uiso   1.00
H124   H     0.00607   0.65706   0.88695   0.00000  Uiso   1.00
H125   H     0.15629   0.65704   0.59056   0.00000  Uiso   1.00
H126   H     0.08143   0.29418   0.73871   0.00000  Uiso   1.00
H127   H     0.95451   0.79122   0.05335   0.00000  Uiso   1.00
H128   H     0.27126   0.79112   0.42839   0.00000  Uiso   1.00
H129   H     0.11339   0.02597   0.74079   0.00000  Uiso   1.00
O130   O     0.04199   0.87077   0.16000   0.00000  Uiso   1.00
O131   O     0.45756   0.87063   0.34007   0.00000  Uiso   1.00
O132   O     0.25044   0.86676   0.74993   0.00000  Uiso   1.00
N133   N     0.17544   0.77449   0.04714   0.00000  Uiso   1.00
N134   N     0.47158   0.77443   0.46284   0.00000  Uiso   1.00
N135   N     0.32400   0.05907   0.75488   0.00000  Uiso   1.00
N136   N     0.02807   0.77456   0.03726   0.00000  Uiso   1.00
N137   N     0.32421   0.77450   0.45297   0.00000  Uiso   1.00
N138   N     0.17664   0.05913   0.74501   0.00000  Uiso   1.00
C139   C     0.66359   0.63371   0.74354   0.00000  Uiso   1.00
C140   C     0.74439   0.69944   0.66601   0.00000  Uiso   1.00
C141   C     0.73053   0.75476   0.59475   0.00000  Uiso   1.00
C142   C     0.81388   0.81010   0.53063   0.00000  Uiso   1.00
C143   C     0.92507   0.91222   0.40921   0.00000  Uiso   1.00
C144   C     0.66159   0.69938   0.82696   0.00000  Uiso   1.00
C145   C     0.57812   0.75464   0.89102   0.00000  Uiso   1.00
C146   C     0.59177   0.80991   0.96240   0.00000  Uiso   1.00
C147   C     0.57440   0.91186   0.09088   0.00000  Uiso   1.00
C148   C     0.70311   0.50226   0.74646   0.00000  Uiso   1.00
C149   C     0.65454   0.39177   0.74286   0.00000  Uiso   1.00
C150   C     0.70314   0.28109   0.74647   0.00000  Uiso   1.00
C151   C     0.75023   0.07698   0.74996   0.00000  Uiso   1.00
C152   C     0.83626   0.63361   0.75638   0.00000  Uiso   1.00
C153   C     0.83817   0.69938   0.67299   0.00000  Uiso   1.00
C154   C     0.92157   0.75465   0.60896   0.00000  Uiso   1.00
C155   C     0.90784   0.81004   0.53761   0.00000  Uiso   1.00
C156   C     0.75538   0.69932   0.83394   0.00000  Uiso   1.00
C157   C     0.76916   0.75452   0.90523   0.00000  Uiso   1.00
C158   C     0.68573   0.80986   0.96939   0.00000  Uiso   1.00
C159   C     0.79690   0.50220   0.75343   0.00000  Uiso   1.00
C160   C     0.84558   0.39166   0.75706   0.00000  Uiso   1.00
C161   C     0.79709   0.28103   0.75346   0.00000  Uiso   1.00
H162   H     0.59057   0.63376   0.73811   0.00000  Uiso   1.00
H163   H     0.65794   0.75480   0.58938   0.00000  Uiso   1.00
H164   H     0.50555   0.75466   0.88561   0.00000  Uiso   1.00
H165   H     0.58196   0.39186   0.73746   0.00000  Uiso   1.00
H166   H     0.77398   0.88900   0.42757   0.00000  Uiso   1.00
H167   H     0.45265   0.88867   0.05221   0.00000  Uiso   1.00
H168   H     0.61377   0.12363   0.73980   0.00000  Uiso   1.00
H169   H     0.90928   0.63356   0.76182   0.00000  Uiso   1.00
H170   H     0.99414   0.75459   0.61438   0.00000  Uiso   1.00
H171   H     0.84175   0.75446   0.91061   0.00000  Uiso   1.00
H172   H     0.91816   0.39165   0.76246   0.00000  Uiso   1.00
H173   H     0.04685   0.88884   0.44786   0.00000  Uiso   1.00
H174   H     0.72552   0.88851   0.07251   0.00000  Uiso   1.00
H175   H     0.88665   0.12347   0.76010   0.00000  Uiso   1.00
O176   O     0.96048   0.96858   0.34031   0.00000  Uiso   1.00
O177   O     0.53890   0.96812   0.15982   0.00000  Uiso   1.00
O178   O     0.75030   0.96441   0.74995   0.00000  Uiso   1.00
N179   N     0.82656   0.87233   0.45257   0.00000  Uiso   1.00
N180   N     0.52613   0.87204   0.03656   0.00000  Uiso   1.00
N181   N     0.67676   0.15680   0.74452   0.00000  Uiso   1.00
N182   N     0.97339   0.87225   0.46349   0.00000  Uiso   1.00
N183   N     0.67297   0.87196   0.04748   0.00000  Uiso   1.00
N184   N     0.82360   0.15671   0.75543   0.00000  Uiso   1.00
