data_job_01841
_audit_creation_date              2018-12-19
_audit_creation_method            'Materials Studio'
_symmetry_space_group_name_H-M    'P1'
_symmetry_Int_Tables_number       1
_symmetry_cell_setting            triclinic
loop_
_symmetry_equiv_pos_as_xyz
  x,y,z
_cell_length_a                    11.1112
_cell_length_b                    12.5920
_cell_length_c                    26.3238
_cell_angle_alpha                 90.0000
_cell_angle_beta                  127.1430
_cell_angle_gamma                 90.0000
loop_
_atom_site_label
_atom_site_type_symbol
_atom_site_fract_x
_atom_site_fract_y
_atom_site_fract_z
_atom_site_U_iso_or_equiv
_atom_site_adp_type
_atom_site_occupancy
C1     C     0.84105   0.83076   0.06830   0.00000  Uiso   1.00
C2     C     0.96914   0.75425   0.11357   0.00000  Uiso   1.00
C3     C     0.00676   0.66382   0.09582   0.00000  Uiso   1.00
C4     C     0.12772   0.60430   0.14439   0.00000  Uiso   1.00
C5     C     0.31434   0.48093   0.20494   0.00000  Uiso   1.00
C6     C     0.74188   0.83566   0.09033   0.00000  Uiso   1.00
C7     C     0.58842   0.81368   0.05303   0.00000  Uiso   1.00
C8     C     0.51807   0.82270   0.08203   0.00000  Uiso   1.00
C9     C     0.35185   0.82578   0.10649   0.00000  Uiso   1.00
C10    C     0.91347   0.94012   0.08176   0.00000  Uiso   1.00
C11    C     0.90426   0.00599   0.03726   0.00000  Uiso   1.00
C12    C     0.97835   0.10297   0.05906   0.00000  Uiso   1.00
C13    C     0.07855   0.26825   0.07022   0.00000  Uiso   1.00
C14    C     0.98895   0.88587   0.18614   0.00000  Uiso   1.00
C15    C     0.04947   0.78419   0.17757   0.00000  Uiso   1.00
C16    C     0.17040   0.72480   0.22619   0.00000  Uiso   1.00
C17    C     0.20820   0.63429   0.20851   0.00000  Uiso   1.00
C18    C     0.82221   0.86559   0.15433   0.00000  Uiso   1.00
C19    C     0.75206   0.87465   0.18339   0.00000  Uiso   1.00
C20    C     0.59855   0.85269   0.14615   0.00000  Uiso   1.00
C21    C     0.99381   0.97006   0.14577   0.00000  Uiso   1.00
C22    C     0.06791   0.06696   0.16763   0.00000  Uiso   1.00
C23    C     0.05882   0.13297   0.12317   0.00000  Uiso   1.00
H24    H     0.77849   0.80745   0.01848   0.00000  Uiso   1.00
H25    H     0.94455   0.64067   0.04628   0.00000  Uiso   1.00
H26    H     0.52628   0.79052   0.00350   0.00000  Uiso   1.00
H27    H     0.84208   0.98280   0.98774   0.00000  Uiso   1.00
H28    H     0.16406   0.46895   0.10534   0.00000  Uiso   1.00
H29    H     0.28210   0.78495   0.01512   0.00000  Uiso   1.00
H30    H     0.94801   0.19041   0.98188   0.00000  Uiso   1.00
H31    H     0.05149   0.90918   0.23597   0.00000  Uiso   1.00
H32    H     0.23255   0.74798   0.27571   0.00000  Uiso   1.00
H33    H     0.81427   0.89783   0.23292   0.00000  Uiso   1.00
H34    H     0.13007   0.09010   0.21716   0.00000  Uiso   1.00
H35    H     0.39780   0.55604   0.29155   0.00000  Uiso   1.00
H36    H     0.51583   0.87205   0.20133   0.00000  Uiso   1.00
H37    H     0.18176   0.27750   0.16809   0.00000  Uiso   1.00
O38    O     0.39507   0.40460   0.22066   0.00000  Uiso   1.00
O39    O     0.23797   0.81920   0.10230   0.00000  Uiso   1.00
O40    O     0.11164   0.35114   0.05869   0.00000  Uiso   1.00
N41    N     0.19424   0.51158   0.14371   0.00000  Uiso   1.00
N42    N     0.36967   0.80700   0.05936   0.00000  Uiso   1.00
N43    N     0.99221   0.18608   0.02829   0.00000  Uiso   1.00
N44    N     0.32002   0.55845   0.24391   0.00000  Uiso   1.00
N45    N     0.49544   0.85387   0.15956   0.00000  Uiso   1.00
N46    N     0.11798   0.23295   0.12848   0.00000  Uiso   1.00
C47    C     0.15895   0.33076   0.43170   0.00000  Uiso   1.00
C48    C     0.03086   0.25425   0.38643   0.00000  Uiso   1.00
C49    C     0.99324   0.16382   0.40418   0.00000  Uiso   1.00
C50    C     0.87228   0.10430   0.35561   0.00000  Uiso   1.00
C51    C     0.68566   0.98093   0.29506   0.00000  Uiso   1.00
C52    C     0.25812   0.33566   0.40967   0.00000  Uiso   1.00
C53    C     0.41158   0.31368   0.44697   0.00000  Uiso   1.00
C54    C     0.48193   0.32270   0.41797   0.00000  Uiso   1.00
C55    C     0.64815   0.32578   0.39351   0.00000  Uiso   1.00
C56    C     0.08653   0.44012   0.41824   0.00000  Uiso   1.00
C57    C     0.09574   0.50599   0.46274   0.00000  Uiso   1.00
C58    C     0.02165   0.60297   0.44094   0.00000  Uiso   1.00
C59    C     0.92145   0.76825   0.42978   0.00000  Uiso   1.00
C60    C     0.01105   0.38587   0.31386   0.00000  Uiso   1.00
C61    C     0.95053   0.28419   0.32243   0.00000  Uiso   1.00
C62    C     0.82960   0.22480   0.27381   0.00000  Uiso   1.00
C63    C     0.79180   0.13429   0.29149   0.00000  Uiso   1.00
C64    C     0.17779   0.36559   0.34567   0.00000  Uiso   1.00
C65    C     0.24794   0.37465   0.31661   0.00000  Uiso   1.00
C66    C     0.40145   0.35269   0.35385   0.00000  Uiso   1.00
C67    C     0.00619   0.47006   0.35423   0.00000  Uiso   1.00
C68    C     0.93209   0.56696   0.33237   0.00000  Uiso   1.00
C69    C     0.94118   0.63297   0.37683   0.00000  Uiso   1.00
H70    H     0.22151   0.30745   0.48152   0.00000  Uiso   1.00
H71    H     0.05545   0.14067   0.45372   0.00000  Uiso   1.00
H72    H     0.47372   0.29052   0.49650   0.00000  Uiso   1.00
H73    H     0.15792   0.48280   0.51226   0.00000  Uiso   1.00
H74    H     0.83594   0.96895   0.39466   0.00000  Uiso   1.00
H75    H     0.71790   0.28495   0.48488   0.00000  Uiso   1.00
H76    H     0.05199   0.69041   0.51812   0.00000  Uiso   1.00
H77    H     0.94851   0.40918   0.26403   0.00000  Uiso   1.00
H78    H     0.76745   0.24798   0.22429   0.00000  Uiso   1.00
H79    H     0.18573   0.39783   0.26708   0.00000  Uiso   1.00
H80    H     0.86993   0.59010   0.28284   0.00000  Uiso   1.00
H81    H     0.60220   0.05604   0.20845   0.00000  Uiso   1.00
H82    H     0.48417   0.37205   0.29867   0.00000  Uiso   1.00
H83    H     0.81824   0.77750   0.33191   0.00000  Uiso   1.00
O84    O     0.60493   0.90460   0.27934   0.00000  Uiso   1.00
O85    O     0.76203   0.31920   0.39770   0.00000  Uiso   1.00
O86    O     0.88836   0.85114   0.44131   0.00000  Uiso   1.00
N87    N     0.80576   0.01158   0.35629   0.00000  Uiso   1.00
N88    N     0.63033   0.30700   0.44064   0.00000  Uiso   1.00
N89    N     0.00779   0.68608   0.47171   0.00000  Uiso   1.00
N90    N     0.67998   0.05845   0.25609   0.00000  Uiso   1.00
N91    N     0.50456   0.35387   0.34044   0.00000  Uiso   1.00
N92    N     0.88202   0.73295   0.37152   0.00000  Uiso   1.00
C93    C     0.15895   0.16924   0.93170   0.00000  Uiso   1.00
C94    C     0.03086   0.24575   0.88643   0.00000  Uiso   1.00
C95    C     0.99324   0.33618   0.90418   0.00000  Uiso   1.00
C96    C     0.87228   0.39570   0.85561   0.00000  Uiso   1.00
C97    C     0.68566   0.51907   0.79506   0.00000  Uiso   1.00
C98    C     0.25812   0.16434   0.90967   0.00000  Uiso   1.00
C99    C     0.41158   0.18632   0.94697   0.00000  Uiso   1.00
C100   C     0.48193   0.17730   0.91797   0.00000  Uiso   1.00
C101   C     0.64815   0.17422   0.89351   0.00000  Uiso   1.00
C102   C     0.08653   0.05988   0.91824   0.00000  Uiso   1.00
C103   C     0.09574   0.99401   0.96274   0.00000  Uiso   1.00
C104   C     0.02165   0.89703   0.94094   0.00000  Uiso   1.00
C105   C     0.92145   0.73175   0.92978   0.00000  Uiso   1.00
C106   C     0.01105   0.11413   0.81386   0.00000  Uiso   1.00
C107   C     0.95053   0.21581   0.82243   0.00000  Uiso   1.00
C108   C     0.82960   0.27520   0.77381   0.00000  Uiso   1.00
C109   C     0.79180   0.36571   0.79149   0.00000  Uiso   1.00
C110   C     0.17779   0.13441   0.84567   0.00000  Uiso   1.00
C111   C     0.24794   0.12535   0.81661   0.00000  Uiso   1.00
C112   C     0.40145   0.14731   0.85385   0.00000  Uiso   1.00
C113   C     0.00619   0.02994   0.85423   0.00000  Uiso   1.00
C114   C     0.93209   0.93304   0.83237   0.00000  Uiso   1.00
C115   C     0.94118   0.86703   0.87683   0.00000  Uiso   1.00
H116   H     0.22151   0.19255   0.98152   0.00000  Uiso   1.00
H117   H     0.05545   0.35933   0.95372   0.00000  Uiso   1.00
H118   H     0.47372   0.20948   0.99650   0.00000  Uiso   1.00
H119   H     0.15792   0.01720   0.01226   0.00000  Uiso   1.00
H120   H     0.83594   0.53105   0.89466   0.00000  Uiso   1.00
H121   H     0.71790   0.21505   0.98488   0.00000  Uiso   1.00
H122   H     0.05199   0.80959   0.01812   0.00000  Uiso   1.00
H123   H     0.94851   0.09082   0.76403   0.00000  Uiso   1.00
H124   H     0.76745   0.25202   0.72429   0.00000  Uiso   1.00
H125   H     0.18573   0.10217   0.76708   0.00000  Uiso   1.00
H126   H     0.86993   0.90990   0.78284   0.00000  Uiso   1.00
H127   H     0.60220   0.44396   0.70845   0.00000  Uiso   1.00
H128   H     0.48417   0.12795   0.79867   0.00000  Uiso   1.00
H129   H     0.81824   0.72250   0.83191   0.00000  Uiso   1.00
O130   O     0.60493   0.59540   0.77934   0.00000  Uiso   1.00
O131   O     0.76203   0.18080   0.89770   0.00000  Uiso   1.00
O132   O     0.88836   0.64886   0.94131   0.00000  Uiso   1.00
N133   N     0.80576   0.48842   0.85629   0.00000  Uiso   1.00
N134   N     0.63033   0.19300   0.94064   0.00000  Uiso   1.00
N135   N     0.00779   0.81392   0.97171   0.00000  Uiso   1.00
N136   N     0.67998   0.44155   0.75609   0.00000  Uiso   1.00
N137   N     0.50456   0.14613   0.84044   0.00000  Uiso   1.00
N138   N     0.88202   0.76705   0.87152   0.00000  Uiso   1.00
C139   C     0.84105   0.66924   0.56830   0.00000  Uiso   1.00
C140   C     0.96914   0.74575   0.61357   0.00000  Uiso   1.00
C141   C     0.00676   0.83618   0.59582   0.00000  Uiso   1.00
C142   C     0.12772   0.89570   0.64439   0.00000  Uiso   1.00
C143   C     0.31434   0.01907   0.70494   0.00000  Uiso   1.00
C144   C     0.74188   0.66434   0.59033   0.00000  Uiso   1.00
C145   C     0.58842   0.68632   0.55303   0.00000  Uiso   1.00
C146   C     0.51807   0.67730   0.58203   0.00000  Uiso   1.00
C147   C     0.35185   0.67422   0.60649   0.00000  Uiso   1.00
C148   C     0.91347   0.55988   0.58176   0.00000  Uiso   1.00
C149   C     0.90426   0.49401   0.53726   0.00000  Uiso   1.00
C150   C     0.97835   0.39703   0.55906   0.00000  Uiso   1.00
C151   C     0.07855   0.23175   0.57022   0.00000  Uiso   1.00
C152   C     0.98895   0.61413   0.68614   0.00000  Uiso   1.00
C153   C     0.04947   0.71581   0.67757   0.00000  Uiso   1.00
C154   C     0.17040   0.77520   0.72619   0.00000  Uiso   1.00
C155   C     0.20820   0.86571   0.70851   0.00000  Uiso   1.00
C156   C     0.82221   0.63441   0.65433   0.00000  Uiso   1.00
C157   C     0.75206   0.62535   0.68339   0.00000  Uiso   1.00
C158   C     0.59855   0.64731   0.64615   0.00000  Uiso   1.00
C159   C     0.99381   0.52994   0.64577   0.00000  Uiso   1.00
C160   C     0.06791   0.43304   0.66763   0.00000  Uiso   1.00
C161   C     0.05882   0.36703   0.62317   0.00000  Uiso   1.00
H162   H     0.77849   0.69255   0.51848   0.00000  Uiso   1.00
H163   H     0.94455   0.85933   0.54628   0.00000  Uiso   1.00
H164   H     0.52628   0.70948   0.50350   0.00000  Uiso   1.00
H165   H     0.84208   0.51720   0.48774   0.00000  Uiso   1.00
H166   H     0.16406   0.03105   0.60534   0.00000  Uiso   1.00
H167   H     0.28210   0.71505   0.51512   0.00000  Uiso   1.00
H168   H     0.94801   0.30959   0.48188   0.00000  Uiso   1.00
H169   H     0.05149   0.59082   0.73597   0.00000  Uiso   1.00
H170   H     0.23255   0.75202   0.77571   0.00000  Uiso   1.00
H171   H     0.81427   0.60217   0.73292   0.00000  Uiso   1.00
H172   H     0.13007   0.40990   0.71716   0.00000  Uiso   1.00
H173   H     0.39780   0.94396   0.79155   0.00000  Uiso   1.00
H174   H     0.51583   0.62795   0.70133   0.00000  Uiso   1.00
H175   H     0.18176   0.22250   0.66809   0.00000  Uiso   1.00
O176   O     0.39507   0.09540   0.72066   0.00000  Uiso   1.00
O177   O     0.23797   0.68080   0.60230   0.00000  Uiso   1.00
O178   O     0.11164   0.14886   0.55869   0.00000  Uiso   1.00
N179   N     0.19424   0.98842   0.64371   0.00000  Uiso   1.00
N180   N     0.36967   0.69300   0.55936   0.00000  Uiso   1.00
N181   N     0.99221   0.31392   0.52829   0.00000  Uiso   1.00
N182   N     0.32002   0.94155   0.74391   0.00000  Uiso   1.00
N183   N     0.49544   0.64613   0.65956   0.00000  Uiso   1.00
N184   N     0.11798   0.26705   0.62848   0.00000  Uiso   1.00
