data_job_02191
_audit_creation_date              2018-12-19
_audit_creation_method            'Materials Studio'
_symmetry_space_group_name_H-M    'P1'
_symmetry_Int_Tables_number       1
_symmetry_cell_setting            triclinic
loop_
_symmetry_equiv_pos_as_xyz
  x,y,z
_cell_length_a                    12.7841
_cell_length_b                    16.8486
_cell_length_c                    21.8876
_cell_angle_alpha                 90.0000
_cell_angle_beta                  148.3804
_cell_angle_gamma                 90.0000
loop_
_atom_site_label
_atom_site_type_symbol
_atom_site_fract_x
_atom_site_fract_y
_atom_site_fract_z
_atom_site_U_iso_or_equiv
_atom_site_adp_type
_atom_site_occupancy
C1     C     0.76356   0.63360   0.73043   0.00000  Uiso   1.00
C2     C     0.93615   0.58026   0.83565   0.00000  Uiso   1.00
C3     C     0.92442   0.51799   0.87117   0.00000  Uiso   1.00
C4     C     0.09912   0.47636   0.96970   0.00000  Uiso   1.00
C5     C     0.33976   0.39053   0.12387   0.00000  Uiso   1.00
C6     C     0.82968   0.71832   0.77712   0.00000  Uiso   1.00
C7     C     0.72842   0.77215   0.76340   0.00000  Uiso   1.00
C8     C     0.81350   0.84674   0.81263   0.00000  Uiso   1.00
C9     C     0.88877   0.97528   0.87585   0.00000  Uiso   1.00
C10    C     0.75178   0.62742   0.65516   0.00000  Uiso   1.00
C11    C     0.58500   0.60484   0.53889   0.00000  Uiso   1.00
C12    C     0.60447   0.60292   0.48543   0.00000  Uiso   1.00
C13    C     0.55878   0.59032   0.35930   0.00000  Uiso   1.00
C14    C     0.09468   0.67038   0.84224   0.00000  Uiso   1.00
C15    C     0.11599   0.60024   0.89638   0.00000  Uiso   1.00
C16    C     0.29076   0.55869   0.99487   0.00000  Uiso   1.00
C17    C     0.27929   0.49638   0.03053   0.00000  Uiso   1.00
C18    C     0.00952   0.73831   0.83784   0.00000  Uiso   1.00
C19    C     0.09476   0.81284   0.88710   0.00000  Uiso   1.00
C20    C     0.99367   0.86676   0.87347   0.00000  Uiso   1.00
C21    C     0.93163   0.64740   0.71589   0.00000  Uiso   1.00
C22    C     0.95135   0.64553   0.66260   0.00000  Uiso   1.00
C23    C     0.78464   0.62294   0.54627   0.00000  Uiso   1.00
H24    H     0.62355   0.61805   0.68316   0.00000  Uiso   1.00
H25    H     0.78521   0.50255   0.82416   0.00000  Uiso   1.00
H26    H     0.58924   0.75667   0.71639   0.00000  Uiso   1.00
H27    H     0.44585   0.58938   0.49193   0.00000  Uiso   1.00
H28    H     0.04378   0.38334   0.00729   0.00000  Uiso   1.00
H29    H     0.63053   0.91916   0.78002   0.00000  Uiso   1.00
H30    H     0.32815   0.56640   0.30669   0.00000  Uiso   1.00
H31    H     0.23470   0.68594   0.88952   0.00000  Uiso   1.00
H32    H     0.42991   0.57417   0.04185   0.00000  Uiso   1.00
H33    H     0.23393   0.82829   0.93408   0.00000  Uiso   1.00
H34    H     0.09054   0.66100   0.70962   0.00000  Uiso   1.00
H35    H     0.56704   0.44147   0.18398   0.00000  Uiso   1.00
H36    H     0.15378   0.97730   0.95670   0.00000  Uiso   1.00
H37    H     0.85141   0.62453   0.48338   0.00000  Uiso   1.00
O38    O     0.42281   0.33767   0.19215   0.00000  Uiso   1.00
O39    O     0.88062   0.04065   0.89395   0.00000  Uiso   1.00
O40    O     0.48391   0.57783   0.27295   0.00000  Uiso   1.00
N41    N     0.14013   0.41235   0.02796   0.00000  Uiso   1.00
N42    N     0.75378   0.91331   0.81549   0.00000  Uiso   1.00
N43    N     0.47107   0.58353   0.37295   0.00000  Uiso   1.00
N44    N     0.42169   0.44362   0.12303   0.00000  Uiso   1.00
N45    N     0.03534   0.94459   0.91056   0.00000  Uiso   1.00
N46    N     0.75263   0.61480   0.46803   0.00000  Uiso   1.00
C47    C     0.23644   0.13360   0.76957   0.00000  Uiso   1.00
C48    C     0.06385   0.08026   0.66435   0.00000  Uiso   1.00
C49    C     0.07558   0.01799   0.62883   0.00000  Uiso   1.00
C50    C     0.90088   0.97636   0.53030   0.00000  Uiso   1.00
C51    C     0.66024   0.89053   0.37613   0.00000  Uiso   1.00
C52    C     0.17032   0.21832   0.72288   0.00000  Uiso   1.00
C53    C     0.27158   0.27215   0.73660   0.00000  Uiso   1.00
C54    C     0.18650   0.34674   0.68737   0.00000  Uiso   1.00
C55    C     0.11123   0.47528   0.62415   0.00000  Uiso   1.00
C56    C     0.24822   0.12742   0.84484   0.00000  Uiso   1.00
C57    C     0.41500   0.10484   0.96111   0.00000  Uiso   1.00
C58    C     0.39553   0.10292   0.01457   0.00000  Uiso   1.00
C59    C     0.44122   0.09032   0.14070   0.00000  Uiso   1.00
C60    C     0.90532   0.17038   0.65776   0.00000  Uiso   1.00
C61    C     0.88401   0.10024   0.60362   0.00000  Uiso   1.00
C62    C     0.70924   0.05869   0.50513   0.00000  Uiso   1.00
C63    C     0.72071   0.99638   0.46947   0.00000  Uiso   1.00
C64    C     0.99048   0.23831   0.66216   0.00000  Uiso   1.00
C65    C     0.90524   0.31284   0.61290   0.00000  Uiso   1.00
C66    C     0.00633   0.36676   0.62653   0.00000  Uiso   1.00
C67    C     0.06837   0.14740   0.78411   0.00000  Uiso   1.00
C68    C     0.04865   0.14553   0.83740   0.00000  Uiso   1.00
C69    C     0.21536   0.12294   0.95373   0.00000  Uiso   1.00
H70    H     0.37645   0.11805   0.81684   0.00000  Uiso   1.00
H71    H     0.21479   0.00255   0.67584   0.00000  Uiso   1.00
H72    H     0.41076   0.25667   0.78361   0.00000  Uiso   1.00
H73    H     0.55415   0.08938   0.00807   0.00000  Uiso   1.00
H74    H     0.95622   0.88334   0.49271   0.00000  Uiso   1.00
H75    H     0.36947   0.41916   0.71998   0.00000  Uiso   1.00
H76    H     0.67185   0.06640   0.19331   0.00000  Uiso   1.00
H77    H     0.76530   0.18594   0.61048   0.00000  Uiso   1.00
H78    H     0.57009   0.07417   0.45815   0.00000  Uiso   1.00
H79    H     0.76607   0.32829   0.56592   0.00000  Uiso   1.00
H80    H     0.90946   0.16100   0.79038   0.00000  Uiso   1.00
H81    H     0.43296   0.94147   0.31602   0.00000  Uiso   1.00
H82    H     0.84622   0.47730   0.54330   0.00000  Uiso   1.00
H83    H     0.14859   0.12453   0.01662   0.00000  Uiso   1.00
O84    O     0.57719   0.83767   0.30785   0.00000  Uiso   1.00
O85    O     0.11938   0.54065   0.60605   0.00000  Uiso   1.00
O86    O     0.51609   0.07783   0.22705   0.00000  Uiso   1.00
N87    N     0.85987   0.91235   0.47204   0.00000  Uiso   1.00
N88    N     0.24622   0.41331   0.68451   0.00000  Uiso   1.00
N89    N     0.52893   0.08353   0.12705   0.00000  Uiso   1.00
N90    N     0.57831   0.94362   0.37697   0.00000  Uiso   1.00
N91    N     0.96466   0.44459   0.58944   0.00000  Uiso   1.00
N92    N     0.24737   0.11480   0.03197   0.00000  Uiso   1.00
C93    C     0.23644   0.36640   0.26957   0.00000  Uiso   1.00
C94    C     0.06385   0.41974   0.16435   0.00000  Uiso   1.00
C95    C     0.07558   0.48201   0.12883   0.00000  Uiso   1.00
C96    C     0.90088   0.52364   0.03030   0.00000  Uiso   1.00
C97    C     0.66024   0.60947   0.87613   0.00000  Uiso   1.00
C98    C     0.17032   0.28168   0.22288   0.00000  Uiso   1.00
C99    C     0.27158   0.22785   0.23660   0.00000  Uiso   1.00
C100   C     0.18650   0.15326   0.18737   0.00000  Uiso   1.00
C101   C     0.11123   0.02472   0.12415   0.00000  Uiso   1.00
C102   C     0.24822   0.37258   0.34484   0.00000  Uiso   1.00
C103   C     0.41500   0.39516   0.46111   0.00000  Uiso   1.00
C104   C     0.39553   0.39708   0.51457   0.00000  Uiso   1.00
C105   C     0.44122   0.40968   0.64070   0.00000  Uiso   1.00
C106   C     0.90532   0.32962   0.15776   0.00000  Uiso   1.00
C107   C     0.88401   0.39976   0.10362   0.00000  Uiso   1.00
C108   C     0.70924   0.44131   0.00513   0.00000  Uiso   1.00
C109   C     0.72071   0.50362   0.96947   0.00000  Uiso   1.00
C110   C     0.99048   0.26169   0.16216   0.00000  Uiso   1.00
C111   C     0.90524   0.18716   0.11290   0.00000  Uiso   1.00
C112   C     0.00633   0.13324   0.12653   0.00000  Uiso   1.00
C113   C     0.06837   0.35260   0.28411   0.00000  Uiso   1.00
C114   C     0.04865   0.35447   0.33740   0.00000  Uiso   1.00
C115   C     0.21536   0.37706   0.45373   0.00000  Uiso   1.00
H116   H     0.37645   0.38195   0.31684   0.00000  Uiso   1.00
H117   H     0.21479   0.49745   0.17584   0.00000  Uiso   1.00
H118   H     0.41076   0.24333   0.28361   0.00000  Uiso   1.00
H119   H     0.55415   0.41062   0.50807   0.00000  Uiso   1.00
H120   H     0.95622   0.61666   0.99271   0.00000  Uiso   1.00
H121   H     0.36947   0.08084   0.21998   0.00000  Uiso   1.00
H122   H     0.67185   0.43360   0.69331   0.00000  Uiso   1.00
H123   H     0.76530   0.31406   0.11048   0.00000  Uiso   1.00
H124   H     0.57009   0.42583   0.95815   0.00000  Uiso   1.00
H125   H     0.76607   0.17171   0.06592   0.00000  Uiso   1.00
H126   H     0.90946   0.33900   0.29038   0.00000  Uiso   1.00
H127   H     0.43296   0.55853   0.81602   0.00000  Uiso   1.00
H128   H     0.84622   0.02270   0.04330   0.00000  Uiso   1.00
H129   H     0.14859   0.37547   0.51662   0.00000  Uiso   1.00
O130   O     0.57719   0.66233   0.80785   0.00000  Uiso   1.00
O131   O     0.11938   0.95935   0.10605   0.00000  Uiso   1.00
O132   O     0.51609   0.42217   0.72705   0.00000  Uiso   1.00
N133   N     0.85987   0.58765   0.97204   0.00000  Uiso   1.00
N134   N     0.24622   0.08669   0.18451   0.00000  Uiso   1.00
N135   N     0.52893   0.41647   0.62705   0.00000  Uiso   1.00
N136   N     0.57831   0.55638   0.87697   0.00000  Uiso   1.00
N137   N     0.96466   0.05541   0.08944   0.00000  Uiso   1.00
N138   N     0.24737   0.38520   0.53197   0.00000  Uiso   1.00
C139   C     0.76356   0.86640   0.23043   0.00000  Uiso   1.00
C140   C     0.93615   0.91974   0.33565   0.00000  Uiso   1.00
C141   C     0.92442   0.98201   0.37117   0.00000  Uiso   1.00
C142   C     0.09912   0.02364   0.46970   0.00000  Uiso   1.00
C143   C     0.33976   0.10947   0.62387   0.00000  Uiso   1.00
C144   C     0.82968   0.78168   0.27712   0.00000  Uiso   1.00
C145   C     0.72842   0.72785   0.26340   0.00000  Uiso   1.00
C146   C     0.81350   0.65326   0.31263   0.00000  Uiso   1.00
C147   C     0.88877   0.52472   0.37585   0.00000  Uiso   1.00
C148   C     0.75178   0.87258   0.15516   0.00000  Uiso   1.00
C149   C     0.58500   0.89516   0.03889   0.00000  Uiso   1.00
C150   C     0.60447   0.89708   0.98543   0.00000  Uiso   1.00
C151   C     0.55878   0.90968   0.85930   0.00000  Uiso   1.00
C152   C     0.09468   0.82962   0.34224   0.00000  Uiso   1.00
C153   C     0.11599   0.89976   0.39638   0.00000  Uiso   1.00
C154   C     0.29076   0.94131   0.49487   0.00000  Uiso   1.00
C155   C     0.27929   0.00362   0.53053   0.00000  Uiso   1.00
C156   C     0.00952   0.76169   0.33784   0.00000  Uiso   1.00
C157   C     0.09476   0.68716   0.38710   0.00000  Uiso   1.00
C158   C     0.99367   0.63324   0.37347   0.00000  Uiso   1.00
C159   C     0.93163   0.85260   0.21589   0.00000  Uiso   1.00
C160   C     0.95135   0.85447   0.16260   0.00000  Uiso   1.00
C161   C     0.78464   0.87706   0.04627   0.00000  Uiso   1.00
H162   H     0.62355   0.88195   0.18316   0.00000  Uiso   1.00
H163   H     0.78521   0.99745   0.32416   0.00000  Uiso   1.00
H164   H     0.58924   0.74333   0.21639   0.00000  Uiso   1.00
H165   H     0.44585   0.91062   0.99193   0.00000  Uiso   1.00
H166   H     0.04378   0.11666   0.50729   0.00000  Uiso   1.00
H167   H     0.63053   0.58084   0.28002   0.00000  Uiso   1.00
H168   H     0.32815   0.93360   0.80669   0.00000  Uiso   1.00
H169   H     0.23470   0.81406   0.38952   0.00000  Uiso   1.00
H170   H     0.42991   0.92583   0.54185   0.00000  Uiso   1.00
H171   H     0.23393   0.67171   0.43408   0.00000  Uiso   1.00
H172   H     0.09054   0.83900   0.20962   0.00000  Uiso   1.00
H173   H     0.56704   0.05853   0.68398   0.00000  Uiso   1.00
H174   H     0.15378   0.52270   0.45670   0.00000  Uiso   1.00
H175   H     0.85141   0.87547   0.98338   0.00000  Uiso   1.00
O176   O     0.42281   0.16233   0.69215   0.00000  Uiso   1.00
O177   O     0.88062   0.45935   0.39395   0.00000  Uiso   1.00
O178   O     0.48391   0.92217   0.77295   0.00000  Uiso   1.00
N179   N     0.14013   0.08765   0.52796   0.00000  Uiso   1.00
N180   N     0.75378   0.58669   0.31549   0.00000  Uiso   1.00
N181   N     0.47107   0.91647   0.87295   0.00000  Uiso   1.00
N182   N     0.42169   0.05638   0.62303   0.00000  Uiso   1.00
N183   N     0.03534   0.55541   0.41056   0.00000  Uiso   1.00
N184   N     0.75263   0.88520   0.96803   0.00000  Uiso   1.00
