data_job_01577
_audit_creation_date              2018-12-19
_audit_creation_method            'Materials Studio'
_symmetry_space_group_name_H-M    'P1'
_symmetry_Int_Tables_number       1
_symmetry_cell_setting            triclinic
loop_
_symmetry_equiv_pos_as_xyz
  x,y,z
_cell_length_a                    10.2700
_cell_length_b                    10.2700
_cell_length_c                    17.9517
_cell_angle_alpha                 90.0000
_cell_angle_beta                  90.0000
_cell_angle_gamma                 120.0000
loop_
_atom_site_label
_atom_site_type_symbol
_atom_site_fract_x
_atom_site_fract_y
_atom_site_fract_z
_atom_site_U_iso_or_equiv
_atom_site_adp_type
_atom_site_occupancy
C1     C     0.72775   0.15382   0.51086   0.00000  Uiso   1.00
C2     C     0.67705   0.26511   0.53264   0.00000  Uiso   1.00
C3     C     0.53166   0.24048   0.52698   0.00000  Uiso   1.00
C4     C     0.50825   0.35634   0.54979   0.00000  Uiso   1.00
C5     C     0.41162   0.50856   0.57939   0.00000  Uiso   1.00
C6     C     0.85416   0.23512   0.45442   0.00000  Uiso   1.00
C7     C     0.85769   0.18526   0.38299   0.00000  Uiso   1.00
C8     C     0.98339   0.27588   0.33996   0.00000  Uiso   1.00
C9     C     0.16178   0.38148   0.24814   0.00000  Uiso   1.00
C10    C     0.80071   0.13225   0.58019   0.00000  Uiso   1.00
C11    C     0.75933   0.99590   0.61450   0.00000  Uiso   1.00
C12    C     0.84004   0.99990   0.67736   0.00000  Uiso   1.00
C13    C     0.93544   0.94579   0.78081   0.00000  Uiso   1.00
C14    C     0.94469   0.40339   0.56145   0.00000  Uiso   1.00
C15    C     0.79489   0.40067   0.56011   0.00000  Uiso   1.00
C16    C     0.77169   0.51660   0.58295   0.00000  Uiso   1.00
C17    C     0.62629   0.49214   0.57732   0.00000  Uiso   1.00
C18    C     0.97199   0.37068   0.48189   0.00000  Uiso   1.00
C19    C     0.09772   0.46138   0.43896   0.00000  Uiso   1.00
C20    C     0.10144   0.41168   0.36749   0.00000  Uiso   1.00
C21    C     0.91854   0.26781   0.60767   0.00000  Uiso   1.00
C22    C     0.99935   0.27203   0.67047   0.00000  Uiso   1.00
C23    C     0.95810   0.13571   0.70488   0.00000  Uiso   1.00
H24    H     0.63601   0.04828   0.48947   0.00000  Uiso   1.00
H25    H     0.44050   0.13556   0.50570   0.00000  Uiso   1.00
H26    H     0.76650   0.08035   0.36175   0.00000  Uiso   1.00
H27    H     0.66814   0.89102   0.59322   0.00000  Uiso   1.00
H28    H     0.27572   0.29212   0.53580   0.00000  Uiso   1.00
H29    H     0.96312   0.17568   0.23227   0.00000  Uiso   1.00
H30    H     0.75571   0.77644   0.72038   0.00000  Uiso   1.00
H31    H     0.03644   0.50893   0.58284   0.00000  Uiso   1.00
H32    H     0.86290   0.62149   0.60421   0.00000  Uiso   1.00
H33    H     0.18889   0.56627   0.46024   0.00000  Uiso   1.00
H34    H     0.09053   0.37695   0.69172   0.00000  Uiso   1.00
H35    H     0.61856   0.68652   0.61574   0.00000  Uiso   1.00
H36    H     0.30595   0.57008   0.31221   0.00000  Uiso   1.00
H37    H     0.09854   0.17084   0.80032   0.00000  Uiso   1.00
O38    O     0.32577   0.55507   0.58812   0.00000  Uiso   1.00
O39    O     0.22761   0.40229   0.18990   0.00000  Uiso   1.00
O40    O     0.95549   0.87850   0.83029   0.00000  Uiso   1.00
N41    N     0.38022   0.36949   0.55170   0.00000  Uiso   1.00
N42    N     0.02288   0.26063   0.26791   0.00000  Uiso   1.00
N43    N     0.82900   0.88737   0.72424   0.00000  Uiso   1.00
N44    N     0.56470   0.58171   0.59472   0.00000  Uiso   1.00
N45    N     0.20735   0.47286   0.31092   0.00000  Uiso   1.00
N46    N     0.01347   0.09960   0.76726   0.00000  Uiso   1.00
C47    C     0.84618   0.57393   0.17753   0.00000  Uiso   1.00
C48    C     0.73489   0.41194   0.19931   0.00000  Uiso   1.00
C49    C     0.75952   0.29119   0.19364   0.00000  Uiso   1.00
C50    C     0.64366   0.15191   0.21646   0.00000  Uiso   1.00
C51    C     0.49144   0.90306   0.24606   0.00000  Uiso   1.00
C52    C     0.76488   0.61904   0.12108   0.00000  Uiso   1.00
C53    C     0.81474   0.67243   0.04966   0.00000  Uiso   1.00
C54    C     0.72412   0.70751   0.00663   0.00000  Uiso   1.00
C55    C     0.61852   0.78029   0.91481   0.00000  Uiso   1.00
C56    C     0.86775   0.66845   0.24685   0.00000  Uiso   1.00
C57    C     0.00410   0.76343   0.28117   0.00000  Uiso   1.00
C58    C     0.00010   0.84014   0.34402   0.00000  Uiso   1.00
C59    C     0.05421   0.98964   0.44748   0.00000  Uiso   1.00
C60    C     0.59661   0.54130   0.22811   0.00000  Uiso   1.00
C61    C     0.59933   0.39422   0.22678   0.00000  Uiso   1.00
C62    C     0.48340   0.25509   0.24961   0.00000  Uiso   1.00
C63    C     0.50786   0.13415   0.24399   0.00000  Uiso   1.00
C64    C     0.62932   0.60132   0.14856   0.00000  Uiso   1.00
C65    C     0.53862   0.63634   0.10563   0.00000  Uiso   1.00
C66    C     0.58832   0.68976   0.03416   0.00000  Uiso   1.00
C67    C     0.73219   0.65073   0.27433   0.00000  Uiso   1.00
C68    C     0.72797   0.72732   0.33714   0.00000  Uiso   1.00
C69    C     0.86429   0.82239   0.37155   0.00000  Uiso   1.00
H70    H     0.95172   0.58773   0.15613   0.00000  Uiso   1.00
H71    H     0.86444   0.30495   0.17237   0.00000  Uiso   1.00
H72    H     0.91965   0.68615   0.02841   0.00000  Uiso   1.00
H73    H     0.10898   0.77711   0.25989   0.00000  Uiso   1.00
H74    H     0.70788   0.98360   0.20247   0.00000  Uiso   1.00
H75    H     0.82432   0.78743   0.89893   0.00000  Uiso   1.00
H76    H     0.22356   0.97927   0.38705   0.00000  Uiso   1.00
H77    H     0.49107   0.52751   0.24951   0.00000  Uiso   1.00
H78    H     0.37851   0.24141   0.27087   0.00000  Uiso   1.00
H79    H     0.43373   0.62262   0.12691   0.00000  Uiso   1.00
H80    H     0.62305   0.71358   0.35839   0.00000  Uiso   1.00
H81    H     0.31348   0.93203   0.28241   0.00000  Uiso   1.00
H82    H     0.42992   0.73588   0.97887   0.00000  Uiso   1.00
H83    H     0.82916   0.92770   0.46699   0.00000  Uiso   1.00
O84    O     0.44493   0.77069   0.25479   0.00000  Uiso   1.00
O85    O     0.59771   0.82532   0.85657   0.00000  Uiso   1.00
O86    O     0.12150   0.07699   0.49696   0.00000  Uiso   1.00
N87    N     0.63051   0.01073   0.21836   0.00000  Uiso   1.00
N88    N     0.73937   0.76225   0.93457   0.00000  Uiso   1.00
N89    N     0.11263   0.94162   0.39091   0.00000  Uiso   1.00
N90    N     0.41829   0.98299   0.26138   0.00000  Uiso   1.00
N91    N     0.52714   0.73450   0.97759   0.00000  Uiso   1.00
N92    N     0.90040   0.91388   0.43392   0.00000  Uiso   1.00
C93    C     0.42607   0.27225   0.84420   0.00000  Uiso   1.00
C94    C     0.58806   0.32295   0.86597   0.00000  Uiso   1.00
C95    C     0.70881   0.46834   0.86031   0.00000  Uiso   1.00
C96    C     0.84809   0.49175   0.88313   0.00000  Uiso   1.00
C97    C     0.09694   0.58838   0.91273   0.00000  Uiso   1.00
C98    C     0.38096   0.14584   0.78775   0.00000  Uiso   1.00
C99    C     0.32757   0.14231   0.71633   0.00000  Uiso   1.00
C100   C     0.29249   0.01661   0.67330   0.00000  Uiso   1.00
C101   C     0.21971   0.83822   0.58148   0.00000  Uiso   1.00
C102   C     0.33155   0.19929   0.91352   0.00000  Uiso   1.00
C103   C     0.23657   0.24067   0.94784   0.00000  Uiso   1.00
C104   C     0.15986   0.15996   0.01069   0.00000  Uiso   1.00
C105   C     0.01036   0.06456   0.11415   0.00000  Uiso   1.00
C106   C     0.45870   0.05531   0.89478   0.00000  Uiso   1.00
C107   C     0.60578   0.20511   0.89345   0.00000  Uiso   1.00
C108   C     0.74491   0.22831   0.91628   0.00000  Uiso   1.00
C109   C     0.86585   0.37371   0.91066   0.00000  Uiso   1.00
C110   C     0.39868   0.02801   0.81522   0.00000  Uiso   1.00
C111   C     0.36366   0.90228   0.77229   0.00000  Uiso   1.00
C112   C     0.31024   0.89856   0.70082   0.00000  Uiso   1.00
C113   C     0.34927   0.08146   0.94100   0.00000  Uiso   1.00
C114   C     0.27268   0.00065   0.00381   0.00000  Uiso   1.00
C115   C     0.17761   0.04190   0.03821   0.00000  Uiso   1.00
H116   H     0.41227   0.36399   0.82280   0.00000  Uiso   1.00
H117   H     0.69505   0.55950   0.83904   0.00000  Uiso   1.00
H118   H     0.31385   0.23350   0.69508   0.00000  Uiso   1.00
H119   H     0.22289   0.33186   0.92656   0.00000  Uiso   1.00
H120   H     0.01640   0.72428   0.86913   0.00000  Uiso   1.00
H121   H     0.21257   0.03688   0.56560   0.00000  Uiso   1.00
H122   H     0.02073   0.24429   0.05371   0.00000  Uiso   1.00
H123   H     0.47249   0.96356   0.91617   0.00000  Uiso   1.00
H124   H     0.75859   0.13710   0.93754   0.00000  Uiso   1.00
H125   H     0.37738   0.81111   0.79358   0.00000  Uiso   1.00
H126   H     0.28642   0.90947   0.02505   0.00000  Uiso   1.00
H127   H     0.06797   0.38144   0.94908   0.00000  Uiso   1.00
H128   H     0.26412   0.69405   0.64554   0.00000  Uiso   1.00
H129   H     0.07230   0.90146   0.13366   0.00000  Uiso   1.00
O130   O     0.22931   0.67423   0.92145   0.00000  Uiso   1.00
O131   O     0.17468   0.77239   0.52323   0.00000  Uiso   1.00
O132   O     0.92301   0.04451   0.16363   0.00000  Uiso   1.00
N133   N     0.98927   0.61978   0.88503   0.00000  Uiso   1.00
N134   N     0.23775   0.97712   0.60124   0.00000  Uiso   1.00
N135   N     0.05838   0.17100   0.05757   0.00000  Uiso   1.00
N136   N     0.01701   0.43530   0.92805   0.00000  Uiso   1.00
N137   N     0.26550   0.79265   0.64426   0.00000  Uiso   1.00
N138   N     0.08612   0.98653   0.10059   0.00000  Uiso   1.00
