data_job_06719
_audit_creation_date              2018-12-19
_audit_creation_method            'Materials Studio'
_symmetry_space_group_name_H-M    'P1'
_symmetry_Int_Tables_number       1
_symmetry_cell_setting            triclinic
loop_
_symmetry_equiv_pos_as_xyz
  x,y,z
_cell_length_a                    20.9633
_cell_length_b                    20.6606
_cell_length_c                    19.7991
_cell_angle_alpha                 88.8533
_cell_angle_beta                  76.4954
_cell_angle_gamma                 97.0653
loop_
_atom_site_label
_atom_site_type_symbol
_atom_site_fract_x
_atom_site_fract_y
_atom_site_fract_z
_atom_site_U_iso_or_equiv
_atom_site_adp_type
_atom_site_occupancy
C1     C     0.16812   0.48535   0.53577   0.00000  Uiso   1.00
C2     C     0.12311   0.47960   0.60884   0.00000  Uiso   1.00
C3     C     0.09699   0.53072   0.64534   0.00000  Uiso   1.00
C4     C     0.05690   0.51539   0.71153   0.00000  Uiso   1.00
C5     C     0.98907   0.51623   0.82065   0.00000  Uiso   1.00
C6     C     0.23048   0.45696   0.54179   0.00000  Uiso   1.00
C7     C     0.29463   0.48905   0.52191   0.00000  Uiso   1.00
C8     C     0.34493   0.45465   0.53166   0.00000  Uiso   1.00
C9     C     0.44379   0.42032   0.53664   0.00000  Uiso   1.00
C10    C     0.13384   0.43853   0.49276   0.00000  Uiso   1.00
C11    C     0.11675   0.45512   0.43164   0.00000  Uiso   1.00
C12    C     0.08569   0.40521   0.40010   0.00000  Uiso   1.00
C13    C     0.03451   0.34227   0.32895   0.00000  Uiso   1.00
C14    C     0.14338   0.36721   0.58841   0.00000  Uiso   1.00
C15    C     0.10967   0.41543   0.63743   0.00000  Uiso   1.00
C16    C     0.06961   0.40001   0.70358   0.00000  Uiso   1.00
C17    C     0.04343   0.45111   0.74018   0.00000  Uiso   1.00
C18    C     0.21704   0.39279   0.57038   0.00000  Uiso   1.00
C19    C     0.26725   0.35833   0.58016   0.00000  Uiso   1.00
C20    C     0.33146   0.39036   0.56030   0.00000  Uiso   1.00
C21    C     0.12039   0.37436   0.52135   0.00000  Uiso   1.00
C22    C     0.08936   0.32441   0.48989   0.00000  Uiso   1.00
C23    C     0.07223   0.34092   0.42874   0.00000  Uiso   1.00
H24    H     0.17859   0.53531   0.51351   0.00000  Uiso   1.00
H25    H     0.10741   0.58038   0.62320   0.00000  Uiso   1.00
H26    H     0.30502   0.53870   0.49978   0.00000  Uiso   1.00
H27    H     0.12716   0.50479   0.40953   0.00000  Uiso   1.00
H28    H     0.02258   0.60205   0.75742   0.00000  Uiso   1.00
H29    H     0.43925   0.51417   0.49717   0.00000  Uiso   1.00
H30    H     0.06420   0.44265   0.30687   0.00000  Uiso   1.00
H31    H     0.13291   0.31724   0.61067   0.00000  Uiso   1.00
H32    H     0.05921   0.35035   0.72570   0.00000  Uiso   1.00
H33    H     0.25683   0.30868   0.60228   0.00000  Uiso   1.00
H34    H     0.07897   0.27476   0.51203   0.00000  Uiso   1.00
H35    H     0.98346   0.41535   0.84062   0.00000  Uiso   1.00
H36    H     0.40014   0.32747   0.58037   0.00000  Uiso   1.00
H37    H     0.02509   0.25595   0.39006   0.00000  Uiso   1.00
O38    O     0.95538   0.53442   0.87294   0.00000  Uiso   1.00
O39    O     0.50204   0.41912   0.53149   0.00000  Uiso   1.00
O40    O     0.00999   0.32528   0.28182   0.00000  Uiso   1.00
N41    N     0.02347   0.55357   0.76121   0.00000  Uiso   1.00
N42    N     0.41304   0.47141   0.51791   0.00000  Uiso   1.00
N43    N     0.06242   0.40454   0.33997   0.00000  Uiso   1.00
N44    N     0.00243   0.45311   0.80598   0.00000  Uiso   1.00
N45    N     0.39199   0.37094   0.56267   0.00000  Uiso   1.00
N46    N     0.04137   0.30408   0.38474   0.00000  Uiso   1.00
C47    C     0.46069   0.16176   0.39126   0.00000  Uiso   1.00
C48    C     0.51600   0.20320   0.41502   0.00000  Uiso   1.00
C49    C     0.51048   0.23024   0.47940   0.00000  Uiso   1.00
C50    C     0.56679   0.26660   0.49108   0.00000  Uiso   1.00
C51    C     0.64359   0.32961   0.53571   0.00000  Uiso   1.00
C52    C     0.45464   0.19582   0.32442   0.00000  Uiso   1.00
C53    C     0.39754   0.21665   0.31263   0.00000  Uiso   1.00
C54    C     0.40220   0.24679   0.24803   0.00000  Uiso   1.00
C55    C     0.38374   0.29830   0.15199   0.00000  Uiso   1.00
C56    C     0.48668   0.09756   0.37009   0.00000  Uiso   1.00
C57    C     0.45650   0.03577   0.39667   0.00000  Uiso   1.00
C58    C     0.48813   0.98318   0.37051   0.00000  Uiso   1.00
C59    C     0.51940   0.88213   0.34537   0.00000  Uiso   1.00
C60    C     0.57051   0.17824   0.29751   0.00000  Uiso   1.00
C61    C     0.57565   0.21215   0.36410   0.00000  Uiso   1.00
C62    C     0.63199   0.24848   0.37568   0.00000  Uiso   1.00
C63    C     0.62655   0.27557   0.44007   0.00000  Uiso   1.00
C64    C     0.51429   0.20477   0.27350   0.00000  Uiso   1.00
C65    C     0.51904   0.23489   0.20891   0.00000  Uiso   1.00
C66    C     0.46196   0.25576   0.19702   0.00000  Uiso   1.00
C67    C     0.54633   0.10651   0.31917   0.00000  Uiso   1.00
C68    C     0.57801   0.05401   0.29295   0.00000  Uiso   1.00
C69    C     0.54789   0.99215   0.31950   0.00000  Uiso   1.00
H70    H     0.41424   0.15479   0.43090   0.00000  Uiso   1.00
H71    H     0.46430   0.22331   0.51880   0.00000  Uiso   1.00
H72    H     0.35138   0.20971   0.35204   0.00000  Uiso   1.00
H73    H     0.41034   0.02886   0.43608   0.00000  Uiso   1.00
H74    H     0.54611   0.30323   0.59378   0.00000  Uiso   1.00
H75    H     0.30800   0.27455   0.24216   0.00000  Uiso   1.00
H76    H     0.43231   0.89319   0.41936   0.00000  Uiso   1.00
H77    H     0.61695   0.18521   0.25786   0.00000  Uiso   1.00
H78    H     0.67814   0.25540   0.33627   0.00000  Uiso   1.00
H79    H     0.56521   0.24180   0.16951   0.00000  Uiso   1.00
H80    H     0.62417   0.06095   0.25355   0.00000  Uiso   1.00
H81    H     0.71966   0.32928   0.44563   0.00000  Uiso   1.00
H82    H     0.48155   0.30059   0.09401   0.00000  Uiso   1.00
H83    H     0.60587   0.91924   0.27121   0.00000  Uiso   1.00
O84    O     0.66947   0.36190   0.57439   0.00000  Uiso   1.00
O85    O     0.35707   0.32425   0.11308   0.00000  Uiso   1.00
O86    O     0.52018   0.82392   0.34557   0.00000  Uiso   1.00
N87    N     0.57856   0.29972   0.54816   0.00000  Uiso   1.00
N88    N     0.35594   0.27291   0.21942   0.00000  Uiso   1.00
N89    N     0.47216   0.91637   0.38508   0.00000  Uiso   1.00
N90    N     0.67195   0.31374   0.46844   0.00000  Uiso   1.00
N91    N     0.44933   0.28693   0.13970   0.00000  Uiso   1.00
N92    N     0.56555   0.93039   0.30536   0.00000  Uiso   1.00
C93    C     0.41712   0.60705   0.14118   0.00000  Uiso   1.00
C94    C     0.46975   0.65916   0.09855   0.00000  Uiso   1.00
C95    C     0.53617   0.66816   0.09975   0.00000  Uiso   1.00
C96    C     0.57633   0.71856   0.05692   0.00000  Uiso   1.00
C97    C     0.66191   0.79342   0.99720   0.00000  Uiso   1.00
C98    C     0.36304   0.64356   0.18249   0.00000  Uiso   1.00
C99    C     0.33973   0.63945   0.25427   0.00000  Uiso   1.00
C100   C     0.29004   0.67672   0.28210   0.00000  Uiso   1.00
C101   C     0.20992   0.72733   0.35270   0.00000  Uiso   1.00
C102   C     0.38649   0.56880   0.08893   0.00000  Uiso   1.00
C103   C     0.38288   0.50182   0.08205   0.00000  Uiso   1.00
C104   C     0.35293   0.47614   0.03112   0.00000  Uiso   1.00
C105   C     0.30922   0.41067   0.95646   0.00000  Uiso   1.00
C106   C     0.37031   0.68055   0.06299   0.00000  Uiso   1.00
C107   C     0.44433   0.69908   0.05608   0.00000  Uiso   1.00
C108   C     0.48439   0.74948   0.01323   0.00000  Uiso   1.00
C109   C     0.55086   0.75856   0.01437   0.00000  Uiso   1.00
C110   C     0.33761   0.68349   0.14002   0.00000  Uiso   1.00
C111   C     0.28794   0.72077   0.16775   0.00000  Uiso   1.00
C112   C     0.26457   0.71671   0.23955   0.00000  Uiso   1.00
C113   C     0.36107   0.60872   0.04646   0.00000  Uiso   1.00
C114   C     0.33110   0.58314   0.99553   0.00000  Uiso   1.00
C115   C     0.32746   0.51613   0.98857   0.00000  Uiso   1.00
H116   H     0.43691   0.57597   0.17425   0.00000  Uiso   1.00
H117   H     0.55583   0.63726   0.13263   0.00000  Uiso   1.00
H118   H     0.35941   0.60855   0.28712   0.00000  Uiso   1.00
H119   H     0.40256   0.47094   0.11493   0.00000  Uiso   1.00
H120   H     0.67646   0.72283   0.06777   0.00000  Uiso   1.00
H121   H     0.26228   0.66227   0.39352   0.00000  Uiso   1.00
H122   H     0.35327   0.37210   0.03042   0.00000  Uiso   1.00
H123   H     0.35052   0.71163   0.02992   0.00000  Uiso   1.00
H124   H     0.46470   0.78037   0.98037   0.00000  Uiso   1.00
H125   H     0.26828   0.75165   0.13487   0.00000  Uiso   1.00
H126   H     0.31144   0.61405   0.96267   0.00000  Uiso   1.00
H127   H     0.60250   0.83898   0.94419   0.00000  Uiso   1.00
H128   H     0.18831   0.77842   0.26995   0.00000  Uiso   1.00
H129   H     0.27931   0.48825   0.90685   0.00000  Uiso   1.00
O130   O     0.71614   0.82369   0.97601   0.00000  Uiso   1.00
O131   O     0.17275   0.74422   0.40338   0.00000  Uiso   1.00
O132   O     0.29214   0.36353   0.92700   0.00000  Uiso   1.00
N133   N     0.64338   0.74073   0.04547   0.00000  Uiso   1.00
N134   N     0.25616   0.68411   0.35004   0.00000  Uiso   1.00
N135   N     0.34122   0.41283   0.01058   0.00000  Uiso   1.00
N136   N     0.60358   0.80323   0.97898   0.00000  Uiso   1.00
N137   N     0.21636   0.74661   0.28354   0.00000  Uiso   1.00
N138   N     0.30142   0.47533   0.94408   0.00000  Uiso   1.00
C139   C     0.64620   0.96972   0.86302   0.00000  Uiso   1.00
C140   C     0.68554   0.00510   0.91019   0.00000  Uiso   1.00
C141   C     0.69574   0.97899   0.97135   0.00000  Uiso   1.00
C142   C     0.73316   0.01924   0.00703   0.00000  Uiso   1.00
C143   C     0.79028   0.06443   0.08400   0.00000  Uiso   1.00
C144   C     0.69321   0.97288   0.79116   0.00000  Uiso   1.00
C145   C     0.70984   0.91968   0.75224   0.00000  Uiso   1.00
C146   C     0.75371   0.93281   0.68770   0.00000  Uiso   1.00
C147   C     0.82270   0.92798   0.57986   0.00000  Uiso   1.00
C148   C     0.59296   0.01197   0.85660   0.00000  Uiso   1.00
C149   C     0.52531   0.99165   0.87268   0.00000  Uiso   1.00
C150   C     0.48478   0.03770   0.86323   0.00000  Uiso   1.00
C151   C     0.39813   0.09356   0.85700   0.00000  Uiso   1.00
C152   C     0.69451   0.08762   0.81763   0.00000  Uiso   1.00
C153   C     0.71178   0.06914   0.88553   0.00000  Uiso   1.00
C154   C     0.74919   0.10944   0.92113   0.00000  Uiso   1.00
C155   C     0.75945   0.08340   0.98233   0.00000  Uiso   1.00
C156   C     0.71945   0.03691   0.76650   0.00000  Uiso   1.00
C157   C     0.76330   0.05013   0.70201   0.00000  Uiso   1.00
C158   C     0.78000   0.99697   0.66300   0.00000  Uiso   1.00
C159   C     0.61920   0.07602   0.83195   0.00000  Uiso   1.00
C160   C     0.57877   0.12210   0.82246   0.00000  Uiso   1.00
C161   C     0.51108   0.10185   0.83853   0.00000  Uiso   1.00
H162   H     0.62577   0.91986   0.88222   0.00000  Uiso   1.00
H163   H     0.67543   0.92943   0.99041   0.00000  Uiso   1.00
H164   H     0.68952   0.87013   0.77133   0.00000  Uiso   1.00
H165   H     0.50502   0.94209   0.89176   0.00000  Uiso   1.00
H166   H     0.74208   0.96827   0.09948   0.00000  Uiso   1.00
H167   H     0.77178   0.84324   0.63752   0.00000  Uiso   1.00
H168   H     0.38273   0.99498   0.89148   0.00000  Uiso   1.00
H169   H     0.71494   0.13748   0.79843   0.00000  Uiso   1.00
H170   H     0.76950   0.15899   0.90203   0.00000  Uiso   1.00
H171   H     0.78359   0.09969   0.68295   0.00000  Uiso   1.00
H172   H     0.59910   0.17165   0.80338   0.00000  Uiso   1.00
H173   H     0.81843   0.15459   0.02775   0.00000  Uiso   1.00
H174   H     0.84813   0.02956   0.56578   0.00000  Uiso   1.00
H175   H     0.45908   0.18130   0.81974   0.00000  Uiso   1.00
O176   O     0.81455   0.07165   0.13327   0.00000  Uiso   1.00
O177   O     0.85351   0.90761   0.52719   0.00000  Uiso   1.00
O178   O     0.34308   0.10669   0.86038   0.00000  Uiso   1.00
N179   N     0.75255   0.00918   0.06839   0.00000  Uiso   1.00
N180   N     0.78033   0.89228   0.63649   0.00000  Uiso   1.00
N181   N     0.41660   0.03414   0.87390   0.00000  Uiso   1.00
N182   N     0.79363   0.10943   0.02979   0.00000  Uiso   1.00
N183   N     0.82141   0.99253   0.59789   0.00000  Uiso   1.00
N184   N     0.45768   0.13439   0.83530   0.00000  Uiso   1.00
C185   C     0.09255   0.95279   0.65786   0.00000  Uiso   1.00
C186   C     0.15562   0.00136   0.63785   0.00000  Uiso   1.00
C187   C     0.16113   0.06690   0.65263   0.00000  Uiso   1.00
C188   C     0.22315   0.10316   0.62988   0.00000  Uiso   1.00
C189   C     0.31281   0.18287   0.60435   0.00000  Uiso   1.00
C190   C     0.10869   0.89694   0.69982   0.00000  Uiso   1.00
C191   C     0.07474   0.87469   0.76669   0.00000  Uiso   1.00
C192   C     0.09725   0.82304   0.79610   0.00000  Uiso   1.00
C193   C     0.11402   0.74061   0.86676   0.00000  Uiso   1.00
C194   C     0.08208   0.92432   0.59021   0.00000  Uiso   1.00
C195   C     0.02574   0.92507   0.56492   0.00000  Uiso   1.00
C196   C     0.02584   0.89645   0.50204   0.00000  Uiso   1.00
C197   C     0.00130   0.85653   0.40252   0.00000  Uiso   1.00
C198   C     0.19289   0.90062   0.59117   0.00000  Uiso   1.00
C199   C     0.21013   0.97302   0.60163   0.00000  Uiso   1.00
C200   C     0.27215   0.00918   0.57885   0.00000  Uiso   1.00
C201   C     0.27775   0.07477   0.59359   0.00000  Uiso   1.00
C202   C     0.16320   0.86860   0.66360   0.00000  Uiso   1.00
C203   C     0.18576   0.81697   0.69291   0.00000  Uiso   1.00
C204   C     0.15185   0.79465   0.75981   0.00000  Uiso   1.00
C205   C     0.13659   0.89598   0.55398   0.00000  Uiso   1.00
C206   C     0.13677   0.86735   0.49114   0.00000  Uiso   1.00
C207   C     0.08044   0.86806   0.46576   0.00000  Uiso   1.00
H208   H     0.05011   0.97485   0.68606   0.00000  Uiso   1.00
H209   H     0.11894   0.08881   0.68067   0.00000  Uiso   1.00
H210   H     0.03256   0.89662   0.79471   0.00000  Uiso   1.00
H211   H     0.98358   0.94700   0.59297   0.00000  Uiso   1.00
H212   H     0.21929   0.20266   0.65874   0.00000  Uiso   1.00
H213   H     0.03713   0.79740   0.89919   0.00000  Uiso   1.00
H214   H     0.93385   0.90363   0.47378   0.00000  Uiso   1.00
H215   H     0.23533   0.87856   0.56297   0.00000  Uiso   1.00
H216   H     0.31432   0.98724   0.55082   0.00000  Uiso   1.00
H217   H     0.22794   0.79505   0.66486   0.00000  Uiso   1.00
H218   H     0.17896   0.84543   0.46312   0.00000  Uiso   1.00
H219   H     0.37787   0.12022   0.55335   0.00000  Uiso   1.00
H220   H     0.19571   0.71496   0.79381   0.00000  Uiso   1.00
H221   H     0.09242   0.82119   0.36839   0.00000  Uiso   1.00
O222   O     0.34721   0.23467   0.60029   0.00000  Uiso   1.00
O223   O     0.10822   0.70298   0.91575   0.00000  Uiso   1.00
O224   O     0.97271   0.84235   0.35762   0.00000  Uiso   1.00
N225   N     0.24577   0.16835   0.63559   0.00000  Uiso   1.00
N226   N     0.07547   0.78946   0.86040   0.00000  Uiso   1.00
N227   N     0.97890   0.88876   0.46269   0.00000  Uiso   1.00
N228   N     0.33110   0.12399   0.57888   0.00000  Uiso   1.00
N229   N     0.16080   0.74510   0.80370   0.00000  Uiso   1.00
N230   N     0.06423   0.84440   0.40598   0.00000  Uiso   1.00
C231   C     0.95750   0.62788   0.03598   0.00000  Uiso   1.00
C232   C     0.98036   0.67306   0.08811   0.00000  Uiso   1.00
C233   C     0.04484   0.68656   0.09540   0.00000  Uiso   1.00
C234   C     0.05561   0.72919   0.14612   0.00000  Uiso   1.00
C235   C     0.09901   0.79510   0.22066   0.00000  Uiso   1.00
C236   C     0.92326   0.66892   0.99399   0.00000  Uiso   1.00
C237   C     0.93972   0.67892   0.92216   0.00000  Uiso   1.00
C238   C     0.90241   0.71806   0.89366   0.00000  Uiso   1.00
C239   C     0.85712   0.77749   0.82208   0.00000  Uiso   1.00
C240   C     0.90340   0.57711   0.07869   0.00000  Uiso   1.00
C241   C     0.90316   0.50993   0.07805   0.00000  Uiso   1.00
C242   C     0.84912   0.47177   0.12084   0.00000  Uiso   1.00
C243   C     0.77301   0.38866   0.18077   0.00000  Uiso   1.00
C244   C     0.86195   0.67959   0.11309   0.00000  Uiso   1.00
C245   C     0.92846   0.70115   0.12999   0.00000  Uiso   1.00
C246   C     0.93913   0.74377   0.18071   0.00000  Uiso   1.00
C247   C     0.00362   0.75733   0.18808   0.00000  Uiso   1.00
C248   C     0.87136   0.69700   0.03587   0.00000  Uiso   1.00
C249   C     0.83401   0.73613   0.00747   0.00000  Uiso   1.00
C250   C     0.85041   0.74620   0.93561   0.00000  Uiso   1.00
C251   C     0.85150   0.60520   0.12057   0.00000  Uiso   1.00
C252   C     0.79745   0.56714   0.16337   0.00000  Uiso   1.00
C253   C     0.79713   0.49991   0.16280   0.00000  Uiso   1.00
H254   H     0.99790   0.60602   0.00337   0.00000  Uiso   1.00
H255   H     0.08499   0.66482   0.06297   0.00000  Uiso   1.00
H256   H     0.97988   0.65718   0.88976   0.00000  Uiso   1.00
H257   H     0.94333   0.48821   0.04563   0.00000  Uiso   1.00
H258   H     0.15867   0.74241   0.14750   0.00000  Uiso   1.00
H259   H     0.93702   0.72628   0.78227   0.00000  Uiso   1.00
H260   H     0.85994   0.36998   0.11096   0.00000  Uiso   1.00
H261   H     0.82154   0.70146   0.14570   0.00000  Uiso   1.00
H262   H     0.89896   0.76550   0.21311   0.00000  Uiso   1.00
H263   H     0.79385   0.75786   0.03990   0.00000  Uiso   1.00
H264   H     0.75730   0.58889   0.19577   0.00000  Uiso   1.00
H265   H     0.00768   0.82414   0.26936   0.00000  Uiso   1.00
H266   H     0.78603   0.80800   0.90413   0.00000  Uiso   1.00
H267   H     0.70895   0.45170   0.23282   0.00000  Uiso   1.00
O268   O     0.13729   0.82370   0.25019   0.00000  Uiso   1.00
O269   O     0.84648   0.80252   0.77103   0.00000  Uiso   1.00
O270   O     0.74536   0.33506   0.20226   0.00000  Uiso   1.00
N271   N     0.11251   0.75285   0.16694   0.00000  Uiso   1.00
N272   N     0.90528   0.73777   0.82547   0.00000  Uiso   1.00
N273   N     0.83321   0.40466   0.13275   0.00000  Uiso   1.00
N274   N     0.03126   0.79682   0.23251   0.00000  Uiso   1.00
N275   N     0.82404   0.78175   0.89104   0.00000  Uiso   1.00
N276   N     0.75197   0.44864   0.19832   0.00000  Uiso   1.00
C277   C     0.83188   0.51465   0.46423   0.00000  Uiso   1.00
C278   C     0.87689   0.52040   0.39116   0.00000  Uiso   1.00
C279   C     0.90301   0.46928   0.35466   0.00000  Uiso   1.00
C280   C     0.94310   0.48461   0.28847   0.00000  Uiso   1.00
C281   C     0.01093   0.48377   0.17935   0.00000  Uiso   1.00
C282   C     0.76952   0.54304   0.45821   0.00000  Uiso   1.00
C283   C     0.70537   0.51095   0.47809   0.00000  Uiso   1.00
C284   C     0.65507   0.54535   0.46834   0.00000  Uiso   1.00
C285   C     0.55621   0.57968   0.46336   0.00000  Uiso   1.00
C286   C     0.86616   0.56147   0.50724   0.00000  Uiso   1.00
C287   C     0.88325   0.54488   0.56836   0.00000  Uiso   1.00
C288   C     0.91431   0.59479   0.59990   0.00000  Uiso   1.00
C289   C     0.96549   0.65773   0.67105   0.00000  Uiso   1.00
C290   C     0.85662   0.63279   0.41159   0.00000  Uiso   1.00
C291   C     0.89033   0.58457   0.36257   0.00000  Uiso   1.00
C292   C     0.93039   0.59999   0.29642   0.00000  Uiso   1.00
C293   C     0.95657   0.54889   0.25982   0.00000  Uiso   1.00
C294   C     0.78296   0.60721   0.42962   0.00000  Uiso   1.00
C295   C     0.73275   0.64167   0.41984   0.00000  Uiso   1.00
C296   C     0.66854   0.60964   0.43970   0.00000  Uiso   1.00
C297   C     0.87961   0.62564   0.47865   0.00000  Uiso   1.00
C298   C     0.91064   0.67559   0.51011   0.00000  Uiso   1.00
C299   C     0.92777   0.65908   0.57126   0.00000  Uiso   1.00
H300   H     0.82141   0.46469   0.48649   0.00000  Uiso   1.00
H301   H     0.89259   0.41962   0.37680   0.00000  Uiso   1.00
H302   H     0.69498   0.46130   0.50022   0.00000  Uiso   1.00
H303   H     0.87284   0.49521   0.59047   0.00000  Uiso   1.00
H304   H     0.97742   0.39795   0.24258   0.00000  Uiso   1.00
H305   H     0.56075   0.48583   0.50283   0.00000  Uiso   1.00
H306   H     0.93580   0.55735   0.69313   0.00000  Uiso   1.00
H307   H     0.86709   0.68276   0.38933   0.00000  Uiso   1.00
H308   H     0.94079   0.64965   0.27430   0.00000  Uiso   1.00
H309   H     0.74317   0.69132   0.39772   0.00000  Uiso   1.00
H310   H     0.92103   0.72524   0.48797   0.00000  Uiso   1.00
H311   H     0.01654   0.58465   0.15938   0.00000  Uiso   1.00
H312   H     0.59986   0.67253   0.41963   0.00000  Uiso   1.00
H313   H     0.97491   0.74405   0.60994   0.00000  Uiso   1.00
O314   O     0.04462   0.46558   0.12706   0.00000  Uiso   1.00
O315   O     0.49796   0.58088   0.46851   0.00000  Uiso   1.00
O316   O     0.99001   0.67472   0.71818   0.00000  Uiso   1.00
N317   N     0.97653   0.44643   0.23879   0.00000  Uiso   1.00
N318   N     0.58696   0.52859   0.48209   0.00000  Uiso   1.00
N319   N     0.93758   0.59546   0.66003   0.00000  Uiso   1.00
N320   N     0.99757   0.54689   0.19402   0.00000  Uiso   1.00
N321   N     0.60801   0.62906   0.43733   0.00000  Uiso   1.00
N322   N     0.95863   0.69592   0.61526   0.00000  Uiso   1.00
C323   C     0.53931   0.83824   0.60874   0.00000  Uiso   1.00
C324   C     0.48400   0.79680   0.58498   0.00000  Uiso   1.00
C325   C     0.48952   0.76976   0.52060   0.00000  Uiso   1.00
C326   C     0.43321   0.73340   0.50892   0.00000  Uiso   1.00
C327   C     0.35641   0.67039   0.46429   0.00000  Uiso   1.00
C328   C     0.54536   0.80418   0.67558   0.00000  Uiso   1.00
C329   C     0.60246   0.78335   0.68737   0.00000  Uiso   1.00
C330   C     0.59780   0.75321   0.75197   0.00000  Uiso   1.00
C331   C     0.61626   0.70170   0.84801   0.00000  Uiso   1.00
C332   C     0.51332   0.90244   0.62991   0.00000  Uiso   1.00
C333   C     0.54350   0.96423   0.60333   0.00000  Uiso   1.00
C334   C     0.51187   0.01682   0.62949   0.00000  Uiso   1.00
C335   C     0.48060   0.11787   0.65463   0.00000  Uiso   1.00
C336   C     0.42949   0.82176   0.70249   0.00000  Uiso   1.00
C337   C     0.42435   0.78785   0.63590   0.00000  Uiso   1.00
C338   C     0.36801   0.75152   0.62432   0.00000  Uiso   1.00
C339   C     0.37345   0.72443   0.55993   0.00000  Uiso   1.00
C340   C     0.48571   0.79523   0.72650   0.00000  Uiso   1.00
C341   C     0.48096   0.76511   0.79109   0.00000  Uiso   1.00
C342   C     0.53804   0.74424   0.80298   0.00000  Uiso   1.00
C343   C     0.45367   0.89349   0.68083   0.00000  Uiso   1.00
C344   C     0.42199   0.94599   0.70705   0.00000  Uiso   1.00
C345   C     0.45211   0.00785   0.68050   0.00000  Uiso   1.00
H346   H     0.58576   0.84521   0.56910   0.00000  Uiso   1.00
H347   H     0.53570   0.77669   0.48120   0.00000  Uiso   1.00
H348   H     0.64862   0.79029   0.64796   0.00000  Uiso   1.00
H349   H     0.58966   0.97114   0.56392   0.00000  Uiso   1.00
H350   H     0.45389   0.69677   0.40622   0.00000  Uiso   1.00
H351   H     0.69200   0.72545   0.75784   0.00000  Uiso   1.00
H352   H     0.56769   0.10681   0.58064   0.00000  Uiso   1.00
H353   H     0.38305   0.81479   0.74214   0.00000  Uiso   1.00
H354   H     0.32186   0.74460   0.66373   0.00000  Uiso   1.00
H355   H     0.43479   0.75820   0.83049   0.00000  Uiso   1.00
H356   H     0.37583   0.93905   0.74645   0.00000  Uiso   1.00
H357   H     0.28034   0.67072   0.55437   0.00000  Uiso   1.00
H358   H     0.51845   0.69941   0.90599   0.00000  Uiso   1.00
H359   H     0.39413   0.08076   0.72879   0.00000  Uiso   1.00
O360   O     0.33053   0.63810   0.42561   0.00000  Uiso   1.00
O361   O     0.64293   0.67575   0.88692   0.00000  Uiso   1.00
O362   O     0.47982   0.17608   0.65443   0.00000  Uiso   1.00
N363   N     0.42144   0.70028   0.45184   0.00000  Uiso   1.00
N364   N     0.64406   0.72709   0.78058   0.00000  Uiso   1.00
N365   N     0.52784   0.08363   0.61492   0.00000  Uiso   1.00
N366   N     0.32805   0.68626   0.53156   0.00000  Uiso   1.00
N367   N     0.55067   0.71307   0.86030   0.00000  Uiso   1.00
N368   N     0.43445   0.06961   0.69464   0.00000  Uiso   1.00
C369   C     0.58288   0.39295   0.85882   0.00000  Uiso   1.00
C370   C     0.53025   0.34084   0.90145   0.00000  Uiso   1.00
C371   C     0.46383   0.33184   0.90025   0.00000  Uiso   1.00
C372   C     0.42367   0.28144   0.94308   0.00000  Uiso   1.00
C373   C     0.33809   0.20658   0.00280   0.00000  Uiso   1.00
C374   C     0.63696   0.35644   0.81751   0.00000  Uiso   1.00
C375   C     0.66027   0.36055   0.74573   0.00000  Uiso   1.00
C376   C     0.70996   0.32328   0.71790   0.00000  Uiso   1.00
C377   C     0.79008   0.27267   0.64730   0.00000  Uiso   1.00
C378   C     0.61351   0.43120   0.91107   0.00000  Uiso   1.00
C379   C     0.61712   0.49818   0.91795   0.00000  Uiso   1.00
C380   C     0.64707   0.52386   0.96888   0.00000  Uiso   1.00
C381   C     0.69078   0.58933   0.04354   0.00000  Uiso   1.00
C382   C     0.62969   0.31945   0.93701   0.00000  Uiso   1.00
C383   C     0.55567   0.30092   0.94392   0.00000  Uiso   1.00
C384   C     0.51561   0.25052   0.98677   0.00000  Uiso   1.00
C385   C     0.44914   0.24144   0.98563   0.00000  Uiso   1.00
C386   C     0.66239   0.31651   0.85998   0.00000  Uiso   1.00
C387   C     0.71206   0.27923   0.83225   0.00000  Uiso   1.00
C388   C     0.73543   0.28329   0.76045   0.00000  Uiso   1.00
C389   C     0.63893   0.39128   0.95354   0.00000  Uiso   1.00
C390   C     0.66890   0.41686   0.00447   0.00000  Uiso   1.00
C391   C     0.67254   0.48387   0.01143   0.00000  Uiso   1.00
H392   H     0.56309   0.42403   0.82575   0.00000  Uiso   1.00
H393   H     0.44417   0.36274   0.86737   0.00000  Uiso   1.00
H394   H     0.64059   0.39145   0.71288   0.00000  Uiso   1.00
H395   H     0.59744   0.52906   0.88507   0.00000  Uiso   1.00
H396   H     0.32354   0.27717   0.93223   0.00000  Uiso   1.00
H397   H     0.73772   0.33773   0.60648   0.00000  Uiso   1.00
H398   H     0.64673   0.62790   0.96958   0.00000  Uiso   1.00
H399   H     0.64948   0.28837   0.97008   0.00000  Uiso   1.00
H400   H     0.53530   0.21963   0.01963   0.00000  Uiso   1.00
H401   H     0.73172   0.24835   0.86513   0.00000  Uiso   1.00
H402   H     0.68856   0.38595   0.03733   0.00000  Uiso   1.00
H403   H     0.39750   0.16102   0.05581   0.00000  Uiso   1.00
H404   H     0.81169   0.22158   0.73005   0.00000  Uiso   1.00
H405   H     0.72069   0.51175   0.09315   0.00000  Uiso   1.00
O406   O     0.28386   0.17631   0.02399   0.00000  Uiso   1.00
O407   O     0.82725   0.25578   0.59662   0.00000  Uiso   1.00
O408   O     0.70786   0.63647   0.07300   0.00000  Uiso   1.00
N409   N     0.35662   0.25927   0.95453   0.00000  Uiso   1.00
N410   N     0.74384   0.31589   0.64996   0.00000  Uiso   1.00
N411   N     0.65878   0.58717   0.98942   0.00000  Uiso   1.00
N412   N     0.39642   0.19677   0.02102   0.00000  Uiso   1.00
N413   N     0.78364   0.25339   0.71646   0.00000  Uiso   1.00
N414   N     0.69858   0.52467   0.05592   0.00000  Uiso   1.00
C415   C     0.35380   0.03028   0.13698   0.00000  Uiso   1.00
C416   C     0.31446   0.99490   0.08981   0.00000  Uiso   1.00
C417   C     0.30426   0.02101   0.02865   0.00000  Uiso   1.00
C418   C     0.26684   0.98076   0.99297   0.00000  Uiso   1.00
C419   C     0.20972   0.93557   0.91600   0.00000  Uiso   1.00
C420   C     0.30679   0.02712   0.20884   0.00000  Uiso   1.00
C421   C     0.29016   0.08032   0.24776   0.00000  Uiso   1.00
C422   C     0.24629   0.06719   0.31230   0.00000  Uiso   1.00
C423   C     0.17730   0.07202   0.42014   0.00000  Uiso   1.00
C424   C     0.40704   0.98803   0.14340   0.00000  Uiso   1.00
C425   C     0.47469   0.00835   0.12732   0.00000  Uiso   1.00
C426   C     0.51522   0.96230   0.13677   0.00000  Uiso   1.00
C427   C     0.60187   0.90644   0.14300   0.00000  Uiso   1.00
C428   C     0.30549   0.91238   0.18237   0.00000  Uiso   1.00
C429   C     0.28822   0.93086   0.11447   0.00000  Uiso   1.00
C430   C     0.25081   0.89056   0.07887   0.00000  Uiso   1.00
C431   C     0.24055   0.91660   0.01767   0.00000  Uiso   1.00
C432   C     0.28055   0.96309   0.23350   0.00000  Uiso   1.00
C433   C     0.23670   0.94987   0.29799   0.00000  Uiso   1.00
C434   C     0.22000   0.00303   0.33700   0.00000  Uiso   1.00
C435   C     0.38080   0.92398   0.16805   0.00000  Uiso   1.00
C436   C     0.42123   0.87790   0.17754   0.00000  Uiso   1.00
C437   C     0.48892   0.89815   0.16147   0.00000  Uiso   1.00
H438   H     0.37423   0.08014   0.11778   0.00000  Uiso   1.00
H439   H     0.32457   0.07057   0.00959   0.00000  Uiso   1.00
H440   H     0.31048   0.12987   0.22867   0.00000  Uiso   1.00
H441   H     0.49498   0.05791   0.10824   0.00000  Uiso   1.00
H442   H     0.25792   0.03173   0.90052   0.00000  Uiso   1.00
H443   H     0.22822   0.15676   0.36248   0.00000  Uiso   1.00
H444   H     0.61727   0.00502   0.10852   0.00000  Uiso   1.00
H445   H     0.28506   0.86252   0.20157   0.00000  Uiso   1.00
H446   H     0.23050   0.84101   0.09797   0.00000  Uiso   1.00
H447   H     0.21641   0.90031   0.31705   0.00000  Uiso   1.00
H448   H     0.40090   0.82835   0.19662   0.00000  Uiso   1.00
H449   H     0.18157   0.84541   0.97225   0.00000  Uiso   1.00
H450   H     0.15187   0.97044   0.43422   0.00000  Uiso   1.00
H451   H     0.54092   0.81870   0.18026   0.00000  Uiso   1.00
O452   O     0.18545   0.92835   0.86673   0.00000  Uiso   1.00
O453   O     0.14649   0.09239   0.47281   0.00000  Uiso   1.00
O454   O     0.65692   0.89331   0.13962   0.00000  Uiso   1.00
N455   N     0.24745   0.99082   0.93161   0.00000  Uiso   1.00
N456   N     0.21967   0.10772   0.36351   0.00000  Uiso   1.00
N457   N     0.58340   0.96586   0.12610   0.00000  Uiso   1.00
N458   N     0.20637   0.89057   0.97021   0.00000  Uiso   1.00
N459   N     0.17859   0.00747   0.40211   0.00000  Uiso   1.00
N460   N     0.54232   0.86561   0.16470   0.00000  Uiso   1.00
C461   C     0.90745   0.04721   0.34214   0.00000  Uiso   1.00
C462   C     0.84438   0.99864   0.36215   0.00000  Uiso   1.00
C463   C     0.83887   0.93310   0.34737   0.00000  Uiso   1.00
C464   C     0.77685   0.89684   0.37012   0.00000  Uiso   1.00
C465   C     0.68719   0.81713   0.39565   0.00000  Uiso   1.00
C466   C     0.89131   0.10306   0.30018   0.00000  Uiso   1.00
C467   C     0.92526   0.12531   0.23331   0.00000  Uiso   1.00
C468   C     0.90275   0.17696   0.20390   0.00000  Uiso   1.00
C469   C     0.88598   0.25939   0.13324   0.00000  Uiso   1.00
C470   C     0.91792   0.07568   0.40979   0.00000  Uiso   1.00
C471   C     0.97426   0.07493   0.43508   0.00000  Uiso   1.00
C472   C     0.97416   0.10355   0.49796   0.00000  Uiso   1.00
C473   C     0.99870   0.14347   0.59748   0.00000  Uiso   1.00
C474   C     0.80711   0.09938   0.40883   0.00000  Uiso   1.00
C475   C     0.78987   0.02698   0.39837   0.00000  Uiso   1.00
C476   C     0.72785   0.99082   0.42115   0.00000  Uiso   1.00
C477   C     0.72225   0.92523   0.40641   0.00000  Uiso   1.00
C478   C     0.83680   0.13140   0.33640   0.00000  Uiso   1.00
C479   C     0.81424   0.18303   0.30709   0.00000  Uiso   1.00
C480   C     0.84815   0.20535   0.24019   0.00000  Uiso   1.00
C481   C     0.86341   0.10402   0.44602   0.00000  Uiso   1.00
C482   C     0.86323   0.13265   0.50886   0.00000  Uiso   1.00
C483   C     0.91956   0.13194   0.53424   0.00000  Uiso   1.00
H484   H     0.94989   0.02515   0.31394   0.00000  Uiso   1.00
H485   H     0.88106   0.91119   0.31933   0.00000  Uiso   1.00
H486   H     0.96744   0.10338   0.20529   0.00000  Uiso   1.00
H487   H     0.01642   0.05300   0.40703   0.00000  Uiso   1.00
H488   H     0.78071   0.79734   0.34126   0.00000  Uiso   1.00
H489   H     0.96287   0.20260   0.10081   0.00000  Uiso   1.00
H490   H     0.06615   0.09637   0.52622   0.00000  Uiso   1.00
H491   H     0.76467   0.12144   0.43703   0.00000  Uiso   1.00
H492   H     0.68568   0.01276   0.44918   0.00000  Uiso   1.00
H493   H     0.77206   0.20495   0.33514   0.00000  Uiso   1.00
H494   H     0.82104   0.15457   0.53688   0.00000  Uiso   1.00
H495   H     0.62213   0.87978   0.44665   0.00000  Uiso   1.00
H496   H     0.80429   0.28504   0.20619   0.00000  Uiso   1.00
H497   H     0.90758   0.17881   0.63161   0.00000  Uiso   1.00
O498   O     0.65279   0.76533   0.39971   0.00000  Uiso   1.00
O499   O     0.89178   0.29702   0.08425   0.00000  Uiso   1.00
O500   O     0.02729   0.15765   0.64238   0.00000  Uiso   1.00
N501   N     0.75423   0.83165   0.36441   0.00000  Uiso   1.00
N502   N     0.92453   0.21054   0.13960   0.00000  Uiso   1.00
N503   N     0.02110   0.11124   0.53731   0.00000  Uiso   1.00
N504   N     0.66890   0.87601   0.42112   0.00000  Uiso   1.00
N505   N     0.83920   0.25490   0.19630   0.00000  Uiso   1.00
N506   N     0.93577   0.15560   0.59402   0.00000  Uiso   1.00
C507   C     0.04250   0.37212   0.96402   0.00000  Uiso   1.00
C508   C     0.01964   0.32694   0.91189   0.00000  Uiso   1.00
C509   C     0.95516   0.31344   0.90460   0.00000  Uiso   1.00
C510   C     0.94439   0.27081   0.85388   0.00000  Uiso   1.00
C511   C     0.90099   0.20490   0.77934   0.00000  Uiso   1.00
C512   C     0.07674   0.33108   0.00601   0.00000  Uiso   1.00
C513   C     0.06028   0.32108   0.07784   0.00000  Uiso   1.00
C514   C     0.09759   0.28194   0.10634   0.00000  Uiso   1.00
C515   C     0.14288   0.22251   0.17792   0.00000  Uiso   1.00
C516   C     0.09660   0.42289   0.92131   0.00000  Uiso   1.00
C517   C     0.09684   0.49007   0.92195   0.00000  Uiso   1.00
C518   C     0.15088   0.52823   0.87916   0.00000  Uiso   1.00
C519   C     0.22699   0.61134   0.81923   0.00000  Uiso   1.00
C520   C     0.13805   0.32041   0.88691   0.00000  Uiso   1.00
C521   C     0.07154   0.29885   0.87001   0.00000  Uiso   1.00
C522   C     0.06087   0.25623   0.81929   0.00000  Uiso   1.00
C523   C     0.99638   0.24267   0.81192   0.00000  Uiso   1.00
C524   C     0.12864   0.30300   0.96413   0.00000  Uiso   1.00
C525   C     0.16599   0.26387   0.99253   0.00000  Uiso   1.00
C526   C     0.14959   0.25380   0.06439   0.00000  Uiso   1.00
C527   C     0.14850   0.39480   0.87943   0.00000  Uiso   1.00
C528   C     0.20255   0.43286   0.83663   0.00000  Uiso   1.00
C529   C     0.20287   0.50009   0.83720   0.00000  Uiso   1.00
H530   H     0.00210   0.39398   0.99663   0.00000  Uiso   1.00
H531   H     0.91501   0.33518   0.93703   0.00000  Uiso   1.00
H532   H     0.02012   0.34282   0.11024   0.00000  Uiso   1.00
H533   H     0.05667   0.51179   0.95437   0.00000  Uiso   1.00
H534   H     0.84133   0.25759   0.85250   0.00000  Uiso   1.00
H535   H     0.06298   0.27372   0.21773   0.00000  Uiso   1.00
H536   H     0.14006   0.63002   0.88904   0.00000  Uiso   1.00
H537   H     0.17846   0.29854   0.85430   0.00000  Uiso   1.00
H538   H     0.10104   0.23450   0.78689   0.00000  Uiso   1.00
H539   H     0.20615   0.24214   0.96010   0.00000  Uiso   1.00
H540   H     0.24270   0.41111   0.80423   0.00000  Uiso   1.00
H541   H     0.99232   0.17586   0.73064   0.00000  Uiso   1.00
H542   H     0.21397   0.19200   0.09587   0.00000  Uiso   1.00
H543   H     0.29105   0.54830   0.76718   0.00000  Uiso   1.00
O544   O     0.86271   0.17630   0.74981   0.00000  Uiso   1.00
O545   O     0.15352   0.19748   0.22897   0.00000  Uiso   1.00
O546   O     0.25464   0.66494   0.79774   0.00000  Uiso   1.00
N547   N     0.88749   0.24715   0.83306   0.00000  Uiso   1.00
N548   N     0.09472   0.26223   0.17453   0.00000  Uiso   1.00
N549   N     0.16679   0.59534   0.86725   0.00000  Uiso   1.00
N550   N     0.96874   0.20318   0.76749   0.00000  Uiso   1.00
N551   N     0.17596   0.21825   0.10896   0.00000  Uiso   1.00
N552   N     0.24803   0.55136   0.80168   0.00000  Uiso   1.00
