data_job_06812
_audit_creation_date              2018-12-19
_audit_creation_method            'Materials Studio'
_symmetry_space_group_name_H-M    'P1'
_symmetry_Int_Tables_number       1
_symmetry_cell_setting            triclinic
loop_
_symmetry_equiv_pos_as_xyz
  x,y,z
_cell_length_a                    21.0197
_cell_length_b                    21.7493
_cell_length_c                    22.0393
_cell_angle_alpha                 117.6457
_cell_angle_beta                  116.1674
_cell_angle_gamma                 61.8154
loop_
_atom_site_label
_atom_site_type_symbol
_atom_site_fract_x
_atom_site_fract_y
_atom_site_fract_z
_atom_site_U_iso_or_equiv
_atom_site_adp_type
_atom_site_occupancy
C1     C     0.81648   0.50173   0.91882   0.00000  Uiso   1.00
C2     C     0.85997   0.54924   0.98409   0.00000  Uiso   1.00
C3     C     0.92049   0.56182   0.98744   0.00000  Uiso   1.00
C4     C     0.95262   0.60693   0.05205   0.00000  Uiso   1.00
C5     C     0.02434   0.67589   0.14442   0.00000  Uiso   1.00
C6     C     0.82054   0.44409   0.94265   0.00000  Uiso   1.00
C7     C     0.84791   0.36826   0.91115   0.00000  Uiso   1.00
C8     C     0.84684   0.32486   0.94087   0.00000  Uiso   1.00
C9     C     0.85730   0.23057   0.96887   0.00000  Uiso   1.00
C10    C     0.73429   0.55144   0.90427   0.00000  Uiso   1.00
C11    C     0.68912   0.56586   0.84050   0.00000  Uiso   1.00
C12    C     0.61542   0.61282   0.83790   0.00000  Uiso   1.00
C13    C     0.49196   0.68521   0.80631   0.00000  Uiso   1.00
C14    C     0.76591   0.55947   0.02760   0.00000  Uiso   1.00
C15    C     0.83250   0.58060   0.04317   0.00000  Uiso   1.00
C16    C     0.86454   0.62570   0.10780   0.00000  Uiso   1.00
C17    C     0.92510   0.63835   0.11125   0.00000  Uiso   1.00
C18    C     0.79308   0.47545   0.00173   0.00000  Uiso   1.00
C19    C     0.79196   0.43214   0.03150   0.00000  Uiso   1.00
C20    C     0.81932   0.35628   0.00006   0.00000  Uiso   1.00
C21    C     0.70682   0.58280   0.96335   0.00000  Uiso   1.00
C22    C     0.63317   0.62974   0.96085   0.00000  Uiso   1.00
C23    C     0.58790   0.64424   0.89709   0.00000  Uiso   1.00
H24    H     0.83787   0.47731   0.87282   0.00000  Uiso   1.00
H25    H     0.94174   0.53753   0.94171   0.00000  Uiso   1.00
H26    H     0.86915   0.34401   0.86542   0.00000  Uiso   1.00
H27    H     0.71039   0.54158   0.79478   0.00000  Uiso   1.00
H28    H     0.04480   0.61811   0.04415   0.00000  Uiso   1.00
H29    H     0.89173   0.21005   0.88328   0.00000  Uiso   1.00
H30    H     0.55695   0.62666   0.73433   0.00000  Uiso   1.00
H31    H     0.74453   0.58389   0.07360   0.00000  Uiso   1.00
H32    H     0.84327   0.64997   0.15351   0.00000  Uiso   1.00
H33    H     0.77069   0.45643   0.07723   0.00000  Uiso   1.00
H34    H     0.61193   0.65400   0.00659   0.00000  Uiso   1.00
H35    H     0.96488   0.70936   0.21606   0.00000  Uiso   1.00
H36    H     0.81182   0.30130   0.05519   0.00000  Uiso   1.00
H37    H     0.47704   0.71791   0.90624   0.00000  Uiso   1.00
O38    O     0.07150   0.70526   0.17905   0.00000  Uiso   1.00
O39    O     0.87067   0.16990   0.96799   0.00000  Uiso   1.00
O40    O     0.43145   0.71648   0.77257   0.00000  Uiso   1.00
N41    N     0.01243   0.63053   0.07364   0.00000  Uiso   1.00
N42    N     0.86933   0.24902   0.92324   0.00000  Uiso   1.00
N43    N     0.55633   0.63850   0.78398   0.00000  Uiso   1.00
N44    N     0.96943   0.67963   0.16614   0.00000  Uiso   1.00
N45    N     0.82633   0.29812   0.01575   0.00000  Uiso   1.00
N46    N     0.51333   0.68760   0.87648   0.00000  Uiso   1.00
C47    C     0.17300   0.47545   0.35300   0.00000  Uiso   1.00
C48    C     0.11104   0.52099   0.39035   0.00000  Uiso   1.00
C49    C     0.11173   0.51552   0.45093   0.00000  Uiso   1.00
C50    C     0.04966   0.56205   0.47690   0.00000  Uiso   1.00
C51    C     0.96264   0.62510   0.53997   0.00000  Uiso   1.00
C52    C     0.13529   0.43788   0.27574   0.00000  Uiso   1.00
C53    C     0.15638   0.36255   0.23996   0.00000  Uiso   1.00
C54    C     0.11473   0.33912   0.16945   0.00000  Uiso   1.00
C55    C     0.06540   0.27316   0.05457   0.00000  Uiso   1.00
C56    C     0.19629   0.53076   0.35067   0.00000  Uiso   1.00
C57    C     0.26868   0.53351   0.37788   0.00000  Uiso   1.00
C58    C     0.27839   0.58827   0.37043   0.00000  Uiso   1.00
C59    C     0.32377   0.66651   0.37189   0.00000  Uiso   1.00
C60    C     0.06155   0.56780   0.29137   0.00000  Uiso   1.00
C61    C     0.05050   0.57115   0.35687   0.00000  Uiso   1.00
C62    C     0.98842   0.61770   0.38276   0.00000  Uiso   1.00
C63    C     0.98902   0.61231   0.44337   0.00000  Uiso   1.00
C64    C     0.07475   0.48804   0.24227   0.00000  Uiso   1.00
C65    C     0.03307   0.46473   0.17179   0.00000  Uiso   1.00
C66    C     0.05409   0.38937   0.13592   0.00000  Uiso   1.00
C67    C     0.13575   0.58093   0.31720   0.00000  Uiso   1.00
C68    C     0.14536   0.63569   0.30970   0.00000  Uiso   1.00
C69    C     0.21774   0.63852   0.33690   0.00000  Uiso   1.00
H70    H     0.22013   0.43639   0.37905   0.00000  Uiso   1.00
H71    H     0.15859   0.47669   0.47682   0.00000  Uiso   1.00
H72    H     0.20324   0.32374   0.26588   0.00000  Uiso   1.00
H73    H     0.31551   0.49468   0.40377   0.00000  Uiso   1.00
H74    H     0.06364   0.54347   0.57043   0.00000  Uiso   1.00
H75    H     0.15781   0.22097   0.12565   0.00000  Uiso   1.00
H76    H     0.39456   0.58143   0.41643   0.00000  Uiso   1.00
H77    H     0.01441   0.60686   0.26531   0.00000  Uiso   1.00
H78    H     0.94158   0.65651   0.35684   0.00000  Uiso   1.00
H79    H     0.98623   0.50356   0.14590   0.00000  Uiso   1.00
H80    H     0.09850   0.67450   0.28380   0.00000  Uiso   1.00
H81    H     0.88751   0.68942   0.47306   0.00000  Uiso   1.00
H82    H     0.98167   0.36692   0.02827   0.00000  Uiso   1.00
H83    H     0.21842   0.72737   0.31905   0.00000  Uiso   1.00
O84    O     0.93136   0.64601   0.58399   0.00000  Uiso   1.00
O85    O     0.05491   0.22291   0.00045   0.00000  Uiso   1.00
O86    O     0.36552   0.69582   0.38195   0.00000  Uiso   1.00
N87    N     0.03219   0.57101   0.53496   0.00000  Uiso   1.00
N88    N     0.12022   0.26950   0.11912   0.00000  Uiso   1.00
N89    N     0.34157   0.60648   0.39096   0.00000  Uiso   1.00
N90    N     0.93741   0.64955   0.48257   0.00000  Uiso   1.00
N91    N     0.02544   0.34803   0.06672   0.00000  Uiso   1.00
N92    N     0.24679   0.68501   0.33856   0.00000  Uiso   1.00
C93    C     0.72157   0.43992   0.23806   0.00000  Uiso   1.00
C94    C     0.68222   0.49721   0.19999   0.00000  Uiso   1.00
C95    C     0.61148   0.50793   0.15079   0.00000  Uiso   1.00
C96    C     0.58542   0.56318   0.12195   0.00000  Uiso   1.00
C97    C     0.51777   0.64558   0.05981   0.00000  Uiso   1.00
C98    C     0.79697   0.39410   0.22125   0.00000  Uiso   1.00
C99    C     0.82272   0.31812   0.18994   0.00000  Uiso   1.00
C100   C     0.89325   0.28657   0.17901   0.00000  Uiso   1.00
C101   C     0.00377   0.20888   0.14993   0.00000  Uiso   1.00
C102   C     0.74000   0.48262   0.31779   0.00000  Uiso   1.00
C103   C     0.71787   0.48105   0.36766   0.00000  Uiso   1.00
C104   C     0.74046   0.52401   0.43801   0.00000  Uiso   1.00
C105   C     0.76253   0.58376   0.55881   0.00000  Uiso   1.00
C106   C     0.80106   0.51898   0.27433   0.00000  Uiso   1.00
C107   C     0.72540   0.54015   0.21969   0.00000  Uiso   1.00
C108   C     0.69943   0.59540   0.19092   0.00000  Uiso   1.00
C109   C     0.62867   0.60620   0.14169   0.00000  Uiso   1.00
C110   C     0.84015   0.43704   0.24095   0.00000  Uiso   1.00
C111   C     0.91066   0.40559   0.23007   0.00000  Uiso   1.00
C112   C     0.93651   0.32958   0.19875   0.00000  Uiso   1.00
C113   C     0.78318   0.52556   0.33749   0.00000  Uiso   1.00
C114   C     0.80582   0.56852   0.40778   0.00000  Uiso   1.00
C115   C     0.78372   0.56703   0.45774   0.00000  Uiso   1.00
H116   H     0.68796   0.40649   0.22272   0.00000  Uiso   1.00
H117   H     0.57809   0.47468   0.13555   0.00000  Uiso   1.00
H118   H     0.78929   0.28491   0.17471   0.00000  Uiso   1.00
H119   H     0.68446   0.44782   0.35239   0.00000  Uiso   1.00
H120   H     0.47533   0.56921   0.04758   0.00000  Uiso   1.00
H121   H     0.92067   0.16905   0.13016   0.00000  Uiso   1.00
H122   H     0.69961   0.51258   0.50484   0.00000  Uiso   1.00
H123   H     0.83468   0.55240   0.28967   0.00000  Uiso   1.00
H124   H     0.73286   0.62862   0.20617   0.00000  Uiso   1.00
H125   H     0.94406   0.43883   0.24532   0.00000  Uiso   1.00
H126   H     0.83923   0.60174   0.42301   0.00000  Uiso   1.00
H127   H     0.60095   0.69415   0.10489   0.00000  Uiso   1.00
H128   H     0.04630   0.29398   0.18748   0.00000  Uiso   1.00
H129   H     0.82523   0.63751   0.56215   0.00000  Uiso   1.00
O130   O     0.46853   0.67916   0.02009   0.00000  Uiso   1.00
O131   O     0.05280   0.15417   0.12844   0.00000  Uiso   1.00
O132   O     0.76277   0.60487   0.62001   0.00000  Uiso   1.00
N133   N     0.51886   0.58817   0.07254   0.00000  Uiso   1.00
N134   N     0.93523   0.21404   0.14974   0.00000  Uiso   1.00
N135   N     0.72857   0.53520   0.50003   0.00000  Uiso   1.00
N136   N     0.58646   0.65539   0.10338   0.00000  Uiso   1.00
N137   N     0.00282   0.28127   0.18058   0.00000  Uiso   1.00
N138   N     0.79616   0.60242   0.53087   0.00000  Uiso   1.00
C139   C     0.29841   0.02308   0.82232   0.00000  Uiso   1.00
C140   C     0.33911   0.07331   0.83763   0.00000  Uiso   1.00
C141   C     0.39185   0.09541   0.90101   0.00000  Uiso   1.00
C142   C     0.42266   0.14146   0.90443   0.00000  Uiso   1.00
C143   C     0.48911   0.21592   0.93700   0.00000  Uiso   1.00
C144   C     0.31481   0.95891   0.75540   0.00000  Uiso   1.00
C145   C     0.34711   0.88483   0.74965   0.00000  Uiso   1.00
C146   C     0.35744   0.83458   0.68384   0.00000  Uiso   1.00
C147   C     0.38612   0.73143   0.58874   0.00000  Uiso   1.00
C148   C     0.21452   0.06613   0.80084   0.00000  Uiso   1.00
C149   C     0.16250   0.08217   0.83327   0.00000  Uiso   1.00
C150   C     0.08840   0.12218   0.80571   0.00000  Uiso   1.00
C151   C     0.96137   0.18549   0.78115   0.00000  Uiso   1.00
C152   C     0.25932   0.06557   0.71568   0.00000  Uiso   1.00
C153   C     0.31787   0.09639   0.77970   0.00000  Uiso   1.00
C154   C     0.34860   0.14242   0.78303   0.00000  Uiso   1.00
C155   C     0.40138   0.16458   0.84641   0.00000  Uiso   1.00
C156   C     0.29357   0.98199   0.69748   0.00000  Uiso   1.00
C157   C     0.30386   0.93184   0.63166   0.00000  Uiso   1.00
C158   C     0.33617   0.85770   0.62581   0.00000  Uiso   1.00
C159   C     0.19329   0.08921   0.74291   0.00000  Uiso   1.00
C160   C     0.11925   0.12918   0.71529   0.00000  Uiso   1.00
C161   C     0.06713   0.14529   0.74768   0.00000  Uiso   1.00
H162   H     0.31494   0.00511   0.86741   0.00000  Uiso   1.00
H163   H     0.40827   0.07754   0.94582   0.00000  Uiso   1.00
H164   H     0.36353   0.86699   0.79448   0.00000  Uiso   1.00
H165   H     0.17895   0.06431   0.87809   0.00000  Uiso   1.00
H166   H     0.50241   0.16799   0.00721   0.00000  Uiso   1.00
H167   H     0.40804   0.72404   0.68808   0.00000  Uiso   1.00
H168   H     0.01882   0.14012   0.86440   0.00000  Uiso   1.00
H169   H     0.24278   0.08353   0.67058   0.00000  Uiso   1.00
H170   H     0.33216   0.16027   0.73820   0.00000  Uiso   1.00
H171   H     0.28742   0.94972   0.58685   0.00000  Uiso   1.00
H172   H     0.10284   0.14703   0.67047   0.00000  Uiso   1.00
H173   H     0.44064   0.23513   0.83869   0.00000  Uiso   1.00
H174   H     0.34626   0.79118   0.51956   0.00000  Uiso   1.00
H175   H     0.95705   0.20726   0.69588   0.00000  Uiso   1.00
O176   O     0.53164   0.25060   0.97097   0.00000  Uiso   1.00
O177   O     0.40781   0.66816   0.55229   0.00000  Uiso   1.00
O178   O     0.89717   0.21404   0.78362   0.00000  Uiso   1.00
N179   N     0.47560   0.17327   0.95827   0.00000  Uiso   1.00
N180   N     0.38737   0.75820   0.65991   0.00000  Uiso   1.00
N181   N     0.02348   0.14719   0.82474   0.00000  Uiso   1.00
N182   N     0.44236   0.20940   0.86759   0.00000  Uiso   1.00
N183   N     0.35413   0.79433   0.56923   0.00000  Uiso   1.00
N184   N     0.99024   0.18332   0.73406   0.00000  Uiso   1.00
C185   C     0.70275   0.92136   0.72989   0.00000  Uiso   1.00
C186   C     0.64347   0.97027   0.68439   0.00000  Uiso   1.00
C187   C     0.65128   0.97522   0.62764   0.00000  Uiso   1.00
C188   C     0.59056   0.02316   0.59280   0.00000  Uiso   1.00
C189   C     0.50856   0.09277   0.51890   0.00000  Uiso   1.00
C190   C     0.66515   0.87342   0.72510   0.00000  Uiso   1.00
C191   C     0.69121   0.79695   0.70258   0.00000  Uiso   1.00
C192   C     0.64874   0.76337   0.70201   0.00000  Uiso   1.00
C193   C     0.60043   0.68261   0.69136   0.00000  Uiso   1.00
C194   C     0.71620   0.97271   0.80693   0.00000  Uiso   1.00
C195   C     0.78518   0.97970   0.85323   0.00000  Uiso   1.00
C196   C     0.78570   0.02971   0.92157   0.00000  Uiso   1.00
C197   C     0.81665   0.10312   0.03798   0.00000  Uiso   1.00
C198   C     0.58101   0.99771   0.76893   0.00000  Uiso   1.00
C199   C     0.57734   0.01174   0.70560   0.00000  Uiso   1.00
C200   C     0.51659   0.05969   0.67083   0.00000  Uiso   1.00
C201   C     0.52432   0.06471   0.61404   0.00000  Uiso   1.00
C202   C     0.59903   0.91489   0.74630   0.00000  Uiso   1.00
C203   C     0.55652   0.88142   0.74577   0.00000  Uiso   1.00
C204   C     0.58250   0.80491   0.72325   0.00000  Uiso   1.00
C205   C     0.65008   0.01418   0.82814   0.00000  Uiso   1.00
C206   C     0.65049   0.06418   0.89642   0.00000  Uiso   1.00
C207   C     0.71945   0.07125   0.94281   0.00000  Uiso   1.00
H208   H     0.75423   0.88908   0.71339   0.00000  Uiso   1.00
H209   H     0.70246   0.94311   0.61125   0.00000  Uiso   1.00
H210   H     0.74238   0.76487   0.68618   0.00000  Uiso   1.00
H211   H     0.83634   0.94760   0.83681   0.00000  Uiso   1.00
H212   H     0.61590   0.02129   0.50734   0.00000  Uiso   1.00
H213   H     0.70009   0.64545   0.66537   0.00000  Uiso   1.00
H214   H     0.89821   0.03078   0.98299   0.00000  Uiso   1.00
H215   H     0.52953   0.03000   0.78544   0.00000  Uiso   1.00
H216   H     0.46543   0.09178   0.68725   0.00000  Uiso   1.00
H217   H     0.50535   0.91353   0.76218   0.00000  Uiso   1.00
H218   H     0.59931   0.09626   0.91281   0.00000  Uiso   1.00
H219   H     0.42352   0.14195   0.56902   0.00000  Uiso   1.00
H220   H     0.50771   0.76611   0.72706   0.00000  Uiso   1.00
H221   H     0.70583   0.15144   0.04468   0.00000  Uiso   1.00
O222   O     0.48159   0.11970   0.47227   0.00000  Uiso   1.00
O223   O     0.59205   0.62661   0.67962   0.00000  Uiso   1.00
O224   O     0.85198   0.13216   0.09632   0.00000  Uiso   1.00
N225   N     0.57942   0.04122   0.53534   0.00000  Uiso   1.00
N226   N     0.65813   0.68984   0.68308   0.00000  Uiso   1.00
N227   N     0.84336   0.05007   0.98003   0.00000  Uiso   1.00
N228   N     0.47590   0.10615   0.56853   0.00000  Uiso   1.00
N229   N     0.55461   0.75476   0.71627   0.00000  Uiso   1.00
N230   N     0.73984   0.11500   0.01323   0.00000  Uiso   1.00
C231   C     0.20012   0.00027   0.38268   0.00000  Uiso   1.00
C232   C     0.15026   0.05280   0.43243   0.00000  Uiso   1.00
C233   C     0.08031   0.05288   0.42260   0.00000  Uiso   1.00
C234   C     0.04360   0.10535   0.47416   0.00000  Uiso   1.00
C235   C     0.96131   0.17919   0.54241   0.00000  Uiso   1.00
C236   C     0.27546   0.96297   0.42861   0.00000  Uiso   1.00
C237   C     0.31078   0.88752   0.41557   0.00000  Uiso   1.00
C238   C     0.37946   0.86438   0.46392   0.00000  Uiso   1.00
C239   C     0.49157   0.79876   0.52622   0.00000  Uiso   1.00
C240   C     0.21521   0.04882   0.36175   0.00000  Uiso   1.00
C241   C     0.19988   0.04554   0.29249   0.00000  Uiso   1.00
C242   C     0.21786   0.09467   0.28455   0.00000  Uiso   1.00
C243   C     0.23641   0.16234   0.24304   0.00000  Uiso   1.00
C244   C     0.25931   0.09332   0.49174   0.00000  Uiso   1.00
C245   C     0.18242   0.10334   0.49167   0.00000  Uiso   1.00
C246   C     0.14580   0.15583   0.54326   0.00000  Uiso   1.00
C247   C     0.07580   0.15598   0.53351   0.00000  Uiso   1.00
C248   C     0.30761   0.01350   0.48785   0.00000  Uiso   1.00
C249   C     0.37626   0.99047   0.53623   0.00000  Uiso   1.00
C250   C     0.41167   0.91501   0.52327   0.00000  Uiso   1.00
C251   C     0.24736   0.09936   0.42099   0.00000  Uiso   1.00
C252   C     0.26537   0.14849   0.41316   0.00000  Uiso   1.00
C253   C     0.25007   0.14529   0.34390   0.00000  Uiso   1.00
H254   H     0.17510   0.96092   0.33657   0.00000  Uiso   1.00
H255   H     0.05545   0.01375   0.37675   0.00000  Uiso   1.00
H256   H     0.28589   0.84842   0.36972   0.00000  Uiso   1.00
H257   H     0.17500   0.00642   0.24666   0.00000  Uiso   1.00
H258   H     0.93700   0.09459   0.44744   0.00000  Uiso   1.00
H259   H     0.42289   0.74599   0.43260   0.00000  Uiso   1.00
H260   H     0.18908   0.07916   0.17311   0.00000  Uiso   1.00
H261   H     0.28435   0.13267   0.53787   0.00000  Uiso   1.00
H262   H     0.17069   0.19493   0.58910   0.00000  Uiso   1.00
H263   H     0.40113   0.02959   0.58207   0.00000  Uiso   1.00
H264   H     0.29025   0.18759   0.45901   0.00000  Uiso   1.00
H265   H     0.03053   0.24164   0.61979   0.00000  Uiso   1.00
H266   H     0.51643   0.89303   0.60495   0.00000  Uiso   1.00
H267   H     0.28261   0.22620   0.34546   0.00000  Uiso   1.00
O268   O     0.90704   0.20596   0.56370   0.00000  Uiso   1.00
O269   O     0.54452   0.74860   0.54422   0.00000  Uiso   1.00
O270   O     0.23775   0.18571   0.20378   0.00000  Uiso   1.00
N271   N     0.97460   0.12067   0.48096   0.00000  Uiso   1.00
N272   N     0.42887   0.79474   0.46710   0.00000  Uiso   1.00
N273   N     0.21030   0.10621   0.22449   0.00000  Uiso   1.00
N274   N     0.02493   0.19979   0.57370   0.00000  Uiso   1.00
N275   N     0.47920   0.87386   0.55984   0.00000  Uiso   1.00
N276   N     0.26063   0.18534   0.31723   0.00000  Uiso   1.00
C277   C     0.29361   0.52773   0.13700   0.00000  Uiso   1.00
C278   C     0.25094   0.47635   0.07734   0.00000  Uiso   1.00
C279   C     0.18584   0.47310   0.07576   0.00000  Uiso   1.00
C280   C     0.15538   0.42236   0.01642   0.00000  Uiso   1.00
C281   C     0.08400   0.34957   0.93224   0.00000  Uiso   1.00
C282   C     0.29818   0.57086   0.10166   0.00000  Uiso   1.00
C283   C     0.27280   0.64708   0.12053   0.00000  Uiso   1.00
C284   C     0.28212   0.67591   0.08166   0.00000  Uiso   1.00
C285   C     0.28414   0.74985   0.03526   0.00000  Uiso   1.00
C286   C     0.37399   0.47819   0.16171   0.00000  Uiso   1.00
C287   C     0.41236   0.47650   0.23109   0.00000  Uiso   1.00
C288   C     0.48552   0.42732   0.24278   0.00000  Uiso   1.00
C289   C     0.60523   0.35738   0.28963   0.00000  Uiso   1.00
C290   C     0.35530   0.44339   0.03442   0.00000  Uiso   1.00
C291   C     0.28445   0.43054   0.02162   0.00000  Uiso   1.00
C292   C     0.25408   0.37979   0.96227   0.00000  Uiso   1.00
C293   C     0.18895   0.37647   0.96060   0.00000  Uiso   1.00
C294   C     0.33168   0.52506   0.04594   0.00000  Uiso   1.00
C295   C     0.34105   0.55377   0.00704   0.00000  Uiso   1.00
C296   C     0.31569   0.63002   0.02584   0.00000  Uiso   1.00
C297   C     0.40749   0.43238   0.10600   0.00000  Uiso   1.00
C298   C     0.48061   0.38319   0.11759   0.00000  Uiso   1.00
C299   C     0.51908   0.38143   0.18697   0.00000  Uiso   1.00
H300   H     0.26753   0.56340   0.18038   0.00000  Uiso   1.00
H301   H     0.15992   0.50857   0.11889   0.00000  Uiso   1.00
H302   H     0.24688   0.68252   0.16365   0.00000  Uiso   1.00
H303   H     0.38641   0.51196   0.27419   0.00000  Uiso   1.00
H304   H     0.05538   0.42759   0.02613   0.00000  Uiso   1.00
H305   H     0.23876   0.79438   0.12053   0.00000  Uiso   1.00
H306   H     0.53300   0.43473   0.35363   0.00000  Uiso   1.00
H307   H     0.38139   0.40773   0.99104   0.00000  Uiso   1.00
H308   H     0.28002   0.34435   0.91916   0.00000  Uiso   1.00
H309   H     0.36699   0.51831   0.96392   0.00000  Uiso   1.00
H310   H     0.50652   0.34775   0.07446   0.00000  Uiso   1.00
H311   H     0.15286   0.29431   0.86402   0.00000  Uiso   1.00
H312   H     0.33625   0.66110   0.95843   0.00000  Uiso   1.00
H313   H     0.63048   0.30145   0.19151   0.00000  Uiso   1.00
O314   O     0.03537   0.32208   0.90120   0.00000  Uiso   1.00
O315   O     0.27598   0.80330   0.02506   0.00000  Uiso   1.00
O316   O     0.66201   0.33145   0.33086   0.00000  Uiso   1.00
N317   N     0.09224   0.40491   0.99785   0.00000  Uiso   1.00
N318   N     0.26368   0.74784   0.08610   0.00000  Uiso   1.00
N319   N     0.53878   0.41161   0.30403   0.00000  Uiso   1.00
N320   N     0.14469   0.33319   0.91062   0.00000  Uiso   1.00
N321   N     0.31614   0.67612   0.99887   0.00000  Uiso   1.00
N322   N     0.59123   0.33989   0.21680   0.00000  Uiso   1.00
C323   C     0.93465   0.51647   0.70165   0.00000  Uiso   1.00
C324   C     0.99343   0.46321   0.66117   0.00000  Uiso   1.00
C325   C     0.99293   0.46362   0.59818   0.00000  Uiso   1.00
C326   C     0.05178   0.41032   0.56953   0.00000  Uiso   1.00
C327   C     0.13436   0.33553   0.50164   0.00000  Uiso   1.00
C328   C     0.97771   0.55206   0.77715   0.00000  Uiso   1.00
C329   C     0.96398   0.62718   0.81168   0.00000  Uiso   1.00
C330   C     0.00959   0.64868   0.88067   0.00000  Uiso   1.00
C331   C     0.06772   0.71184   0.99286   0.00000  Uiso   1.00
C332   C     0.90506   0.46876   0.70853   0.00000  Uiso   1.00
C333   C     0.83024   0.47386   0.68538   0.00000  Uiso   1.00
C334   C     0.81468   0.42523   0.69662   0.00000  Uiso   1.00
C335   C     0.76001   0.35906   0.70227   0.00000  Uiso   1.00
C336   C     0.04006   0.42108   0.76279   0.00000  Uiso   1.00
C337   C     0.05068   0.41140   0.69438   0.00000  Uiso   1.00
C338   C     0.10955   0.35808   0.66582   0.00000  Uiso   1.00
C339   C     0.10913   0.35841   0.60280   0.00000  Uiso   1.00
C340   C     0.03496   0.50025   0.81036   0.00000  Uiso   1.00
C341   C     0.08060   0.52164   0.87932   0.00000  Uiso   1.00
C342   C     0.06694   0.59677   0.91394   0.00000  Uiso   1.00
C343   C     0.96231   0.41695   0.74174   0.00000  Uiso   1.00
C344   C     0.94686   0.36832   0.75302   0.00000  Uiso   1.00
C345   C     0.87204   0.37333   0.72989   0.00000  Uiso   1.00
H346   H     0.89008   0.55681   0.67580   0.00000  Uiso   1.00
H347   H     0.94862   0.50373   0.57250   0.00000  Uiso   1.00
H348   H     0.91967   0.66726   0.78597   0.00000  Uiso   1.00
H349   H     0.78595   0.51396   0.65969   0.00000  Uiso   1.00
H350   H     0.03877   0.42205   0.47263   0.00000  Uiso   1.00
H351   H     0.97771   0.76687   0.92275   0.00000  Uiso   1.00
H352   H     0.69575   0.44360   0.65646   0.00000  Uiso   1.00
H353   H     0.08463   0.38074   0.78864   0.00000  Uiso   1.00
H354   H     0.15385   0.31799   0.69153   0.00000  Uiso   1.00
H355   H     0.12489   0.48153   0.90500   0.00000  Uiso   1.00
H356   H     0.99118   0.32823   0.77872   0.00000  Uiso   1.00
H357   H     0.20535   0.27130   0.56924   0.00000  Uiso   1.00
H358   H     0.14428   0.61613   0.01936   0.00000  Uiso   1.00
H359   H     0.86232   0.29286   0.75307   0.00000  Uiso   1.00
O360   O     0.16409   0.30859   0.45503   0.00000  Uiso   1.00
O361   O     0.08397   0.76099   0.04557   0.00000  Uiso   1.00
O362   O     0.71405   0.33687   0.69621   0.00000  Uiso   1.00
N363   N     0.06847   0.39517   0.50869   0.00000  Uiso   1.00
N364   N     0.01139   0.71756   0.92952   0.00000  Uiso   1.00
N365   N     0.74778   0.41534   0.68058   0.00000  Uiso   1.00
N366   N     0.15810   0.31405   0.56067   0.00000  Uiso   1.00
N367   N     0.10102   0.63645   0.98150   0.00000  Uiso   1.00
N368   N     0.83741   0.33423   0.73256   0.00000  Uiso   1.00
C369   C     0.40787   0.52940   0.77424   0.00000  Uiso   1.00
C370   C     0.44867   0.48375   0.82448   0.00000  Uiso   1.00
C371   C     0.52250   0.47276   0.86746   0.00000  Uiso   1.00
C372   C     0.54944   0.42921   0.90963   0.00000  Uiso   1.00
C373   C     0.61968   0.36314   0.98780   0.00000  Uiso   1.00
C374   C     0.33742   0.58695   0.79671   0.00000  Uiso   1.00
C375   C     0.31770   0.66272   0.81632   0.00000  Uiso   1.00
C376   C     0.25098   0.70604   0.83510   0.00000  Uiso   1.00
C377   C     0.14846   0.80018   0.87009   0.00000  Uiso   1.00
C378   C     0.38033   0.47790   0.70048   0.00000  Uiso   1.00
C379   C     0.39667   0.46199   0.63918   0.00000  Uiso   1.00
C380   C     0.36606   0.41350   0.57694   0.00000  Uiso   1.00
C381   C     0.33018   0.33832   0.46253   0.00000  Uiso   1.00
C382   C     0.32442   0.47161   0.77269   0.00000  Uiso   1.00
C383   C     0.40334   0.45237   0.82364   0.00000  Uiso   1.00
C384   C     0.43018   0.40882   0.86575   0.00000  Uiso   1.00
C385   C     0.50404   0.39776   0.90879   0.00000  Uiso   1.00
C386   C     0.29209   0.55556   0.79587   0.00000  Uiso   1.00
C387   C     0.22538   0.59878   0.81461   0.00000  Uiso   1.00
C388   C     0.20557   0.67459   0.83426   0.00000  Uiso   1.00
C389   C     0.33500   0.44650   0.69964   0.00000  Uiso   1.00
C390   C     0.30436   0.39804   0.63747   0.00000  Uiso   1.00
C391   C     0.32066   0.38205   0.57610   0.00000  Uiso   1.00
H392   H     0.44315   0.55384   0.77490   0.00000  Uiso   1.00
H393   H     0.55755   0.49707   0.86811   0.00000  Uiso   1.00
H394   H     0.35278   0.68700   0.81696   0.00000  Uiso   1.00
H395   H     0.43175   0.48629   0.63986   0.00000  Uiso   1.00
H396   H     0.66440   0.42030   0.97109   0.00000  Uiso   1.00
H397   H     0.23261   0.82078   0.86324   0.00000  Uiso   1.00
H398   H     0.39913   0.39755   0.48977   0.00000  Uiso   1.00
H399   H     0.28913   0.44717   0.77204   0.00000  Uiso   1.00
H400   H     0.39509   0.38453   0.86509   0.00000  Uiso   1.00
H401   H     0.19032   0.57447   0.81395   0.00000  Uiso   1.00
H402   H     0.26929   0.37376   0.63684   0.00000  Uiso   1.00
H403   H     0.53254   0.32897   0.96865   0.00000  Uiso   1.00
H404   H     0.10075   0.72944   0.86079   0.00000  Uiso   1.00
H405   H     0.26726   0.30621   0.48732   0.00000  Uiso   1.00
O406   O     0.67094   0.33538   0.03115   0.00000  Uiso   1.00
O407   O     0.10445   0.86078   0.88963   0.00000  Uiso   1.00
O408   O     0.32292   0.30551   0.39966   0.00000  Uiso   1.00
N409   N     0.61883   0.40739   0.95774   0.00000  Uiso   1.00
N410   N     0.21514   0.78181   0.85691   0.00000  Uiso   1.00
N411   N     0.37080   0.38614   0.50774   0.00000  Uiso   1.00
N412   N     0.54787   0.35824   0.95642   0.00000  Uiso   1.00
N413   N     0.14419   0.73266   0.85559   0.00000  Uiso   1.00
N414   N     0.29985   0.33699   0.50642   0.00000  Uiso   1.00
C415   C     0.80566   0.02488   0.16091   0.00000  Uiso   1.00
C416   C     0.76211   0.97122   0.11351   0.00000  Uiso   1.00
C417   C     0.70924   0.97231   0.04767   0.00000  Uiso   1.00
C418   C     0.67561   0.91848   0.01264   0.00000  Uiso   1.00
C419   C     0.60513   0.84325   0.93453   0.00000  Uiso   1.00
C420   C     0.78959   0.05889   0.23288   0.00000  Uiso   1.00
C421   C     0.75983   0.13367   0.26741   0.00000  Uiso   1.00
C422   C     0.74934   0.15364   0.33288   0.00000  Uiso   1.00
C423   C     0.72157   0.21451   0.44012   0.00000  Uiso   1.00
C424   C     0.88878   0.97771   0.17394   0.00000  Uiso   1.00
C425   C     0.94244   0.98425   0.15893   0.00000  Uiso   1.00
C426   C     0.01547   0.93589   0.17479   0.00000  Uiso   1.00
C427   C     0.14171   0.87071   0.19051   0.00000  Uiso   1.00
C428   C     0.83996   0.92737   0.21579   0.00000  Uiso   1.00
C429   C     0.78074   0.91826   0.14332   0.00000  Uiso   1.00
C430   C     0.74718   0.86442   0.10839   0.00000  Uiso   1.00
C431   C     0.69428   0.86542   0.04250   0.00000  Uiso   1.00
C432   C     0.80821   0.00593   0.26269   0.00000  Uiso   1.00
C433   C     0.79777   0.02579   0.32813   0.00000  Uiso   1.00
C434   C     0.76800   0.10058   0.36275   0.00000  Uiso   1.00
C435   C     0.90741   0.92474   0.20375   0.00000  Uiso   1.00
C436   C     0.98038   0.87636   0.21964   0.00000  Uiso   1.00
C437   C     0.03413   0.88283   0.20465   0.00000  Uiso   1.00
H438   H     0.79116   0.06612   0.13770   0.00000  Uiso   1.00
H439   H     0.69483   0.01331   0.02462   0.00000  Uiso   1.00
H440   H     0.74543   0.17465   0.24433   0.00000  Uiso   1.00
H441   H     0.92800   0.02524   0.13586   0.00000  Uiso   1.00
H442   H     0.59624   0.93142   0.91240   0.00000  Uiso   1.00
H443   H     0.70294   0.27161   0.37569   0.00000  Uiso   1.00
H444   H     0.08793   0.95657   0.14696   0.00000  Uiso   1.00
H445   H     0.85446   0.88613   0.23900   0.00000  Uiso   1.00
H446   H     0.76161   0.82344   0.13147   0.00000  Uiso   1.00
H447   H     0.81220   0.98479   0.35118   0.00000  Uiso   1.00
H448   H     0.99477   0.83538   0.24271   0.00000  Uiso   1.00
H449   H     0.65043   0.77732   0.99913   0.00000  Uiso   1.00
H450   H     0.75713   0.11752   0.46242   0.00000  Uiso   1.00
H451   H     0.14212   0.80247   0.23368   0.00000  Uiso   1.00
O452   O     0.56110   0.81639   0.88321   0.00000  Uiso   1.00
O453   O     0.70110   0.26272   0.49103   0.00000  Uiso   1.00
O454   O     0.20619   0.84939   0.19094   0.00000  Uiso   1.00
N455   N     0.62175   0.90375   0.94756   0.00000  Uiso   1.00
N456   N     0.72149   0.22181   0.38071   0.00000  Uiso   1.00
N457   N     0.08143   0.92728   0.16688   0.00000  Uiso   1.00
N458   N     0.65091   0.82083   0.99423   0.00000  Uiso   1.00
N459   N     0.75065   0.13889   0.42737   0.00000  Uiso   1.00
N460   N     0.11059   0.84436   0.21354   0.00000  Uiso   1.00
C461   C     0.47782   0.99230   0.25431   0.00000  Uiso   1.00
C462   C     0.55417   0.93947   0.28262   0.00000  Uiso   1.00
C463   C     0.56994   0.90508   0.32966   0.00000  Uiso   1.00
C464   C     0.64329   0.85873   0.34915   0.00000  Uiso   1.00
C465   C     0.75340   0.77846   0.39718   0.00000  Uiso   1.00
C466   C     0.49092   0.06324   0.27364   0.00000  Uiso   1.00
C467   C     0.45350   0.13292   0.31311   0.00000  Uiso   1.00
C468   C     0.47361   0.19076   0.32502   0.00000  Uiso   1.00
C469   C     0.48548   0.30267   0.35906   0.00000  Uiso   1.00
C470   C     0.45844   0.95970   0.17308   0.00000  Uiso   1.00
C471   C     0.39370   0.94234   0.12800   0.00000  Uiso   1.00
C472   C     0.38645   0.91302   0.05526   0.00000  Uiso   1.00
C473   C     0.34789   0.86417   0.93318   0.00000  Uiso   1.00
C474   C     0.58004   0.97113   0.20528   0.00000  Uiso   1.00
C475   C     0.60969   0.92797   0.25599   0.00000  Uiso   1.00
C476   C     0.68304   0.88165   0.27541   0.00000  Uiso   1.00
C477   C     0.69892   0.84720   0.32247   0.00000  Uiso   1.00
C478   C     0.54644   0.05174   0.24701   0.00000  Uiso   1.00
C479   C     0.56660   0.10949   0.25886   0.00000  Uiso   1.00
C480   C     0.52923   0.17924   0.29834   0.00000  Uiso   1.00
C481   C     0.51396   0.94820   0.14645   0.00000  Uiso   1.00
C482   C     0.50680   0.91891   0.07376   0.00000  Uiso   1.00
C483   C     0.44207   0.90150   0.02858   0.00000  Uiso   1.00
H484   H     0.43459   0.00127   0.27505   0.00000  Uiso   1.00
H485   H     0.52696   0.91400   0.35026   0.00000  Uiso   1.00
H486   H     0.41053   0.14181   0.33370   0.00000  Uiso   1.00
H487   H     0.35074   0.95125   0.14863   0.00000  Uiso   1.00
H488   H     0.65385   0.81220   0.42192   0.00000  Uiso   1.00
H489   H     0.40834   0.29255   0.38699   0.00000  Uiso   1.00
H490   H     0.28227   0.89073   0.99673   0.00000  Uiso   1.00
H491   H     0.62327   0.96217   0.18455   0.00000  Uiso   1.00
H492   H     0.72599   0.87276   0.25480   0.00000  Uiso   1.00
H493   H     0.60956   0.10057   0.23824   0.00000  Uiso   1.00
H494   H     0.54978   0.91001   0.05317   0.00000  Uiso   1.00
H495   H     0.81540   0.77873   0.34445   0.00000  Uiso   1.00
H496   H     0.56988   0.25908   0.30951   0.00000  Uiso   1.00
H497   H     0.44381   0.85726   0.91925   0.00000  Uiso   1.00
O498   O     0.79880   0.73737   0.43105   0.00000  Uiso   1.00
O499   O     0.47669   0.36757   0.38521   0.00000  Uiso   1.00
O500   O     0.31128   0.84039   0.87320   0.00000  Uiso   1.00
N501   N     0.67777   0.81658   0.39404   0.00000  Uiso   1.00
N502   N     0.44824   0.26568   0.36139   0.00000  Uiso   1.00
N503   N     0.33036   0.89003   0.99653   0.00000  Uiso   1.00
N504   N     0.76470   0.79857   0.35235   0.00000  Uiso   1.00
N505   N     0.53517   0.24767   0.31970   0.00000  Uiso   1.00
N506   N     0.41729   0.87202   0.95484   0.00000  Uiso   1.00
C507   C     0.91972   0.01244   0.62430   0.00000  Uiso   1.00
C508   C     0.95617   0.97015   0.56349   0.00000  Uiso   1.00
C509   C     0.01813   0.97696   0.56260   0.00000  Uiso   1.00
C510   C     0.04294   0.93343   0.50198   0.00000  Uiso   1.00
C511   C     0.10499   0.87518   0.41631   0.00000  Uiso   1.00
C512   C     0.83720   0.05158   0.59153   0.00000  Uiso   1.00
C513   C     0.79914   0.12685   0.61422   0.00000  Uiso   1.00
C514   C     0.72380   0.15186   0.57721   0.00000  Uiso   1.00
C515   C     0.60114   0.22002   0.53510   0.00000  Uiso   1.00
C516   C     0.92046   0.95432   0.64519   0.00000  Uiso   1.00
C517   C     0.95238   0.94782   0.71300   0.00000  Uiso   1.00
C518   C     0.94712   0.89094   0.72117   0.00000  Uiso   1.00
C519   C     0.95372   0.80809   0.76237   0.00000  Uiso   1.00
C520   C     0.85360   0.92302   0.51822   0.00000  Uiso   1.00
C521   C     0.92026   0.92158   0.50587   0.00000  Uiso   1.00
C522   C     0.94498   0.87802   0.44524   0.00000  Uiso   1.00
C523   C     0.00697   0.88477   0.44426   0.00000  Uiso   1.00
C524   C     0.80129   0.00301   0.53391   0.00000  Uiso   1.00
C525   C     0.72599   0.02791   0.49686   0.00000  Uiso   1.00
C526   C     0.68782   0.10320   0.51949   0.00000  Uiso   1.00
C527   C     0.88455   0.90574   0.58757   0.00000  Uiso   1.00
C528   C     0.87923   0.84888   0.59564   0.00000  Uiso   1.00
C529   C     0.91114   0.84229   0.66345   0.00000  Uiso   1.00
H530   H     0.94767   0.05026   0.66916   0.00000  Uiso   1.00
H531   H     0.04590   0.01456   0.60720   0.00000  Uiso   1.00
H532   H     0.82694   0.16442   0.65882   0.00000  Uiso   1.00
H533   H     0.98016   0.98541   0.75757   0.00000  Uiso   1.00
H534   H     0.13896   0.95358   0.51309   0.00000  Uiso   1.00
H535   H     0.67727   0.26957   0.62194   0.00000  Uiso   1.00
H536   H     0.00035   0.89210   0.83020   0.00000  Uiso   1.00
H537   H     0.82564   0.88520   0.47336   0.00000  Uiso   1.00
H538   H     0.91718   0.84044   0.40066   0.00000  Uiso   1.00
H539   H     0.69822   0.99031   0.45228   0.00000  Uiso   1.00
H540   H     0.85144   0.81130   0.55104   0.00000  Uiso   1.00
H541   H     0.03448   0.81227   0.34545   0.00000  Uiso   1.00
H542   H     0.57278   0.12826   0.45431   0.00000  Uiso   1.00
H543   H     0.89587   0.75078   0.66256   0.00000  Uiso   1.00
O544   O     0.14912   0.85648   0.38496   0.00000  Uiso   1.00
O545   O     0.54340   0.27104   0.52779   0.00000  Uiso   1.00
O546   O     0.96728   0.77580   0.80101   0.00000  Uiso   1.00
N547   N     0.10182   0.92645   0.48362   0.00000  Uiso   1.00
N548   N     0.67016   0.22189   0.58538   0.00000  Uiso   1.00
N549   N     0.97221   0.86899   0.78009   0.00000  Uiso   1.00
N550   N     0.04560   0.85041   0.39341   0.00000  Uiso   1.00
N551   N     0.61394   0.14585   0.49518   0.00000  Uiso   1.00
N552   N     0.91599   0.79295   0.68988   0.00000  Uiso   1.00
