data_job_01788
_audit_creation_date              2018-12-19
_audit_creation_method            'Materials Studio'
_symmetry_space_group_name_H-M    'P1'
_symmetry_Int_Tables_number       1
_symmetry_cell_setting            triclinic
loop_
_symmetry_equiv_pos_as_xyz
  x,y,z
_cell_length_a                    28.4290
_cell_length_b                    17.9399
_cell_length_c                    9.7163
_cell_angle_alpha                 90.0000
_cell_angle_beta                  90.0000
_cell_angle_gamma                 90.0000
loop_
_atom_site_label
_atom_site_type_symbol
_atom_site_fract_x
_atom_site_fract_y
_atom_site_fract_z
_atom_site_U_iso_or_equiv
_atom_site_adp_type
_atom_site_occupancy
C1     C     0.33844   0.06688   0.19916   0.00000  Uiso   1.00
C2     C     0.36845   0.02804   0.09064   0.00000  Uiso   1.00
C3     C     0.36303   0.03456   0.94921   0.00000  Uiso   1.00
C4     C     0.39404   0.99451   0.86726   0.00000  Uiso   1.00
C5     C     0.43529   0.94100   0.69001   0.00000  Uiso   1.00
C6     C     0.31864   0.00518   0.29026   0.00000  Uiso   1.00
C7     C     0.27134   0.99249   0.31667   0.00000  Uiso   1.00
C8     C     0.26042   0.93320   0.40278   0.00000  Uiso   1.00
C9     C     0.22433   0.84424   0.53551   0.00000  Uiso   1.00
C10    C     0.37256   0.11073   0.28920   0.00000  Uiso   1.00
C11    C     0.37059   0.18678   0.31475   0.00000  Uiso   1.00
C12    C     0.40507   0.21634   0.39999   0.00000  Uiso   1.00
C13    C     0.45270   0.29125   0.53108   0.00000  Uiso   1.00
C14    C     0.40315   0.98416   0.30513   0.00000  Uiso   1.00
C15    C     0.40360   0.98311   0.14821   0.00000  Uiso   1.00
C16    C     0.43463   0.94304   0.06645   0.00000  Uiso   1.00
C17    C     0.42926   0.94950   0.92492   0.00000  Uiso   1.00
C18    C     0.35379   0.96025   0.34782   0.00000  Uiso   1.00
C19    C     0.34294   0.90097   0.43392   0.00000  Uiso   1.00
C20    C     0.29563   0.88819   0.46044   0.00000  Uiso   1.00
C21    C     0.40771   0.06580   0.34676   0.00000  Uiso   1.00
C22    C     0.44220   0.09525   0.43199   0.00000  Uiso   1.00
C23    C     0.44028   0.17133   0.45766   0.00000  Uiso   1.00
H24    H     0.31107   0.10186   0.15435   0.00000  Uiso   1.00
H25    H     0.33582   0.06933   0.90470   0.00000  Uiso   1.00
H26    H     0.24414   0.02728   0.27212   0.00000  Uiso   1.00
H27    H     0.34338   0.22153   0.27019   0.00000  Uiso   1.00
H28    H     0.37876   0.01344   0.65331   0.00000  Uiso   1.00
H29    H     0.18545   0.92477   0.42807   0.00000  Uiso   1.00
H30    H     0.39472   0.33439   0.42400   0.00000  Uiso   1.00
H31    H     0.43052   0.94918   0.34995   0.00000  Uiso   1.00
H32    H     0.46183   0.90827   0.11103   0.00000  Uiso   1.00
H33    H     0.37015   0.86621   0.47845   0.00000  Uiso   1.00
H34    H     0.46939   0.06046   0.47651   0.00000  Uiso   1.00
H35    H     0.48103   0.88271   0.82077   0.00000  Uiso   1.00
H36    H     0.28772   0.79404   0.59553   0.00000  Uiso   1.00
H37    H     0.49699   0.20366   0.59146   0.00000  Uiso   1.00
O38    O     0.44833   0.92390   0.57634   0.00000  Uiso   1.00
O39    O     0.19471   0.80758   0.59281   0.00000  Uiso   1.00
O40    O     0.46927   0.34499   0.58747   0.00000  Uiso   1.00
N41    N     0.39854   0.98829   0.72551   0.00000  Uiso   1.00
N42    N     0.21780   0.90539   0.44984   0.00000  Uiso   1.00
N43    N     0.41344   0.28834   0.44607   0.00000  Uiso   1.00
N44    N     0.45357   0.91795   0.81562   0.00000  Uiso   1.00
N45    N     0.27283   0.83505   0.53995   0.00000  Uiso   1.00
N46    N     0.46848   0.21800   0.53618   0.00000  Uiso   1.00
C47    C     0.16156   0.43312   0.19916   0.00000  Uiso   1.00
C48    C     0.13155   0.47196   0.09064   0.00000  Uiso   1.00
C49    C     0.13697   0.46544   0.94921   0.00000  Uiso   1.00
C50    C     0.10596   0.50549   0.86726   0.00000  Uiso   1.00
C51    C     0.06471   0.55900   0.69001   0.00000  Uiso   1.00
C52    C     0.18136   0.49482   0.29026   0.00000  Uiso   1.00
C53    C     0.22866   0.50751   0.31667   0.00000  Uiso   1.00
C54    C     0.23958   0.56680   0.40278   0.00000  Uiso   1.00
C55    C     0.27567   0.65576   0.53551   0.00000  Uiso   1.00
C56    C     0.12744   0.38927   0.28920   0.00000  Uiso   1.00
C57    C     0.12941   0.31322   0.31475   0.00000  Uiso   1.00
C58    C     0.09493   0.28366   0.39999   0.00000  Uiso   1.00
C59    C     0.04730   0.20875   0.53108   0.00000  Uiso   1.00
C60    C     0.09685   0.51584   0.30513   0.00000  Uiso   1.00
C61    C     0.09640   0.51689   0.14821   0.00000  Uiso   1.00
C62    C     0.06537   0.55696   0.06645   0.00000  Uiso   1.00
C63    C     0.07074   0.55050   0.92492   0.00000  Uiso   1.00
C64    C     0.14621   0.53975   0.34782   0.00000  Uiso   1.00
C65    C     0.15706   0.59903   0.43392   0.00000  Uiso   1.00
C66    C     0.20437   0.61181   0.46044   0.00000  Uiso   1.00
C67    C     0.09229   0.43420   0.34676   0.00000  Uiso   1.00
C68    C     0.05780   0.40475   0.43199   0.00000  Uiso   1.00
C69    C     0.05972   0.32867   0.45766   0.00000  Uiso   1.00
H70    H     0.18893   0.39814   0.15435   0.00000  Uiso   1.00
H71    H     0.16418   0.43067   0.90470   0.00000  Uiso   1.00
H72    H     0.25586   0.47272   0.27212   0.00000  Uiso   1.00
H73    H     0.15662   0.27847   0.27019   0.00000  Uiso   1.00
H74    H     0.12124   0.48656   0.65331   0.00000  Uiso   1.00
H75    H     0.31455   0.57523   0.42807   0.00000  Uiso   1.00
H76    H     0.10528   0.16561   0.42400   0.00000  Uiso   1.00
H77    H     0.06948   0.55082   0.34995   0.00000  Uiso   1.00
H78    H     0.03817   0.59173   0.11103   0.00000  Uiso   1.00
H79    H     0.12985   0.63379   0.47845   0.00000  Uiso   1.00
H80    H     0.03061   0.43954   0.47651   0.00000  Uiso   1.00
H81    H     0.01897   0.61729   0.82077   0.00000  Uiso   1.00
H82    H     0.21228   0.70596   0.59553   0.00000  Uiso   1.00
H83    H     0.00301   0.29634   0.59146   0.00000  Uiso   1.00
O84    O     0.05167   0.57610   0.57634   0.00000  Uiso   1.00
O85    O     0.30529   0.69242   0.59281   0.00000  Uiso   1.00
O86    O     0.03073   0.15501   0.58747   0.00000  Uiso   1.00
N87    N     0.10146   0.51171   0.72551   0.00000  Uiso   1.00
N88    N     0.28220   0.59461   0.44984   0.00000  Uiso   1.00
N89    N     0.08656   0.21166   0.44607   0.00000  Uiso   1.00
N90    N     0.04643   0.58205   0.81562   0.00000  Uiso   1.00
N91    N     0.22717   0.66495   0.53995   0.00000  Uiso   1.00
N92    N     0.03152   0.28200   0.53618   0.00000  Uiso   1.00
C93    C     0.66156   0.56688   0.30084   0.00000  Uiso   1.00
C94    C     0.63155   0.52804   0.40936   0.00000  Uiso   1.00
C95    C     0.63697   0.53456   0.55079   0.00000  Uiso   1.00
C96    C     0.60596   0.49451   0.63274   0.00000  Uiso   1.00
C97    C     0.56471   0.44100   0.80999   0.00000  Uiso   1.00
C98    C     0.68136   0.50518   0.20974   0.00000  Uiso   1.00
C99    C     0.72866   0.49249   0.18333   0.00000  Uiso   1.00
C100   C     0.73958   0.43320   0.09722   0.00000  Uiso   1.00
C101   C     0.77567   0.34424   0.96449   0.00000  Uiso   1.00
C102   C     0.62744   0.61073   0.21080   0.00000  Uiso   1.00
C103   C     0.62941   0.68678   0.18525   0.00000  Uiso   1.00
C104   C     0.59493   0.71634   0.10001   0.00000  Uiso   1.00
C105   C     0.54730   0.79125   0.96892   0.00000  Uiso   1.00
C106   C     0.59685   0.48416   0.19487   0.00000  Uiso   1.00
C107   C     0.59640   0.48311   0.35179   0.00000  Uiso   1.00
C108   C     0.56537   0.44304   0.43355   0.00000  Uiso   1.00
C109   C     0.57074   0.44950   0.57508   0.00000  Uiso   1.00
C110   C     0.64621   0.46025   0.15218   0.00000  Uiso   1.00
C111   C     0.65706   0.40097   0.06608   0.00000  Uiso   1.00
C112   C     0.70437   0.38819   0.03956   0.00000  Uiso   1.00
C113   C     0.59229   0.56580   0.15324   0.00000  Uiso   1.00
C114   C     0.55780   0.59525   0.06801   0.00000  Uiso   1.00
C115   C     0.55972   0.67133   0.04234   0.00000  Uiso   1.00
H116   H     0.68893   0.60186   0.34565   0.00000  Uiso   1.00
H117   H     0.66418   0.56933   0.59530   0.00000  Uiso   1.00
H118   H     0.75586   0.52728   0.22788   0.00000  Uiso   1.00
H119   H     0.65662   0.72153   0.22981   0.00000  Uiso   1.00
H120   H     0.62124   0.51344   0.84669   0.00000  Uiso   1.00
H121   H     0.81455   0.42477   0.07193   0.00000  Uiso   1.00
H122   H     0.60528   0.83439   0.07600   0.00000  Uiso   1.00
H123   H     0.56948   0.44918   0.15005   0.00000  Uiso   1.00
H124   H     0.53817   0.40827   0.38897   0.00000  Uiso   1.00
H125   H     0.62985   0.36621   0.02155   0.00000  Uiso   1.00
H126   H     0.53061   0.56046   0.02349   0.00000  Uiso   1.00
H127   H     0.51897   0.38271   0.67923   0.00000  Uiso   1.00
H128   H     0.71228   0.29404   0.90447   0.00000  Uiso   1.00
H129   H     0.50301   0.70366   0.90854   0.00000  Uiso   1.00
O130   O     0.55167   0.42390   0.92366   0.00000  Uiso   1.00
O131   O     0.80529   0.30758   0.90719   0.00000  Uiso   1.00
O132   O     0.53073   0.84499   0.91253   0.00000  Uiso   1.00
N133   N     0.60146   0.48829   0.77449   0.00000  Uiso   1.00
N134   N     0.78220   0.40539   0.05016   0.00000  Uiso   1.00
N135   N     0.58656   0.78834   0.05393   0.00000  Uiso   1.00
N136   N     0.54643   0.41795   0.68438   0.00000  Uiso   1.00
N137   N     0.72717   0.33505   0.96005   0.00000  Uiso   1.00
N138   N     0.53152   0.71800   0.96382   0.00000  Uiso   1.00
C139   C     0.83844   0.93312   0.30084   0.00000  Uiso   1.00
C140   C     0.86845   0.97196   0.40936   0.00000  Uiso   1.00
C141   C     0.86303   0.96544   0.55079   0.00000  Uiso   1.00
C142   C     0.89404   0.00549   0.63274   0.00000  Uiso   1.00
C143   C     0.93529   0.05900   0.80999   0.00000  Uiso   1.00
C144   C     0.81864   0.99482   0.20974   0.00000  Uiso   1.00
C145   C     0.77134   0.00751   0.18333   0.00000  Uiso   1.00
C146   C     0.76042   0.06680   0.09722   0.00000  Uiso   1.00
C147   C     0.72433   0.15576   0.96449   0.00000  Uiso   1.00
C148   C     0.87256   0.88927   0.21080   0.00000  Uiso   1.00
C149   C     0.87059   0.81322   0.18525   0.00000  Uiso   1.00
C150   C     0.90507   0.78366   0.10001   0.00000  Uiso   1.00
C151   C     0.95270   0.70875   0.96892   0.00000  Uiso   1.00
C152   C     0.90315   0.01584   0.19487   0.00000  Uiso   1.00
C153   C     0.90360   0.01689   0.35179   0.00000  Uiso   1.00
C154   C     0.93463   0.05696   0.43355   0.00000  Uiso   1.00
C155   C     0.92926   0.05050   0.57508   0.00000  Uiso   1.00
C156   C     0.85379   0.03975   0.15218   0.00000  Uiso   1.00
C157   C     0.84294   0.09903   0.06608   0.00000  Uiso   1.00
C158   C     0.79563   0.11181   0.03956   0.00000  Uiso   1.00
C159   C     0.90771   0.93420   0.15324   0.00000  Uiso   1.00
C160   C     0.94220   0.90475   0.06801   0.00000  Uiso   1.00
C161   C     0.94028   0.82867   0.04234   0.00000  Uiso   1.00
H162   H     0.81107   0.89814   0.34565   0.00000  Uiso   1.00
H163   H     0.83582   0.93067   0.59530   0.00000  Uiso   1.00
H164   H     0.74414   0.97272   0.22788   0.00000  Uiso   1.00
H165   H     0.84338   0.77847   0.22981   0.00000  Uiso   1.00
H166   H     0.87876   0.98656   0.84669   0.00000  Uiso   1.00
H167   H     0.68545   0.07523   0.07193   0.00000  Uiso   1.00
H168   H     0.89472   0.66561   0.07600   0.00000  Uiso   1.00
H169   H     0.93052   0.05082   0.15005   0.00000  Uiso   1.00
H170   H     0.96183   0.09173   0.38897   0.00000  Uiso   1.00
H171   H     0.87015   0.13379   0.02155   0.00000  Uiso   1.00
H172   H     0.96939   0.93954   0.02349   0.00000  Uiso   1.00
H173   H     0.98103   0.11729   0.67923   0.00000  Uiso   1.00
H174   H     0.78772   0.20596   0.90447   0.00000  Uiso   1.00
H175   H     0.99699   0.79634   0.90854   0.00000  Uiso   1.00
O176   O     0.94833   0.07610   0.92366   0.00000  Uiso   1.00
O177   O     0.69471   0.19242   0.90719   0.00000  Uiso   1.00
O178   O     0.96927   0.65501   0.91253   0.00000  Uiso   1.00
N179   N     0.89854   0.01171   0.77449   0.00000  Uiso   1.00
N180   N     0.71780   0.09461   0.05016   0.00000  Uiso   1.00
N181   N     0.91344   0.71166   0.05393   0.00000  Uiso   1.00
N182   N     0.95357   0.08205   0.68438   0.00000  Uiso   1.00
N183   N     0.77283   0.16495   0.96005   0.00000  Uiso   1.00
N184   N     0.96848   0.78200   0.96382   0.00000  Uiso   1.00
C185   C     0.66156   0.93312   0.80084   0.00000  Uiso   1.00
C186   C     0.63155   0.97196   0.90936   0.00000  Uiso   1.00
C187   C     0.63697   0.96544   0.05079   0.00000  Uiso   1.00
C188   C     0.60596   0.00549   0.13274   0.00000  Uiso   1.00
C189   C     0.56471   0.05900   0.30999   0.00000  Uiso   1.00
C190   C     0.68136   0.99482   0.70974   0.00000  Uiso   1.00
C191   C     0.72866   0.00751   0.68333   0.00000  Uiso   1.00
C192   C     0.73958   0.06680   0.59722   0.00000  Uiso   1.00
C193   C     0.77567   0.15576   0.46449   0.00000  Uiso   1.00
C194   C     0.62744   0.88927   0.71080   0.00000  Uiso   1.00
C195   C     0.62941   0.81322   0.68525   0.00000  Uiso   1.00
C196   C     0.59493   0.78366   0.60001   0.00000  Uiso   1.00
C197   C     0.54730   0.70875   0.46892   0.00000  Uiso   1.00
C198   C     0.59685   0.01584   0.69487   0.00000  Uiso   1.00
C199   C     0.59640   0.01689   0.85179   0.00000  Uiso   1.00
C200   C     0.56537   0.05696   0.93355   0.00000  Uiso   1.00
C201   C     0.57074   0.05050   0.07508   0.00000  Uiso   1.00
C202   C     0.64621   0.03975   0.65218   0.00000  Uiso   1.00
C203   C     0.65706   0.09903   0.56608   0.00000  Uiso   1.00
C204   C     0.70437   0.11181   0.53956   0.00000  Uiso   1.00
C205   C     0.59229   0.93420   0.65324   0.00000  Uiso   1.00
C206   C     0.55780   0.90475   0.56801   0.00000  Uiso   1.00
C207   C     0.55972   0.82867   0.54234   0.00000  Uiso   1.00
H208   H     0.68893   0.89814   0.84565   0.00000  Uiso   1.00
H209   H     0.66418   0.93067   0.09530   0.00000  Uiso   1.00
H210   H     0.75586   0.97272   0.72788   0.00000  Uiso   1.00
H211   H     0.65662   0.77847   0.72981   0.00000  Uiso   1.00
H212   H     0.62124   0.98656   0.34669   0.00000  Uiso   1.00
H213   H     0.81455   0.07523   0.57193   0.00000  Uiso   1.00
H214   H     0.60528   0.66561   0.57600   0.00000  Uiso   1.00
H215   H     0.56948   0.05082   0.65005   0.00000  Uiso   1.00
H216   H     0.53817   0.09173   0.88897   0.00000  Uiso   1.00
H217   H     0.62985   0.13379   0.52155   0.00000  Uiso   1.00
H218   H     0.53061   0.93954   0.52349   0.00000  Uiso   1.00
H219   H     0.51897   0.11729   0.17923   0.00000  Uiso   1.00
H220   H     0.71228   0.20596   0.40447   0.00000  Uiso   1.00
H221   H     0.50301   0.79634   0.40854   0.00000  Uiso   1.00
O222   O     0.55167   0.07610   0.42366   0.00000  Uiso   1.00
O223   O     0.80529   0.19242   0.40719   0.00000  Uiso   1.00
O224   O     0.53073   0.65501   0.41253   0.00000  Uiso   1.00
N225   N     0.60146   0.01171   0.27449   0.00000  Uiso   1.00
N226   N     0.78220   0.09461   0.55016   0.00000  Uiso   1.00
N227   N     0.58656   0.71166   0.55393   0.00000  Uiso   1.00
N228   N     0.54643   0.08205   0.18438   0.00000  Uiso   1.00
N229   N     0.72717   0.16495   0.46005   0.00000  Uiso   1.00
N230   N     0.53152   0.78200   0.46382   0.00000  Uiso   1.00
C231   C     0.83844   0.56688   0.80084   0.00000  Uiso   1.00
C232   C     0.86845   0.52804   0.90936   0.00000  Uiso   1.00
C233   C     0.86303   0.53456   0.05079   0.00000  Uiso   1.00
C234   C     0.89404   0.49451   0.13274   0.00000  Uiso   1.00
C235   C     0.93529   0.44100   0.30999   0.00000  Uiso   1.00
C236   C     0.81864   0.50518   0.70974   0.00000  Uiso   1.00
C237   C     0.77134   0.49249   0.68333   0.00000  Uiso   1.00
C238   C     0.76042   0.43320   0.59722   0.00000  Uiso   1.00
C239   C     0.72433   0.34424   0.46449   0.00000  Uiso   1.00
C240   C     0.87256   0.61073   0.71080   0.00000  Uiso   1.00
C241   C     0.87059   0.68678   0.68525   0.00000  Uiso   1.00
C242   C     0.90507   0.71634   0.60001   0.00000  Uiso   1.00
C243   C     0.95270   0.79125   0.46892   0.00000  Uiso   1.00
C244   C     0.90315   0.48416   0.69487   0.00000  Uiso   1.00
C245   C     0.90360   0.48311   0.85179   0.00000  Uiso   1.00
C246   C     0.93463   0.44304   0.93355   0.00000  Uiso   1.00
C247   C     0.92926   0.44950   0.07508   0.00000  Uiso   1.00
C248   C     0.85379   0.46025   0.65218   0.00000  Uiso   1.00
C249   C     0.84294   0.40097   0.56608   0.00000  Uiso   1.00
C250   C     0.79563   0.38819   0.53956   0.00000  Uiso   1.00
C251   C     0.90771   0.56580   0.65324   0.00000  Uiso   1.00
C252   C     0.94220   0.59525   0.56801   0.00000  Uiso   1.00
C253   C     0.94028   0.67133   0.54234   0.00000  Uiso   1.00
H254   H     0.81107   0.60186   0.84565   0.00000  Uiso   1.00
H255   H     0.83582   0.56933   0.09530   0.00000  Uiso   1.00
H256   H     0.74414   0.52728   0.72788   0.00000  Uiso   1.00
H257   H     0.84338   0.72153   0.72981   0.00000  Uiso   1.00
H258   H     0.87876   0.51344   0.34669   0.00000  Uiso   1.00
H259   H     0.68545   0.42477   0.57193   0.00000  Uiso   1.00
H260   H     0.89472   0.83439   0.57600   0.00000  Uiso   1.00
H261   H     0.93052   0.44918   0.65005   0.00000  Uiso   1.00
H262   H     0.96183   0.40827   0.88897   0.00000  Uiso   1.00
H263   H     0.87015   0.36621   0.52155   0.00000  Uiso   1.00
H264   H     0.96939   0.56046   0.52349   0.00000  Uiso   1.00
H265   H     0.98103   0.38271   0.17923   0.00000  Uiso   1.00
H266   H     0.78772   0.29404   0.40447   0.00000  Uiso   1.00
H267   H     0.99699   0.70366   0.40854   0.00000  Uiso   1.00
O268   O     0.94833   0.42390   0.42366   0.00000  Uiso   1.00
O269   O     0.69471   0.30758   0.40719   0.00000  Uiso   1.00
O270   O     0.96927   0.84499   0.41253   0.00000  Uiso   1.00
N271   N     0.89854   0.48829   0.27449   0.00000  Uiso   1.00
N272   N     0.71780   0.40539   0.55016   0.00000  Uiso   1.00
N273   N     0.91344   0.78834   0.55393   0.00000  Uiso   1.00
N274   N     0.95357   0.41795   0.18438   0.00000  Uiso   1.00
N275   N     0.77283   0.33505   0.46005   0.00000  Uiso   1.00
N276   N     0.96848   0.71800   0.46382   0.00000  Uiso   1.00
C277   C     0.33844   0.43312   0.69916   0.00000  Uiso   1.00
C278   C     0.36845   0.47196   0.59064   0.00000  Uiso   1.00
C279   C     0.36303   0.46544   0.44921   0.00000  Uiso   1.00
C280   C     0.39404   0.50549   0.36726   0.00000  Uiso   1.00
C281   C     0.43529   0.55900   0.19001   0.00000  Uiso   1.00
C282   C     0.31864   0.49482   0.79026   0.00000  Uiso   1.00
C283   C     0.27134   0.50751   0.81667   0.00000  Uiso   1.00
C284   C     0.26042   0.56680   0.90278   0.00000  Uiso   1.00
C285   C     0.22433   0.65576   0.03551   0.00000  Uiso   1.00
C286   C     0.37256   0.38927   0.78920   0.00000  Uiso   1.00
C287   C     0.37059   0.31322   0.81475   0.00000  Uiso   1.00
C288   C     0.40507   0.28366   0.89999   0.00000  Uiso   1.00
C289   C     0.45270   0.20875   0.03108   0.00000  Uiso   1.00
C290   C     0.40315   0.51584   0.80513   0.00000  Uiso   1.00
C291   C     0.40360   0.51689   0.64821   0.00000  Uiso   1.00
C292   C     0.43463   0.55696   0.56645   0.00000  Uiso   1.00
C293   C     0.42926   0.55050   0.42492   0.00000  Uiso   1.00
C294   C     0.35379   0.53975   0.84782   0.00000  Uiso   1.00
C295   C     0.34294   0.59903   0.93392   0.00000  Uiso   1.00
C296   C     0.29563   0.61181   0.96044   0.00000  Uiso   1.00
C297   C     0.40771   0.43420   0.84676   0.00000  Uiso   1.00
C298   C     0.44220   0.40475   0.93199   0.00000  Uiso   1.00
C299   C     0.44028   0.32867   0.95766   0.00000  Uiso   1.00
H300   H     0.31107   0.39814   0.65435   0.00000  Uiso   1.00
H301   H     0.33582   0.43067   0.40470   0.00000  Uiso   1.00
H302   H     0.24414   0.47272   0.77212   0.00000  Uiso   1.00
H303   H     0.34338   0.27847   0.77019   0.00000  Uiso   1.00
H304   H     0.37876   0.48656   0.15331   0.00000  Uiso   1.00
H305   H     0.18545   0.57523   0.92807   0.00000  Uiso   1.00
H306   H     0.39472   0.16561   0.92400   0.00000  Uiso   1.00
H307   H     0.43052   0.55082   0.84995   0.00000  Uiso   1.00
H308   H     0.46183   0.59173   0.61103   0.00000  Uiso   1.00
H309   H     0.37015   0.63379   0.97845   0.00000  Uiso   1.00
H310   H     0.46939   0.43954   0.97651   0.00000  Uiso   1.00
H311   H     0.48103   0.61729   0.32077   0.00000  Uiso   1.00
H312   H     0.28772   0.70596   0.09553   0.00000  Uiso   1.00
H313   H     0.49699   0.29634   0.09146   0.00000  Uiso   1.00
O314   O     0.44833   0.57610   0.07634   0.00000  Uiso   1.00
O315   O     0.19471   0.69242   0.09281   0.00000  Uiso   1.00
O316   O     0.46927   0.15501   0.08747   0.00000  Uiso   1.00
N317   N     0.39854   0.51171   0.22551   0.00000  Uiso   1.00
N318   N     0.21780   0.59461   0.94984   0.00000  Uiso   1.00
N319   N     0.41344   0.21166   0.94607   0.00000  Uiso   1.00
N320   N     0.45357   0.58205   0.31562   0.00000  Uiso   1.00
N321   N     0.27283   0.66495   0.03995   0.00000  Uiso   1.00
N322   N     0.46848   0.28200   0.03618   0.00000  Uiso   1.00
C323   C     0.16156   0.06688   0.69916   0.00000  Uiso   1.00
C324   C     0.13155   0.02804   0.59064   0.00000  Uiso   1.00
C325   C     0.13697   0.03456   0.44921   0.00000  Uiso   1.00
C326   C     0.10596   0.99451   0.36726   0.00000  Uiso   1.00
C327   C     0.06471   0.94100   0.19001   0.00000  Uiso   1.00
C328   C     0.18136   0.00518   0.79026   0.00000  Uiso   1.00
C329   C     0.22866   0.99249   0.81667   0.00000  Uiso   1.00
C330   C     0.23958   0.93320   0.90278   0.00000  Uiso   1.00
C331   C     0.27567   0.84424   0.03551   0.00000  Uiso   1.00
C332   C     0.12744   0.11073   0.78920   0.00000  Uiso   1.00
C333   C     0.12941   0.18678   0.81475   0.00000  Uiso   1.00
C334   C     0.09493   0.21634   0.89999   0.00000  Uiso   1.00
C335   C     0.04730   0.29125   0.03108   0.00000  Uiso   1.00
C336   C     0.09685   0.98416   0.80513   0.00000  Uiso   1.00
C337   C     0.09640   0.98311   0.64821   0.00000  Uiso   1.00
C338   C     0.06537   0.94304   0.56645   0.00000  Uiso   1.00
C339   C     0.07074   0.94950   0.42492   0.00000  Uiso   1.00
C340   C     0.14621   0.96025   0.84782   0.00000  Uiso   1.00
C341   C     0.15706   0.90097   0.93392   0.00000  Uiso   1.00
C342   C     0.20437   0.88819   0.96044   0.00000  Uiso   1.00
C343   C     0.09229   0.06580   0.84676   0.00000  Uiso   1.00
C344   C     0.05780   0.09525   0.93199   0.00000  Uiso   1.00
C345   C     0.05972   0.17133   0.95766   0.00000  Uiso   1.00
H346   H     0.18893   0.10186   0.65435   0.00000  Uiso   1.00
H347   H     0.16418   0.06933   0.40470   0.00000  Uiso   1.00
H348   H     0.25586   0.02728   0.77212   0.00000  Uiso   1.00
H349   H     0.15662   0.22153   0.77019   0.00000  Uiso   1.00
H350   H     0.12124   0.01344   0.15331   0.00000  Uiso   1.00
H351   H     0.31455   0.92477   0.92807   0.00000  Uiso   1.00
H352   H     0.10528   0.33439   0.92400   0.00000  Uiso   1.00
H353   H     0.06948   0.94918   0.84995   0.00000  Uiso   1.00
H354   H     0.03817   0.90827   0.61103   0.00000  Uiso   1.00
H355   H     0.12985   0.86621   0.97845   0.00000  Uiso   1.00
H356   H     0.03061   0.06046   0.97651   0.00000  Uiso   1.00
H357   H     0.01897   0.88271   0.32077   0.00000  Uiso   1.00
H358   H     0.21228   0.79404   0.09553   0.00000  Uiso   1.00
H359   H     0.00301   0.20366   0.09146   0.00000  Uiso   1.00
O360   O     0.05167   0.92390   0.07634   0.00000  Uiso   1.00
O361   O     0.30529   0.80758   0.09281   0.00000  Uiso   1.00
O362   O     0.03073   0.34499   0.08747   0.00000  Uiso   1.00
N363   N     0.10146   0.98829   0.22551   0.00000  Uiso   1.00
N364   N     0.28220   0.90539   0.94984   0.00000  Uiso   1.00
N365   N     0.08656   0.28834   0.94607   0.00000  Uiso   1.00
N366   N     0.04643   0.91795   0.31562   0.00000  Uiso   1.00
N367   N     0.22717   0.83505   0.03995   0.00000  Uiso   1.00
N368   N     0.03152   0.21800   0.03618   0.00000  Uiso   1.00
