data_job_02894
_audit_creation_date              2018-12-19
_audit_creation_method            'Materials Studio'
_symmetry_space_group_name_H-M    'P1'
_symmetry_Int_Tables_number       1
_symmetry_cell_setting            triclinic
loop_
_symmetry_equiv_pos_as_xyz
  x,y,z
_cell_length_a                    22.8224
_cell_length_b                    7.9401
_cell_length_c                    16.5923
_cell_angle_alpha                 90.0000
_cell_angle_beta                  75.6688
_cell_angle_gamma                 90.0000
loop_
_atom_site_label
_atom_site_type_symbol
_atom_site_fract_x
_atom_site_fract_y
_atom_site_fract_z
_atom_site_U_iso_or_equiv
_atom_site_adp_type
_atom_site_occupancy
C1     C     0.24139   0.13959   0.21611   0.00000  Uiso   1.00
C2     C     0.29960   0.14348   0.14704   0.00000  Uiso   1.00
C3     C     0.34185   0.27272   0.13253   0.00000  Uiso   1.00
C4     C     0.39210   0.25239   0.06620   0.00000  Uiso   1.00
C5     C     0.48130   0.28044   0.96653   0.00000  Uiso   1.00
C6     C     0.19024   0.11450   0.17307   0.00000  Uiso   1.00
C7     C     0.14053   0.21936   0.18046   0.00000  Uiso   1.00
C8     C     0.09872   0.17461   0.13605   0.00000  Uiso   1.00
C9     C     0.01811   0.15760   0.07684   0.00000  Uiso   1.00
C10    C     0.24401   0.97857   0.26519   0.00000  Uiso   1.00
C11    C     0.23950   0.96913   0.35003   0.00000  Uiso   1.00
C12    C     0.24294   0.80994   0.38318   0.00000  Uiso   1.00
C13    C     0.24581   0.58188   0.46699   0.00000  Uiso   1.00
C14    C     0.25550   0.87367   0.12414   0.00000  Uiso   1.00
C15    C     0.30726   0.99904   0.09708   0.00000  Uiso   1.00
C16    C     0.35746   0.97851   0.03077   0.00000  Uiso   1.00
C17    C     0.39978   0.10769   0.01616   0.00000  Uiso   1.00
C18    C     0.19790   0.97006   0.12312   0.00000  Uiso   1.00
C19    C     0.15615   0.92514   0.07870   0.00000  Uiso   1.00
C20    C     0.10640   0.02991   0.08601   0.00000  Uiso   1.00
C21    C     0.25167   0.83413   0.21523   0.00000  Uiso   1.00
C22    C     0.25511   0.67492   0.24826   0.00000  Uiso   1.00
C23    C     0.25062   0.66524   0.33313   0.00000  Uiso   1.00
H24    H     0.23542   0.25204   0.25501   0.00000  Uiso   1.00
H25    H     0.33590   0.38449   0.17120   0.00000  Uiso   1.00
H26    H     0.13461   0.33112   0.21913   0.00000  Uiso   1.00
H27    H     0.23356   0.08094   0.38867   0.00000  Uiso   1.00
H28    H     0.45067   0.46765   0.05623   0.00000  Uiso   1.00
H29    H     0.02623   0.35509   0.15732   0.00000  Uiso   1.00
H30    H     0.23489   0.82753   0.51483   0.00000  Uiso   1.00
H31    H     0.26147   0.76121   0.08524   0.00000  Uiso   1.00
H32    H     0.36338   0.86672   0.99212   0.00000  Uiso   1.00
H33    H     0.16209   0.81335   0.04005   0.00000  Uiso   1.00
H34    H     0.26105   0.56317   0.20959   0.00000  Uiso   1.00
H35    H     0.47297   0.04742   0.91088   0.00000  Uiso   1.00
H36    H     0.04853   0.93485   0.01197   0.00000  Uiso   1.00
H37    H     0.25720   0.40730   0.36948   0.00000  Uiso   1.00
O38    O     0.52838   0.33582   0.92534   0.00000  Uiso   1.00
O39    O     0.97153   0.18813   0.05798   0.00000  Uiso   1.00
O40    O     0.24529   0.49599   0.52702   0.00000  Uiso   1.00
N41    N     0.44194   0.35426   0.03481   0.00000  Uiso   1.00
N42    N     0.04512   0.24903   0.12931   0.00000  Uiso   1.00
N43    N     0.24018   0.75581   0.46356   0.00000  Uiso   1.00
N44    N     0.45394   0.12813   0.95660   0.00000  Uiso   1.00
N45    N     0.05712   0.02291   0.05110   0.00000  Uiso   1.00
N46    N     0.25218   0.52968   0.38535   0.00000  Uiso   1.00
C47    C     0.75861   0.13959   0.28389   0.00000  Uiso   1.00
C48    C     0.70040   0.14348   0.35296   0.00000  Uiso   1.00
C49    C     0.65815   0.27272   0.36747   0.00000  Uiso   1.00
C50    C     0.60790   0.25239   0.43380   0.00000  Uiso   1.00
C51    C     0.51870   0.28044   0.53347   0.00000  Uiso   1.00
C52    C     0.80976   0.11450   0.32693   0.00000  Uiso   1.00
C53    C     0.85947   0.21936   0.31954   0.00000  Uiso   1.00
C54    C     0.90128   0.17461   0.36395   0.00000  Uiso   1.00
C55    C     0.98189   0.15760   0.42316   0.00000  Uiso   1.00
C56    C     0.75599   0.97857   0.23481   0.00000  Uiso   1.00
C57    C     0.76050   0.96913   0.14997   0.00000  Uiso   1.00
C58    C     0.75706   0.80994   0.11682   0.00000  Uiso   1.00
C59    C     0.75419   0.58188   0.03301   0.00000  Uiso   1.00
C60    C     0.74450   0.87367   0.37586   0.00000  Uiso   1.00
C61    C     0.69274   0.99904   0.40292   0.00000  Uiso   1.00
C62    C     0.64254   0.97851   0.46923   0.00000  Uiso   1.00
C63    C     0.60022   0.10769   0.48384   0.00000  Uiso   1.00
C64    C     0.80210   0.97006   0.37688   0.00000  Uiso   1.00
C65    C     0.84385   0.92514   0.42130   0.00000  Uiso   1.00
C66    C     0.89360   0.02991   0.41399   0.00000  Uiso   1.00
C67    C     0.74833   0.83413   0.28477   0.00000  Uiso   1.00
C68    C     0.74489   0.67492   0.25174   0.00000  Uiso   1.00
C69    C     0.74938   0.66524   0.16687   0.00000  Uiso   1.00
H70    H     0.76458   0.25204   0.24499   0.00000  Uiso   1.00
H71    H     0.66410   0.38449   0.32880   0.00000  Uiso   1.00
H72    H     0.86539   0.33112   0.28087   0.00000  Uiso   1.00
H73    H     0.76644   0.08094   0.11133   0.00000  Uiso   1.00
H74    H     0.54933   0.46765   0.44377   0.00000  Uiso   1.00
H75    H     0.97377   0.35509   0.34268   0.00000  Uiso   1.00
H76    H     0.76511   0.82753   0.98517   0.00000  Uiso   1.00
H77    H     0.73853   0.76121   0.41476   0.00000  Uiso   1.00
H78    H     0.63662   0.86672   0.50788   0.00000  Uiso   1.00
H79    H     0.83791   0.81335   0.45995   0.00000  Uiso   1.00
H80    H     0.73895   0.56317   0.29041   0.00000  Uiso   1.00
H81    H     0.52703   0.04742   0.58912   0.00000  Uiso   1.00
H82    H     0.95147   0.93485   0.48803   0.00000  Uiso   1.00
H83    H     0.74280   0.40730   0.13052   0.00000  Uiso   1.00
O84    O     0.47162   0.33582   0.57466   0.00000  Uiso   1.00
O85    O     0.02847   0.18813   0.44202   0.00000  Uiso   1.00
O86    O     0.75471   0.49599   0.97298   0.00000  Uiso   1.00
N87    N     0.55806   0.35426   0.46519   0.00000  Uiso   1.00
N88    N     0.95488   0.24903   0.37069   0.00000  Uiso   1.00
N89    N     0.75982   0.75581   0.03644   0.00000  Uiso   1.00
N90    N     0.54606   0.12813   0.54340   0.00000  Uiso   1.00
N91    N     0.94288   0.02291   0.44890   0.00000  Uiso   1.00
N92    N     0.74782   0.52968   0.11465   0.00000  Uiso   1.00
C93    C     0.75861   0.86041   0.78389   0.00000  Uiso   1.00
C94    C     0.70040   0.85652   0.85296   0.00000  Uiso   1.00
C95    C     0.65815   0.72728   0.86747   0.00000  Uiso   1.00
C96    C     0.60790   0.74761   0.93380   0.00000  Uiso   1.00
C97    C     0.51870   0.71956   0.03347   0.00000  Uiso   1.00
C98    C     0.80976   0.88550   0.82693   0.00000  Uiso   1.00
C99    C     0.85947   0.78064   0.81954   0.00000  Uiso   1.00
C100   C     0.90128   0.82539   0.86395   0.00000  Uiso   1.00
C101   C     0.98189   0.84240   0.92316   0.00000  Uiso   1.00
C102   C     0.75599   0.02143   0.73481   0.00000  Uiso   1.00
C103   C     0.76050   0.03087   0.64997   0.00000  Uiso   1.00
C104   C     0.75706   0.19006   0.61682   0.00000  Uiso   1.00
C105   C     0.75419   0.41812   0.53301   0.00000  Uiso   1.00
C106   C     0.74450   0.12633   0.87586   0.00000  Uiso   1.00
C107   C     0.69274   0.00096   0.90292   0.00000  Uiso   1.00
C108   C     0.64254   0.02149   0.96923   0.00000  Uiso   1.00
C109   C     0.60022   0.89231   0.98384   0.00000  Uiso   1.00
C110   C     0.80210   0.02994   0.87688   0.00000  Uiso   1.00
C111   C     0.84385   0.07486   0.92130   0.00000  Uiso   1.00
C112   C     0.89360   0.97009   0.91399   0.00000  Uiso   1.00
C113   C     0.74833   0.16587   0.78477   0.00000  Uiso   1.00
C114   C     0.74489   0.32508   0.75174   0.00000  Uiso   1.00
C115   C     0.74938   0.33476   0.66687   0.00000  Uiso   1.00
H116   H     0.76458   0.74796   0.74499   0.00000  Uiso   1.00
H117   H     0.66410   0.61551   0.82880   0.00000  Uiso   1.00
H118   H     0.86539   0.66888   0.78087   0.00000  Uiso   1.00
H119   H     0.76644   0.91906   0.61133   0.00000  Uiso   1.00
H120   H     0.54933   0.53235   0.94377   0.00000  Uiso   1.00
H121   H     0.97377   0.64491   0.84268   0.00000  Uiso   1.00
H122   H     0.76511   0.17247   0.48517   0.00000  Uiso   1.00
H123   H     0.73853   0.23879   0.91476   0.00000  Uiso   1.00
H124   H     0.63662   0.13328   0.00788   0.00000  Uiso   1.00
H125   H     0.83791   0.18665   0.95995   0.00000  Uiso   1.00
H126   H     0.73895   0.43683   0.79041   0.00000  Uiso   1.00
H127   H     0.52703   0.95258   0.08912   0.00000  Uiso   1.00
H128   H     0.95147   0.06515   0.98803   0.00000  Uiso   1.00
H129   H     0.74280   0.59270   0.63052   0.00000  Uiso   1.00
O130   O     0.47162   0.66418   0.07466   0.00000  Uiso   1.00
O131   O     0.02847   0.81187   0.94202   0.00000  Uiso   1.00
O132   O     0.75471   0.50401   0.47298   0.00000  Uiso   1.00
N133   N     0.55806   0.64574   0.96519   0.00000  Uiso   1.00
N134   N     0.95488   0.75097   0.87069   0.00000  Uiso   1.00
N135   N     0.75982   0.24419   0.53644   0.00000  Uiso   1.00
N136   N     0.54606   0.87187   0.04340   0.00000  Uiso   1.00
N137   N     0.94288   0.97709   0.94890   0.00000  Uiso   1.00
N138   N     0.74782   0.47032   0.61465   0.00000  Uiso   1.00
C139   C     0.24139   0.86041   0.71611   0.00000  Uiso   1.00
C140   C     0.29960   0.85652   0.64704   0.00000  Uiso   1.00
C141   C     0.34185   0.72728   0.63253   0.00000  Uiso   1.00
C142   C     0.39210   0.74761   0.56620   0.00000  Uiso   1.00
C143   C     0.48130   0.71956   0.46653   0.00000  Uiso   1.00
C144   C     0.19024   0.88550   0.67307   0.00000  Uiso   1.00
C145   C     0.14053   0.78064   0.68046   0.00000  Uiso   1.00
C146   C     0.09872   0.82539   0.63605   0.00000  Uiso   1.00
C147   C     0.01811   0.84240   0.57684   0.00000  Uiso   1.00
C148   C     0.24401   0.02143   0.76519   0.00000  Uiso   1.00
C149   C     0.23950   0.03087   0.85003   0.00000  Uiso   1.00
C150   C     0.24294   0.19006   0.88318   0.00000  Uiso   1.00
C151   C     0.24581   0.41812   0.96699   0.00000  Uiso   1.00
C152   C     0.25550   0.12633   0.62414   0.00000  Uiso   1.00
C153   C     0.30726   0.00096   0.59708   0.00000  Uiso   1.00
C154   C     0.35746   0.02149   0.53077   0.00000  Uiso   1.00
C155   C     0.39978   0.89231   0.51616   0.00000  Uiso   1.00
C156   C     0.19790   0.02994   0.62312   0.00000  Uiso   1.00
C157   C     0.15615   0.07486   0.57870   0.00000  Uiso   1.00
C158   C     0.10640   0.97009   0.58601   0.00000  Uiso   1.00
C159   C     0.25167   0.16587   0.71523   0.00000  Uiso   1.00
C160   C     0.25511   0.32508   0.74826   0.00000  Uiso   1.00
C161   C     0.25062   0.33476   0.83313   0.00000  Uiso   1.00
H162   H     0.23542   0.74796   0.75501   0.00000  Uiso   1.00
H163   H     0.33590   0.61551   0.67120   0.00000  Uiso   1.00
H164   H     0.13461   0.66888   0.71913   0.00000  Uiso   1.00
H165   H     0.23356   0.91906   0.88867   0.00000  Uiso   1.00
H166   H     0.45067   0.53235   0.55623   0.00000  Uiso   1.00
H167   H     0.02623   0.64491   0.65732   0.00000  Uiso   1.00
H168   H     0.23489   0.17247   0.01483   0.00000  Uiso   1.00
H169   H     0.26147   0.23879   0.58524   0.00000  Uiso   1.00
H170   H     0.36338   0.13328   0.49212   0.00000  Uiso   1.00
H171   H     0.16209   0.18665   0.54005   0.00000  Uiso   1.00
H172   H     0.26105   0.43683   0.70959   0.00000  Uiso   1.00
H173   H     0.47297   0.95258   0.41088   0.00000  Uiso   1.00
H174   H     0.04853   0.06515   0.51197   0.00000  Uiso   1.00
H175   H     0.25720   0.59270   0.86948   0.00000  Uiso   1.00
O176   O     0.52838   0.66418   0.42534   0.00000  Uiso   1.00
O177   O     0.97153   0.81187   0.55798   0.00000  Uiso   1.00
O178   O     0.24529   0.50401   0.02702   0.00000  Uiso   1.00
N179   N     0.44194   0.64574   0.53481   0.00000  Uiso   1.00
N180   N     0.04512   0.75097   0.62931   0.00000  Uiso   1.00
N181   N     0.24018   0.24419   0.96356   0.00000  Uiso   1.00
N182   N     0.45394   0.87187   0.45660   0.00000  Uiso   1.00
N183   N     0.05712   0.97709   0.55110   0.00000  Uiso   1.00
N184   N     0.25218   0.47032   0.88535   0.00000  Uiso   1.00
