data_job_06295
_audit_creation_date              2018-12-19
_audit_creation_method            'Materials Studio'
_symmetry_space_group_name_H-M    'P1'
_symmetry_Int_Tables_number       1
_symmetry_cell_setting            triclinic
loop_
_symmetry_equiv_pos_as_xyz
  x,y,z
_cell_length_a                    15.2061
_cell_length_b                    17.1946
_cell_length_c                    17.2026
_cell_angle_alpha                 111.7000
_cell_angle_beta                  72.8632
_cell_angle_gamma                 72.9053
loop_
_atom_site_label
_atom_site_type_symbol
_atom_site_fract_x
_atom_site_fract_y
_atom_site_fract_z
_atom_site_U_iso_or_equiv
_atom_site_adp_type
_atom_site_occupancy
C1     C     0.53962   0.43685   0.17785   0.00000  Uiso   1.00
C2     C     0.62543   0.41614   0.08869   0.00000  Uiso   1.00
C3     C     0.64121   0.48271   0.06722   0.00000  Uiso   1.00
C4     C     0.72400   0.44954   0.98213   0.00000  Uiso   1.00
C5     C     0.84738   0.43203   0.85300   0.00000  Uiso   1.00
C6     C     0.48171   0.38311   0.14551   0.00000  Uiso   1.00
C7     C     0.37665   0.42191   0.17183   0.00000  Uiso   1.00
C8     C     0.33847   0.36092   0.13457   0.00000  Uiso   1.00
C9     C     0.23871   0.29213   0.09372   0.00000  Uiso   1.00
C10    C     0.59325   0.38979   0.22193   0.00000  Uiso   1.00
C11    C     0.58196   0.43420   0.31252   0.00000  Uiso   1.00
C12    C     0.63766   0.37883   0.33961   0.00000  Uiso   1.00
C13    C     0.71109   0.32041   0.41741   0.00000  Uiso   1.00
C14    C     0.65861   0.25955   0.06490   0.00000  Uiso   1.00
C15    C     0.69006   0.31984   0.02734   0.00000  Uiso   1.00
C16    C     0.77286   0.28656   0.94226   0.00000  Uiso   1.00
C17    C     0.78876   0.35306   0.92067   0.00000  Uiso   1.00
C18    C     0.54634   0.28682   0.08416   0.00000  Uiso   1.00
C19    C     0.50830   0.22576   0.04687   0.00000  Uiso   1.00
C20    C     0.40321   0.26445   0.07311   0.00000  Uiso   1.00
C21    C     0.65789   0.29349   0.16058   0.00000  Uiso   1.00
C22    C     0.71361   0.23804   0.18755   0.00000  Uiso   1.00
C23    C     0.70241   0.28236   0.27815   0.00000  Uiso   1.00
H24    H     0.48929   0.51182   0.22561   0.00000  Uiso   1.00
H25    H     0.59116   0.55723   0.11472   0.00000  Uiso   1.00
H26    H     0.32665   0.49643   0.21931   0.00000  Uiso   1.00
H27    H     0.53193   0.50872   0.35997   0.00000  Uiso   1.00
H28    H     0.73259   0.56510   0.96470   0.00000  Uiso   1.00
H29    H     0.17484   0.43691   0.18527   0.00000  Uiso   1.00
H30    H     0.60771   0.46282   0.48188   0.00000  Uiso   1.00
H31    H     0.70893   0.18458   0.01713   0.00000  Uiso   1.00
H32    H     0.82286   0.21203   0.89480   0.00000  Uiso   1.00
H33    H     0.55834   0.15124   0.99940   0.00000  Uiso   1.00
H34    H     0.76362   0.16352   0.14005   0.00000  Uiso   1.00
H35    H     0.92064   0.28493   0.78620   0.00000  Uiso   1.00
H36    H     0.36289   0.15674   0.00678   0.00000  Uiso   1.00
H37    H     0.79576   0.18264   0.30339   0.00000  Uiso   1.00
O38    O     0.89757   0.44898   0.79872   0.00000  Uiso   1.00
O39    O     0.16583   0.28079   0.08812   0.00000  Uiso   1.00
O40    O     0.73375   0.31479   0.47726   0.00000  Uiso   1.00
N41    N     0.76122   0.49540   0.93949   0.00000  Uiso   1.00
N42    N     0.23976   0.37555   0.14570   0.00000  Uiso   1.00
N43    N     0.64444   0.39977   0.42301   0.00000  Uiso   1.00
N44    N     0.86241   0.34464   0.84344   0.00000  Uiso   1.00
N45    N     0.34095   0.22479   0.04965   0.00000  Uiso   1.00
N46    N     0.74563   0.24901   0.32697   0.00000  Uiso   1.00
C47    C     0.71744   0.82215   0.25899   0.00000  Uiso   1.00
C48    C     0.71412   0.91137   0.32741   0.00000  Uiso   1.00
C49    C     0.70843   0.93284   0.41540   0.00000  Uiso   1.00
C50    C     0.70615   0.01800   0.46729   0.00000  Uiso   1.00
C51    C     0.70044   0.14722   0.57886   0.00000  Uiso   1.00
C52    C     0.62724   0.85442   0.23760   0.00000  Uiso   1.00
C53    C     0.54852   0.82799   0.25007   0.00000  Uiso   1.00
C54    C     0.47312   0.86519   0.22635   0.00000  Uiso   1.00
C55    C     0.33258   0.90593   0.19843   0.00000  Uiso   1.00
C56    C     0.81512   0.77815   0.16789   0.00000  Uiso   1.00
C57    C     0.89436   0.68758   0.12173   0.00000  Uiso   1.00
C58    C     0.97713   0.66057   0.03931   0.00000  Uiso   1.00
C59    C     0.12828   0.58288   0.90316   0.00000  Uiso   1.00
C60    C     0.72352   0.93521   0.19467   0.00000  Uiso   1.00
C61    C     0.71742   0.97278   0.29247   0.00000  Uiso   1.00
C62    C     0.71516   0.05793   0.34424   0.00000  Uiso   1.00
C63    C     0.70946   0.07952   0.43230   0.00000  Uiso   1.00
C64    C     0.63054   0.91583   0.20267   0.00000  Uiso   1.00
C65    C     0.55525   0.95307   0.17892   0.00000  Uiso   1.00
C66    C     0.47643   0.92671   0.19136   0.00000  Uiso   1.00
C67    C     0.81843   0.83956   0.13296   0.00000  Uiso   1.00
C68    C     0.90108   0.81267   0.05059   0.00000  Uiso   1.00
C69    C     0.98043   0.72208   0.00432   0.00000  Uiso   1.00
H70    H     0.71487   0.77434   0.28618   0.00000  Uiso   1.00
H71    H     0.70586   0.88530   0.44241   0.00000  Uiso   1.00
H72    H     0.54599   0.78046   0.27710   0.00000  Uiso   1.00
H73    H     0.89177   0.64008   0.14879   0.00000  Uiso   1.00
H74    H     0.69730   0.03542   0.60023   0.00000  Uiso   1.00
H75    H     0.36022   0.81432   0.25163   0.00000  Uiso   1.00
H76    H     0.08937   0.51830   0.98106   0.00000  Uiso   1.00
H77    H     0.72609   0.98302   0.16748   0.00000  Uiso   1.00
H78    H     0.71771   0.10544   0.31719   0.00000  Uiso   1.00
H79    H     0.55783   0.00059   0.15188   0.00000  Uiso   1.00
H80    H     0.90361   0.86021   0.02357   0.00000  Uiso   1.00
H81    H     0.70691   0.21409   0.49860   0.00000  Uiso   1.00
H82    H     0.36983   0.99299   0.14999   0.00000  Uiso   1.00
H83    H     0.09898   0.69697   0.87943   0.00000  Uiso   1.00
O84    O     0.69635   0.20153   0.65006   0.00000  Uiso   1.00
O85    O     0.25413   0.91144   0.19269   0.00000  Uiso   1.00
O86    O     0.21075   0.52308   0.83771   0.00000  Uiso   1.00
N87    N     0.70074   0.06066   0.55575   0.00000  Uiso   1.00
N88    N     0.38557   0.85396   0.22985   0.00000  Uiso   1.00
N89    N     0.06725   0.57720   0.97688   0.00000  Uiso   1.00
N90    N     0.70591   0.15680   0.50107   0.00000  Uiso   1.00
N91    N     0.39075   0.95010   0.17516   0.00000  Uiso   1.00
N92    N     0.07243   0.67334   0.92219   0.00000  Uiso   1.00
C93    C     0.97641   0.74106   0.56320   0.00000  Uiso   1.00
C94    C     0.04145   0.67265   0.58399   0.00000  Uiso   1.00
C95    C     0.12371   0.58468   0.51750   0.00000  Uiso   1.00
C96    C     0.17329   0.53280   0.55074   0.00000  Uiso   1.00
C97    C     0.27907   0.42125   0.56839   0.00000  Uiso   1.00
C98    C     0.86486   0.76234   0.61683   0.00000  Uiso   1.00
C99    C     0.79864   0.74978   0.57794   0.00000  Uiso   1.00
C100   C     0.69956   0.77341   0.63884   0.00000  Uiso   1.00
C101   C     0.53115   0.80116   0.70746   0.00000  Uiso   1.00
C102   C     0.98301   0.83224   0.61027   0.00000  Uiso   1.00
C103   C     0.01609   0.87847   0.56588   0.00000  Uiso   1.00
C104   C     0.01646   0.96096   0.62126   0.00000  Uiso   1.00
C105   C     0.03149   0.09724   0.67970   0.00000  Uiso   1.00
C106   C     0.91820   0.80534   0.74048   0.00000  Uiso   1.00
C107   C     0.00983   0.70757   0.68029   0.00000  Uiso   1.00
C108   C     0.05931   0.65581   0.71364   0.00000  Uiso   1.00
C109   C     0.14162   0.56778   0.64721   0.00000  Uiso   1.00
C110   C     0.83324   0.79725   0.71312   0.00000  Uiso   1.00
C111   C     0.73424   0.82091   0.77409   0.00000  Uiso   1.00
C112   C     0.66788   0.80839   0.73531   0.00000  Uiso   1.00
C113   C     0.95139   0.86715   0.70656   0.00000  Uiso   1.00
C114   C     0.95170   0.94959   0.76202   0.00000  Uiso   1.00
C115   C     0.98478   0.99594   0.71772   0.00000  Uiso   1.00
H116   H     0.00101   0.71388   0.48823   0.00000  Uiso   1.00
H117   H     0.14815   0.55768   0.44298   0.00000  Uiso   1.00
H118   H     0.82312   0.72277   0.50342   0.00000  Uiso   1.00
H119   H     0.04055   0.85143   0.49136   0.00000  Uiso   1.00
H120   H     0.29730   0.39990   0.43529   0.00000  Uiso   1.00
H121   H     0.61196   0.74802   0.56273   0.00000  Uiso   1.00
H122   H     0.07045   0.01933   0.53729   0.00000  Uiso   1.00
H123   H     0.89358   0.83253   0.81546   0.00000  Uiso   1.00
H124   H     0.03482   0.68285   0.78817   0.00000  Uiso   1.00
H125   H     0.70979   0.84793   0.84860   0.00000  Uiso   1.00
H126   H     0.92722   0.97659   0.83654   0.00000  Uiso   1.00
H127   H     0.20532   0.50148   0.71545   0.00000  Uiso   1.00
H128   H     0.51998   0.84961   0.84289   0.00000  Uiso   1.00
H129   H     0.97847   0.12092   0.81745   0.00000  Uiso   1.00
O130   O     0.34614   0.35007   0.55151   0.00000  Uiso   1.00
O131   O     0.44700   0.80681   0.71871   0.00000  Uiso   1.00
O132   O     0.04853   0.16276   0.68533   0.00000  Uiso   1.00
N133   N     0.25628   0.44436   0.50497   0.00000  Uiso   1.00
N134   N     0.61554   0.76981   0.62411   0.00000  Uiso   1.00
N135   N     0.04416   0.02348   0.60034   0.00000  Uiso   1.00
N136   N     0.20679   0.49902   0.65572   0.00000  Uiso   1.00
N137   N     0.56604   0.82448   0.77487   0.00000  Uiso   1.00
N138   N     0.99466   0.07814   0.75109   0.00000  Uiso   1.00
C139   C     0.46038   0.56315   0.82216   0.00000  Uiso   1.00
C140   C     0.37457   0.58386   0.91131   0.00000  Uiso   1.00
C141   C     0.35879   0.51729   0.93278   0.00000  Uiso   1.00
C142   C     0.27600   0.55047   0.01787   0.00000  Uiso   1.00
C143   C     0.15262   0.56797   0.14700   0.00000  Uiso   1.00
C144   C     0.51829   0.61689   0.85449   0.00000  Uiso   1.00
C145   C     0.62335   0.57809   0.82817   0.00000  Uiso   1.00
C146   C     0.66153   0.63908   0.86543   0.00000  Uiso   1.00
C147   C     0.76129   0.70787   0.90628   0.00000  Uiso   1.00
C148   C     0.40675   0.61021   0.77807   0.00000  Uiso   1.00
C149   C     0.41805   0.56580   0.68749   0.00000  Uiso   1.00
C150   C     0.36234   0.62117   0.66039   0.00000  Uiso   1.00
C151   C     0.28891   0.67959   0.58259   0.00000  Uiso   1.00
C152   C     0.34139   0.74045   0.93510   0.00000  Uiso   1.00
C153   C     0.30994   0.68016   0.97266   0.00000  Uiso   1.00
C154   C     0.22714   0.71344   0.05774   0.00000  Uiso   1.00
C155   C     0.21124   0.64694   0.07933   0.00000  Uiso   1.00
C156   C     0.45366   0.71319   0.91584   0.00000  Uiso   1.00
C157   C     0.49170   0.77424   0.95314   0.00000  Uiso   1.00
C158   C     0.59679   0.73555   0.92689   0.00000  Uiso   1.00
C159   C     0.34211   0.70651   0.83942   0.00000  Uiso   1.00
C160   C     0.28639   0.76196   0.81246   0.00000  Uiso   1.00
C161   C     0.29759   0.71764   0.72185   0.00000  Uiso   1.00
H162   H     0.51071   0.48818   0.77439   0.00000  Uiso   1.00
H163   H     0.40884   0.44277   0.88529   0.00000  Uiso   1.00
H164   H     0.67335   0.50357   0.78069   0.00000  Uiso   1.00
H165   H     0.46807   0.49128   0.64003   0.00000  Uiso   1.00
H166   H     0.26741   0.43490   0.03530   0.00000  Uiso   1.00
H167   H     0.82516   0.56309   0.81473   0.00000  Uiso   1.00
H168   H     0.39229   0.53718   0.51812   0.00000  Uiso   1.00
H169   H     0.29107   0.81542   0.98287   0.00000  Uiso   1.00
H170   H     0.17714   0.78797   0.10520   0.00000  Uiso   1.00
H171   H     0.44166   0.84876   0.00060   0.00000  Uiso   1.00
H172   H     0.23638   0.83648   0.85995   0.00000  Uiso   1.00
H173   H     0.07936   0.71507   0.21380   0.00000  Uiso   1.00
H174   H     0.63712   0.84327   0.99322   0.00000  Uiso   1.00
H175   H     0.20424   0.81736   0.69662   0.00000  Uiso   1.00
O176   O     0.10243   0.55102   0.20128   0.00000  Uiso   1.00
O177   O     0.83417   0.71921   0.91188   0.00000  Uiso   1.00
O178   O     0.26626   0.68521   0.52274   0.00000  Uiso   1.00
N179   N     0.23878   0.50460   0.06051   0.00000  Uiso   1.00
N180   N     0.76024   0.62445   0.85430   0.00000  Uiso   1.00
N181   N     0.35556   0.60024   0.57699   0.00000  Uiso   1.00
N182   N     0.13759   0.65536   0.15656   0.00000  Uiso   1.00
N183   N     0.65905   0.77521   0.95035   0.00000  Uiso   1.00
N184   N     0.25437   0.75100   0.67304   0.00000  Uiso   1.00
C185   C     0.28256   0.17785   0.74101   0.00000  Uiso   1.00
C186   C     0.28588   0.08863   0.67260   0.00000  Uiso   1.00
C187   C     0.29157   0.06716   0.58460   0.00000  Uiso   1.00
C188   C     0.29385   0.98200   0.53271   0.00000  Uiso   1.00
C189   C     0.29957   0.85278   0.42114   0.00000  Uiso   1.00
C190   C     0.37276   0.14558   0.76240   0.00000  Uiso   1.00
C191   C     0.45148   0.17201   0.74993   0.00000  Uiso   1.00
C192   C     0.52688   0.13481   0.77365   0.00000  Uiso   1.00
C193   C     0.66742   0.09407   0.80157   0.00000  Uiso   1.00
C194   C     0.18488   0.22185   0.83211   0.00000  Uiso   1.00
C195   C     0.10564   0.31242   0.87827   0.00000  Uiso   1.00
C196   C     0.02287   0.33943   0.96069   0.00000  Uiso   1.00
C197   C     0.87172   0.41712   0.09684   0.00000  Uiso   1.00
C198   C     0.27648   0.06479   0.80533   0.00000  Uiso   1.00
C199   C     0.28258   0.02722   0.70753   0.00000  Uiso   1.00
C200   C     0.28484   0.94207   0.65576   0.00000  Uiso   1.00
C201   C     0.29054   0.92048   0.56770   0.00000  Uiso   1.00
C202   C     0.36946   0.08418   0.79733   0.00000  Uiso   1.00
C203   C     0.44475   0.04693   0.82108   0.00000  Uiso   1.00
C204   C     0.52357   0.07329   0.80864   0.00000  Uiso   1.00
C205   C     0.18158   0.16044   0.86704   0.00000  Uiso   1.00
C206   C     0.09892   0.18733   0.94942   0.00000  Uiso   1.00
C207   C     0.01957   0.27792   0.99568   0.00000  Uiso   1.00
H208   H     0.28514   0.22566   0.71382   0.00000  Uiso   1.00
H209   H     0.29414   0.11470   0.55759   0.00000  Uiso   1.00
H210   H     0.45401   0.21954   0.72290   0.00000  Uiso   1.00
H211   H     0.10823   0.35992   0.85121   0.00000  Uiso   1.00
H212   H     0.30270   0.96458   0.39977   0.00000  Uiso   1.00
H213   H     0.63978   0.18568   0.74837   0.00000  Uiso   1.00
H214   H     0.91063   0.48170   0.01894   0.00000  Uiso   1.00
H215   H     0.27391   0.01698   0.83253   0.00000  Uiso   1.00
H216   H     0.28229   0.89456   0.68281   0.00000  Uiso   1.00
H217   H     0.44217   0.99941   0.84812   0.00000  Uiso   1.00
H218   H     0.09639   0.13979   0.97643   0.00000  Uiso   1.00
H219   H     0.29309   0.78591   0.50140   0.00000  Uiso   1.00
H220   H     0.63017   0.00701   0.85001   0.00000  Uiso   1.00
H221   H     0.90102   0.30303   0.12057   0.00000  Uiso   1.00
O222   O     0.30365   0.79847   0.34995   0.00000  Uiso   1.00
O223   O     0.74587   0.08856   0.80731   0.00000  Uiso   1.00
O224   O     0.78925   0.47692   0.16229   0.00000  Uiso   1.00
N225   N     0.29927   0.93934   0.44425   0.00000  Uiso   1.00
N226   N     0.61443   0.14604   0.77015   0.00000  Uiso   1.00
N227   N     0.93275   0.42280   0.02313   0.00000  Uiso   1.00
N228   N     0.29409   0.84320   0.49893   0.00000  Uiso   1.00
N229   N     0.60925   0.04990   0.82484   0.00000  Uiso   1.00
N230   N     0.92758   0.32666   0.07781   0.00000  Uiso   1.00
C231   C     0.02359   0.25894   0.43681   0.00000  Uiso   1.00
C232   C     0.95855   0.32735   0.41601   0.00000  Uiso   1.00
C233   C     0.87629   0.41532   0.48250   0.00000  Uiso   1.00
C234   C     0.82671   0.46720   0.44926   0.00000  Uiso   1.00
C235   C     0.72093   0.57875   0.43161   0.00000  Uiso   1.00
C236   C     0.13514   0.23766   0.38318   0.00000  Uiso   1.00
C237   C     0.20136   0.25022   0.42206   0.00000  Uiso   1.00
C238   C     0.30044   0.22660   0.36116   0.00000  Uiso   1.00
C239   C     0.46885   0.19884   0.29254   0.00000  Uiso   1.00
C240   C     0.01700   0.16777   0.38973   0.00000  Uiso   1.00
C241   C     0.98391   0.12153   0.43413   0.00000  Uiso   1.00
C242   C     0.98354   0.03904   0.37875   0.00000  Uiso   1.00
C243   C     0.96851   0.90276   0.32030   0.00000  Uiso   1.00
C244   C     0.08180   0.19466   0.25952   0.00000  Uiso   1.00
C245   C     0.99017   0.29243   0.31971   0.00000  Uiso   1.00
C246   C     0.94069   0.34419   0.28636   0.00000  Uiso   1.00
C247   C     0.85838   0.43223   0.35279   0.00000  Uiso   1.00
C248   C     0.16676   0.20275   0.28688   0.00000  Uiso   1.00
C249   C     0.26577   0.17910   0.22591   0.00000  Uiso   1.00
C250   C     0.33212   0.19162   0.26470   0.00000  Uiso   1.00
C251   C     0.04861   0.13285   0.29344   0.00000  Uiso   1.00
C252   C     0.04831   0.05041   0.23798   0.00000  Uiso   1.00
C253   C     0.01522   0.00406   0.28228   0.00000  Uiso   1.00
H254   H     0.99899   0.28612   0.51177   0.00000  Uiso   1.00
H255   H     0.85186   0.44232   0.55702   0.00000  Uiso   1.00
H256   H     0.17688   0.27723   0.49658   0.00000  Uiso   1.00
H257   H     0.95945   0.14857   0.50864   0.00000  Uiso   1.00
H258   H     0.70270   0.60010   0.56471   0.00000  Uiso   1.00
H259   H     0.38804   0.25198   0.43727   0.00000  Uiso   1.00
H260   H     0.92955   0.98067   0.46271   0.00000  Uiso   1.00
H261   H     0.10642   0.16747   0.18454   0.00000  Uiso   1.00
H262   H     0.96518   0.31716   0.21183   0.00000  Uiso   1.00
H263   H     0.29021   0.15207   0.15140   0.00000  Uiso   1.00
H264   H     0.07278   0.02341   0.16346   0.00000  Uiso   1.00
H265   H     0.79468   0.49852   0.28455   0.00000  Uiso   1.00
H266   H     0.48002   0.15039   0.15711   0.00000  Uiso   1.00
H267   H     0.02153   0.87908   0.18255   0.00000  Uiso   1.00
O268   O     0.65386   0.64993   0.44849   0.00000  Uiso   1.00
O269   O     0.55300   0.19319   0.28129   0.00000  Uiso   1.00
O270   O     0.95147   0.83724   0.31467   0.00000  Uiso   1.00
N271   N     0.74372   0.55564   0.49503   0.00000  Uiso   1.00
N272   N     0.38446   0.23019   0.37589   0.00000  Uiso   1.00
N273   N     0.95584   0.97652   0.39966   0.00000  Uiso   1.00
N274   N     0.79321   0.50098   0.34428   0.00000  Uiso   1.00
N275   N     0.43396   0.17553   0.22513   0.00000  Uiso   1.00
N276   N     0.00534   0.92186   0.24891   0.00000  Uiso   1.00
