data_job_03437
_audit_creation_date              2018-12-19
_audit_creation_method            'Materials Studio'
_symmetry_space_group_name_H-M    'P1'
_symmetry_Int_Tables_number       1
_symmetry_cell_setting            triclinic
loop_
_symmetry_equiv_pos_as_xyz
  x,y,z
_cell_length_a                    20.7406
_cell_length_b                    15.8904
_cell_length_c                    7.5282
_cell_angle_alpha                 90.0000
_cell_angle_beta                  90.0000
_cell_angle_gamma                 90.0000
loop_
_atom_site_label
_atom_site_type_symbol
_atom_site_fract_x
_atom_site_fract_y
_atom_site_fract_z
_atom_site_U_iso_or_equiv
_atom_site_adp_type
_atom_site_occupancy
C1     C     0.06566   0.23715   0.54411   0.00000  Uiso   1.00
C2     C     0.11410   0.20651   0.68208   0.00000  Uiso   1.00
C3     C     0.16200   0.14704   0.65364   0.00000  Uiso   1.00
C4     C     0.20143   0.12755   0.79689   0.00000  Uiso   1.00
C5     C     0.27788   0.07406   0.98595   0.00000  Uiso   1.00
C6     C     0.99913   0.22119   0.62348   0.00000  Uiso   1.00
C7     C     0.95036   0.17408   0.54575   0.00000  Uiso   1.00
C8     C     0.89300   0.16696   0.63967   0.00000  Uiso   1.00
C9     C     0.79094   0.13632   0.73769   0.00000  Uiso   1.00
C10    C     0.07336   0.33250   0.53575   0.00000  Uiso   1.00
C11    C     0.08699   0.37899   0.38426   0.00000  Uiso   1.00
C12    C     0.09212   0.46559   0.40430   0.00000  Uiso   1.00
C13    C     0.10531   0.60777   0.36611   0.00000  Uiso   1.00
C14    C     0.05051   0.30830   0.84907   0.00000  Uiso   1.00
C15    C     0.10587   0.24516   0.84772   0.00000  Uiso   1.00
C16    C     0.14524   0.22576   0.99105   0.00000  Uiso   1.00
C17    C     0.19319   0.16627   0.96283   0.00000  Uiso   1.00
C18    C     0.99090   0.25984   0.78912   0.00000  Uiso   1.00
C19    C     0.93360   0.25279   0.88316   0.00000  Uiso   1.00
C20    C     0.88476   0.20567   0.80561   0.00000  Uiso   1.00
C21    C     0.06514   0.37115   0.70140   0.00000  Uiso   1.00
C22    C     0.07023   0.45770   0.72167   0.00000  Uiso   1.00
C23    C     0.08387   0.50430   0.57024   0.00000  Uiso   1.00
H24    H     0.07206   0.20706   0.41515   0.00000  Uiso   1.00
H25    H     0.16835   0.11714   0.52544   0.00000  Uiso   1.00
H26    H     0.95674   0.14418   0.41756   0.00000  Uiso   1.00
H27    H     0.09335   0.34906   0.25610   0.00000  Uiso   1.00
H28    H     0.27146   0.03446   0.72078   0.00000  Uiso   1.00
H29    H     0.82526   0.09150   0.49329   0.00000  Uiso   1.00
H30    H     0.11333   0.52353   0.15281   0.00000  Uiso   1.00
H31    H     0.04410   0.33839   0.97803   0.00000  Uiso   1.00
H32    H     0.13886   0.25567   0.11922   0.00000  Uiso   1.00
H33    H     0.92725   0.28271   0.01134   0.00000  Uiso   1.00
H34    H     0.06386   0.48759   0.84987   0.00000  Uiso   1.00
H35    H     0.24753   0.14690   0.20272   0.00000  Uiso   1.00
H36    H     0.80132   0.20394   0.97522   0.00000  Uiso   1.00
H37    H     0.08940   0.63596   0.63474   0.00000  Uiso   1.00
O38    O     0.32232   0.03387   0.04448   0.00000  Uiso   1.00
O39    O     0.73692   0.10873   0.74600   0.00000  Uiso   1.00
O40    O     0.11487   0.67552   0.29930   0.00000  Uiso   1.00
N41    N     0.25283   0.07229   0.81482   0.00000  Uiso   1.00
N42    N     0.83566   0.12561   0.60214   0.00000  Uiso   1.00
N43    N     0.10497   0.52951   0.28381   0.00000  Uiso   1.00
N44    N     0.23995   0.13279   0.07415   0.00000  Uiso   1.00
N45    N     0.82279   0.18611   0.86147   0.00000  Uiso   1.00
N46    N     0.09209   0.59001   0.54313   0.00000  Uiso   1.00
C47    C     0.93434   0.76285   0.54411   0.00000  Uiso   1.00
C48    C     0.88590   0.79349   0.68208   0.00000  Uiso   1.00
C49    C     0.83800   0.85296   0.65364   0.00000  Uiso   1.00
C50    C     0.79857   0.87245   0.79689   0.00000  Uiso   1.00
C51    C     0.72212   0.92594   0.98595   0.00000  Uiso   1.00
C52    C     0.00087   0.77881   0.62348   0.00000  Uiso   1.00
C53    C     0.04964   0.82592   0.54575   0.00000  Uiso   1.00
C54    C     0.10700   0.83304   0.63967   0.00000  Uiso   1.00
C55    C     0.20906   0.86368   0.73769   0.00000  Uiso   1.00
C56    C     0.92664   0.66750   0.53575   0.00000  Uiso   1.00
C57    C     0.91301   0.62101   0.38426   0.00000  Uiso   1.00
C58    C     0.90788   0.53441   0.40430   0.00000  Uiso   1.00
C59    C     0.89469   0.39223   0.36611   0.00000  Uiso   1.00
C60    C     0.94949   0.69170   0.84907   0.00000  Uiso   1.00
C61    C     0.89413   0.75484   0.84772   0.00000  Uiso   1.00
C62    C     0.85476   0.77424   0.99105   0.00000  Uiso   1.00
C63    C     0.80681   0.83373   0.96283   0.00000  Uiso   1.00
C64    C     0.00910   0.74016   0.78912   0.00000  Uiso   1.00
C65    C     0.06640   0.74721   0.88316   0.00000  Uiso   1.00
C66    C     0.11524   0.79433   0.80561   0.00000  Uiso   1.00
C67    C     0.93486   0.62885   0.70140   0.00000  Uiso   1.00
C68    C     0.92977   0.54230   0.72167   0.00000  Uiso   1.00
C69    C     0.91613   0.49570   0.57024   0.00000  Uiso   1.00
H70    H     0.92794   0.79294   0.41515   0.00000  Uiso   1.00
H71    H     0.83165   0.88286   0.52544   0.00000  Uiso   1.00
H72    H     0.04326   0.85582   0.41756   0.00000  Uiso   1.00
H73    H     0.90665   0.65094   0.25610   0.00000  Uiso   1.00
H74    H     0.72854   0.96554   0.72078   0.00000  Uiso   1.00
H75    H     0.17474   0.90850   0.49329   0.00000  Uiso   1.00
H76    H     0.88667   0.47647   0.15281   0.00000  Uiso   1.00
H77    H     0.95590   0.66161   0.97803   0.00000  Uiso   1.00
H78    H     0.86114   0.74433   0.11922   0.00000  Uiso   1.00
H79    H     0.07275   0.71729   0.01134   0.00000  Uiso   1.00
H80    H     0.93614   0.51241   0.84987   0.00000  Uiso   1.00
H81    H     0.75247   0.85310   0.20272   0.00000  Uiso   1.00
H82    H     0.19868   0.79606   0.97522   0.00000  Uiso   1.00
H83    H     0.91060   0.36404   0.63474   0.00000  Uiso   1.00
O84    O     0.67768   0.96613   0.04448   0.00000  Uiso   1.00
O85    O     0.26308   0.89127   0.74600   0.00000  Uiso   1.00
O86    O     0.88513   0.32448   0.29930   0.00000  Uiso   1.00
N87    N     0.74717   0.92771   0.81482   0.00000  Uiso   1.00
N88    N     0.16434   0.87439   0.60214   0.00000  Uiso   1.00
N89    N     0.89503   0.47049   0.28381   0.00000  Uiso   1.00
N90    N     0.76005   0.86721   0.07415   0.00000  Uiso   1.00
N91    N     0.17721   0.81389   0.86147   0.00000  Uiso   1.00
N92    N     0.90791   0.40999   0.54313   0.00000  Uiso   1.00
C93    C     0.43434   0.73715   0.45589   0.00000  Uiso   1.00
C94    C     0.38590   0.70651   0.31792   0.00000  Uiso   1.00
C95    C     0.33800   0.64704   0.34636   0.00000  Uiso   1.00
C96    C     0.29857   0.62755   0.20311   0.00000  Uiso   1.00
C97    C     0.22212   0.57406   0.01405   0.00000  Uiso   1.00
C98    C     0.50087   0.72119   0.37652   0.00000  Uiso   1.00
C99    C     0.54964   0.67408   0.45425   0.00000  Uiso   1.00
C100   C     0.60700   0.66696   0.36033   0.00000  Uiso   1.00
C101   C     0.70906   0.63632   0.26231   0.00000  Uiso   1.00
C102   C     0.42664   0.83250   0.46425   0.00000  Uiso   1.00
C103   C     0.41301   0.87899   0.61574   0.00000  Uiso   1.00
C104   C     0.40788   0.96559   0.59570   0.00000  Uiso   1.00
C105   C     0.39469   0.10777   0.63389   0.00000  Uiso   1.00
C106   C     0.44949   0.80830   0.15093   0.00000  Uiso   1.00
C107   C     0.39413   0.74516   0.15228   0.00000  Uiso   1.00
C108   C     0.35476   0.72576   0.00895   0.00000  Uiso   1.00
C109   C     0.30681   0.66627   0.03717   0.00000  Uiso   1.00
C110   C     0.50910   0.75984   0.21088   0.00000  Uiso   1.00
C111   C     0.56640   0.75279   0.11684   0.00000  Uiso   1.00
C112   C     0.61524   0.70567   0.19439   0.00000  Uiso   1.00
C113   C     0.43486   0.87115   0.29860   0.00000  Uiso   1.00
C114   C     0.42977   0.95770   0.27833   0.00000  Uiso   1.00
C115   C     0.41613   0.00430   0.42976   0.00000  Uiso   1.00
H116   H     0.42794   0.70706   0.58485   0.00000  Uiso   1.00
H117   H     0.33165   0.61714   0.47456   0.00000  Uiso   1.00
H118   H     0.54326   0.64418   0.58244   0.00000  Uiso   1.00
H119   H     0.40665   0.84906   0.74390   0.00000  Uiso   1.00
H120   H     0.22854   0.53446   0.27922   0.00000  Uiso   1.00
H121   H     0.67474   0.59150   0.50671   0.00000  Uiso   1.00
H122   H     0.38667   0.02353   0.84719   0.00000  Uiso   1.00
H123   H     0.45590   0.83839   0.02197   0.00000  Uiso   1.00
H124   H     0.36114   0.75567   0.88078   0.00000  Uiso   1.00
H125   H     0.57275   0.78271   0.98866   0.00000  Uiso   1.00
H126   H     0.43614   0.98759   0.15013   0.00000  Uiso   1.00
H127   H     0.25247   0.64690   0.79728   0.00000  Uiso   1.00
H128   H     0.69868   0.70394   0.02478   0.00000  Uiso   1.00
H129   H     0.41060   0.13596   0.36526   0.00000  Uiso   1.00
O130   O     0.17768   0.53387   0.95552   0.00000  Uiso   1.00
O131   O     0.76308   0.60873   0.25400   0.00000  Uiso   1.00
O132   O     0.38513   0.17552   0.70070   0.00000  Uiso   1.00
N133   N     0.24717   0.57229   0.18518   0.00000  Uiso   1.00
N134   N     0.66434   0.62561   0.39786   0.00000  Uiso   1.00
N135   N     0.39503   0.02951   0.71619   0.00000  Uiso   1.00
N136   N     0.26005   0.63279   0.92585   0.00000  Uiso   1.00
N137   N     0.67721   0.68611   0.13853   0.00000  Uiso   1.00
N138   N     0.40791   0.09001   0.45687   0.00000  Uiso   1.00
C139   C     0.56566   0.26285   0.45589   0.00000  Uiso   1.00
C140   C     0.61410   0.29349   0.31792   0.00000  Uiso   1.00
C141   C     0.66200   0.35296   0.34636   0.00000  Uiso   1.00
C142   C     0.70143   0.37245   0.20311   0.00000  Uiso   1.00
C143   C     0.77788   0.42594   0.01405   0.00000  Uiso   1.00
C144   C     0.49913   0.27881   0.37652   0.00000  Uiso   1.00
C145   C     0.45036   0.32592   0.45425   0.00000  Uiso   1.00
C146   C     0.39300   0.33304   0.36033   0.00000  Uiso   1.00
C147   C     0.29094   0.36368   0.26231   0.00000  Uiso   1.00
C148   C     0.57336   0.16750   0.46425   0.00000  Uiso   1.00
C149   C     0.58699   0.12101   0.61574   0.00000  Uiso   1.00
C150   C     0.59212   0.03441   0.59570   0.00000  Uiso   1.00
C151   C     0.60531   0.89223   0.63389   0.00000  Uiso   1.00
C152   C     0.55051   0.19170   0.15093   0.00000  Uiso   1.00
C153   C     0.60587   0.25484   0.15228   0.00000  Uiso   1.00
C154   C     0.64524   0.27424   0.00895   0.00000  Uiso   1.00
C155   C     0.69319   0.33373   0.03717   0.00000  Uiso   1.00
C156   C     0.49090   0.24016   0.21088   0.00000  Uiso   1.00
C157   C     0.43360   0.24721   0.11684   0.00000  Uiso   1.00
C158   C     0.38476   0.29433   0.19439   0.00000  Uiso   1.00
C159   C     0.56514   0.12885   0.29860   0.00000  Uiso   1.00
C160   C     0.57023   0.04230   0.27833   0.00000  Uiso   1.00
C161   C     0.58387   0.99570   0.42976   0.00000  Uiso   1.00
H162   H     0.57206   0.29294   0.58485   0.00000  Uiso   1.00
H163   H     0.66835   0.38286   0.47456   0.00000  Uiso   1.00
H164   H     0.45674   0.35582   0.58244   0.00000  Uiso   1.00
H165   H     0.59335   0.15094   0.74390   0.00000  Uiso   1.00
H166   H     0.77146   0.46554   0.27922   0.00000  Uiso   1.00
H167   H     0.32526   0.40850   0.50671   0.00000  Uiso   1.00
H168   H     0.61333   0.97647   0.84719   0.00000  Uiso   1.00
H169   H     0.54410   0.16161   0.02197   0.00000  Uiso   1.00
H170   H     0.63886   0.24433   0.88078   0.00000  Uiso   1.00
H171   H     0.42725   0.21729   0.98866   0.00000  Uiso   1.00
H172   H     0.56386   0.01241   0.15013   0.00000  Uiso   1.00
H173   H     0.74753   0.35310   0.79728   0.00000  Uiso   1.00
H174   H     0.30132   0.29606   0.02478   0.00000  Uiso   1.00
H175   H     0.58940   0.86404   0.36526   0.00000  Uiso   1.00
O176   O     0.82232   0.46613   0.95552   0.00000  Uiso   1.00
O177   O     0.23692   0.39127   0.25400   0.00000  Uiso   1.00
O178   O     0.61487   0.82448   0.70070   0.00000  Uiso   1.00
N179   N     0.75283   0.42771   0.18518   0.00000  Uiso   1.00
N180   N     0.33566   0.37439   0.39786   0.00000  Uiso   1.00
N181   N     0.60497   0.97049   0.71619   0.00000  Uiso   1.00
N182   N     0.73995   0.36721   0.92585   0.00000  Uiso   1.00
N183   N     0.32279   0.31389   0.13853   0.00000  Uiso   1.00
N184   N     0.59209   0.90999   0.45687   0.00000  Uiso   1.00
