data_job_02160
_audit_creation_date              2018-12-19
_audit_creation_method            'Materials Studio'
_symmetry_space_group_name_H-M    'P1'
_symmetry_Int_Tables_number       1
_symmetry_cell_setting            triclinic
loop_
_symmetry_equiv_pos_as_xyz
  x,y,z
_cell_length_a                    12.5118
_cell_length_b                    17.9645
_cell_length_c                    20.1525
_cell_angle_alpha                 90.0000
_cell_angle_beta                  139.6491
_cell_angle_gamma                 90.0000
loop_
_atom_site_label
_atom_site_type_symbol
_atom_site_fract_x
_atom_site_fract_y
_atom_site_fract_z
_atom_site_U_iso_or_equiv
_atom_site_adp_type
_atom_site_occupancy
C1     C     0.57960   0.60112   0.31638   0.00000  Uiso   1.00
C2     C     0.39269   0.61115   0.22904   0.00000  Uiso   1.00
C3     C     0.30467   0.65318   0.23308   0.00000  Uiso   1.00
C4     C     0.13436   0.65530   0.14504   0.00000  Uiso   1.00
C5     C     0.85620   0.67670   0.02295   0.00000  Uiso   1.00
C6     C     0.60998   0.51741   0.33355   0.00000  Uiso   1.00
C7     C     0.70468   0.48063   0.42546   0.00000  Uiso   1.00
C8     C     0.71730   0.40385   0.42539   0.00000  Uiso   1.00
C9     C     0.77659   0.27972   0.46559   0.00000  Uiso   1.00
C10    C     0.63610   0.62618   0.27448   0.00000  Uiso   1.00
C11    C     0.75279   0.68084   0.31673   0.00000  Uiso   1.00
C12    C     0.78742   0.69563   0.26694   0.00000  Uiso   1.00
C13    C     0.88725   0.74039   0.21541   0.00000  Uiso   1.00
C14    C     0.43365   0.53017   0.15285   0.00000  Uiso   1.00
C15    C     0.31342   0.57260   0.14022   0.00000  Uiso   1.00
C16    C     0.14320   0.57467   0.05215   0.00000  Uiso   1.00
C17    C     0.05494   0.61670   0.05605   0.00000  Uiso   1.00
C18    C     0.53072   0.47887   0.24473   0.00000  Uiso   1.00
C19    C     0.54321   0.40213   0.24453   0.00000  Uiso   1.00
C20    C     0.63789   0.36524   0.33641   0.00000  Uiso   1.00
C21    C     0.55682   0.58764   0.18565   0.00000  Uiso   1.00
C22    C     0.59130   0.60234   0.13579   0.00000  Uiso   1.00
C23    C     0.70801   0.65702   0.17796   0.00000  Uiso   1.00
H24    H     0.64132   0.63112   0.38553   0.00000  Uiso   1.00
H25    H     0.36607   0.68299   0.30183   0.00000  Uiso   1.00
H26    H     0.76603   0.51047   0.49419   0.00000  Uiso   1.00
H27    H     0.81411   0.71065   0.38546   0.00000  Uiso   1.00
H28    H     0.02593   0.72347   0.16988   0.00000  Uiso   1.00
H29    H     0.86931   0.35971   0.57547   0.00000  Uiso   1.00
H30    H     0.97071   0.78184   0.34622   0.00000  Uiso   1.00
H31    H     0.37193   0.50016   0.08369   0.00000  Uiso   1.00
H32    H     0.08189   0.54484   0.98342   0.00000  Uiso   1.00
H33    H     0.48185   0.37232   0.17578   0.00000  Uiso   1.00
H34    H     0.52993   0.57251   0.06706   0.00000  Uiso   1.00
H35    H     0.79528   0.61134   0.91145   0.00000  Uiso   1.00
H36    H     0.63868   0.24758   0.31705   0.00000  Uiso   1.00
H37    H     0.74006   0.66971   0.08779   0.00000  Uiso   1.00
O38    O     0.72467   0.69914   0.98016   0.00000  Uiso   1.00
O39    O     0.83118   0.22190   0.51229   0.00000  Uiso   1.00
O40    O     0.96420   0.77573   0.21151   0.00000  Uiso   1.00
N41    N     0.01146   0.69096   0.12281   0.00000  Uiso   1.00
N42    N     0.79995   0.35086   0.50202   0.00000  Uiso   1.00
N43    N     0.89478   0.74551   0.28769   0.00000  Uiso   1.00
N44    N     0.88735   0.63063   0.98375   0.00000  Uiso   1.00
N45    N     0.67584   0.29053   0.36296   0.00000  Uiso   1.00
N46    N     0.77067   0.68517   0.14863   0.00000  Uiso   1.00
C47    C     0.42040   0.10112   0.18362   0.00000  Uiso   1.00
C48    C     0.60731   0.11115   0.27096   0.00000  Uiso   1.00
C49    C     0.69533   0.15318   0.26692   0.00000  Uiso   1.00
C50    C     0.86564   0.15530   0.35496   0.00000  Uiso   1.00
C51    C     0.14380   0.17670   0.47705   0.00000  Uiso   1.00
C52    C     0.39002   0.01741   0.16645   0.00000  Uiso   1.00
C53    C     0.29532   0.98063   0.07454   0.00000  Uiso   1.00
C54    C     0.28270   0.90385   0.07461   0.00000  Uiso   1.00
C55    C     0.22341   0.77972   0.03441   0.00000  Uiso   1.00
C56    C     0.36390   0.12618   0.22552   0.00000  Uiso   1.00
C57    C     0.24721   0.18084   0.18327   0.00000  Uiso   1.00
C58    C     0.21258   0.19563   0.23306   0.00000  Uiso   1.00
C59    C     0.11275   0.24039   0.28459   0.00000  Uiso   1.00
C60    C     0.56635   0.03017   0.34715   0.00000  Uiso   1.00
C61    C     0.68658   0.07260   0.35978   0.00000  Uiso   1.00
C62    C     0.85680   0.07467   0.44785   0.00000  Uiso   1.00
C63    C     0.94506   0.11670   0.44395   0.00000  Uiso   1.00
C64    C     0.46928   0.97887   0.25527   0.00000  Uiso   1.00
C65    C     0.45679   0.90213   0.25547   0.00000  Uiso   1.00
C66    C     0.36211   0.86524   0.16359   0.00000  Uiso   1.00
C67    C     0.44318   0.08764   0.31435   0.00000  Uiso   1.00
C68    C     0.40870   0.10234   0.36421   0.00000  Uiso   1.00
C69    C     0.29199   0.15702   0.32204   0.00000  Uiso   1.00
H70    H     0.35868   0.13112   0.11447   0.00000  Uiso   1.00
H71    H     0.63393   0.18299   0.19817   0.00000  Uiso   1.00
H72    H     0.23397   0.01047   0.00581   0.00000  Uiso   1.00
H73    H     0.18589   0.21065   0.11454   0.00000  Uiso   1.00
H74    H     0.97407   0.22347   0.33012   0.00000  Uiso   1.00
H75    H     0.13069   0.85971   0.92453   0.00000  Uiso   1.00
H76    H     0.02929   0.28184   0.15378   0.00000  Uiso   1.00
H77    H     0.62807   0.00016   0.41631   0.00000  Uiso   1.00
H78    H     0.91811   0.04484   0.51658   0.00000  Uiso   1.00
H79    H     0.51815   0.87232   0.32422   0.00000  Uiso   1.00
H80    H     0.47007   0.07251   0.43294   0.00000  Uiso   1.00
H81    H     0.20472   0.11134   0.58855   0.00000  Uiso   1.00
H82    H     0.36132   0.74758   0.18295   0.00000  Uiso   1.00
H83    H     0.25994   0.16971   0.41221   0.00000  Uiso   1.00
O84    O     0.27533   0.19914   0.51984   0.00000  Uiso   1.00
O85    O     0.16882   0.72190   0.98771   0.00000  Uiso   1.00
O86    O     0.03580   0.27573   0.28849   0.00000  Uiso   1.00
N87    N     0.98854   0.19096   0.37719   0.00000  Uiso   1.00
N88    N     0.20005   0.85086   0.99798   0.00000  Uiso   1.00
N89    N     0.10522   0.24551   0.21231   0.00000  Uiso   1.00
N90    N     0.11265   0.13063   0.51625   0.00000  Uiso   1.00
N91    N     0.32416   0.79053   0.13704   0.00000  Uiso   1.00
N92    N     0.22933   0.18517   0.35137   0.00000  Uiso   1.00
C93    C     0.42040   0.39888   0.68362   0.00000  Uiso   1.00
C94    C     0.60731   0.38885   0.77096   0.00000  Uiso   1.00
C95    C     0.69533   0.34682   0.76692   0.00000  Uiso   1.00
C96    C     0.86564   0.34470   0.85496   0.00000  Uiso   1.00
C97    C     0.14380   0.32330   0.97705   0.00000  Uiso   1.00
C98    C     0.39002   0.48259   0.66645   0.00000  Uiso   1.00
C99    C     0.29532   0.51937   0.57454   0.00000  Uiso   1.00
C100   C     0.28270   0.59615   0.57461   0.00000  Uiso   1.00
C101   C     0.22341   0.72028   0.53441   0.00000  Uiso   1.00
C102   C     0.36390   0.37382   0.72552   0.00000  Uiso   1.00
C103   C     0.24721   0.31916   0.68327   0.00000  Uiso   1.00
C104   C     0.21258   0.30437   0.73306   0.00000  Uiso   1.00
C105   C     0.11275   0.25961   0.78459   0.00000  Uiso   1.00
C106   C     0.56635   0.46983   0.84715   0.00000  Uiso   1.00
C107   C     0.68658   0.42740   0.85978   0.00000  Uiso   1.00
C108   C     0.85680   0.42533   0.94785   0.00000  Uiso   1.00
C109   C     0.94506   0.38330   0.94395   0.00000  Uiso   1.00
C110   C     0.46928   0.52113   0.75527   0.00000  Uiso   1.00
C111   C     0.45679   0.59787   0.75547   0.00000  Uiso   1.00
C112   C     0.36211   0.63476   0.66359   0.00000  Uiso   1.00
C113   C     0.44318   0.41236   0.81435   0.00000  Uiso   1.00
C114   C     0.40870   0.39766   0.86421   0.00000  Uiso   1.00
C115   C     0.29199   0.34298   0.82204   0.00000  Uiso   1.00
H116   H     0.35868   0.36888   0.61447   0.00000  Uiso   1.00
H117   H     0.63393   0.31701   0.69817   0.00000  Uiso   1.00
H118   H     0.23397   0.48953   0.50581   0.00000  Uiso   1.00
H119   H     0.18589   0.28935   0.61454   0.00000  Uiso   1.00
H120   H     0.97407   0.27653   0.83012   0.00000  Uiso   1.00
H121   H     0.13069   0.64029   0.42453   0.00000  Uiso   1.00
H122   H     0.02929   0.21816   0.65378   0.00000  Uiso   1.00
H123   H     0.62807   0.49984   0.91631   0.00000  Uiso   1.00
H124   H     0.91811   0.45516   0.01658   0.00000  Uiso   1.00
H125   H     0.51815   0.62768   0.82422   0.00000  Uiso   1.00
H126   H     0.47007   0.42749   0.93294   0.00000  Uiso   1.00
H127   H     0.20472   0.38866   0.08855   0.00000  Uiso   1.00
H128   H     0.36132   0.75242   0.68295   0.00000  Uiso   1.00
H129   H     0.25994   0.33029   0.91221   0.00000  Uiso   1.00
O130   O     0.27533   0.30086   0.01984   0.00000  Uiso   1.00
O131   O     0.16882   0.77810   0.48771   0.00000  Uiso   1.00
O132   O     0.03580   0.22427   0.78849   0.00000  Uiso   1.00
N133   N     0.98854   0.30904   0.87719   0.00000  Uiso   1.00
N134   N     0.20005   0.64914   0.49798   0.00000  Uiso   1.00
N135   N     0.10522   0.25449   0.71231   0.00000  Uiso   1.00
N136   N     0.11265   0.36937   0.01625   0.00000  Uiso   1.00
N137   N     0.32416   0.70947   0.63704   0.00000  Uiso   1.00
N138   N     0.22933   0.31483   0.85137   0.00000  Uiso   1.00
C139   C     0.57960   0.89888   0.81638   0.00000  Uiso   1.00
C140   C     0.39269   0.88885   0.72904   0.00000  Uiso   1.00
C141   C     0.30467   0.84682   0.73308   0.00000  Uiso   1.00
C142   C     0.13436   0.84470   0.64504   0.00000  Uiso   1.00
C143   C     0.85620   0.82330   0.52295   0.00000  Uiso   1.00
C144   C     0.60998   0.98259   0.83355   0.00000  Uiso   1.00
C145   C     0.70468   0.01937   0.92546   0.00000  Uiso   1.00
C146   C     0.71730   0.09615   0.92539   0.00000  Uiso   1.00
C147   C     0.77659   0.22028   0.96559   0.00000  Uiso   1.00
C148   C     0.63610   0.87382   0.77448   0.00000  Uiso   1.00
C149   C     0.75279   0.81916   0.81673   0.00000  Uiso   1.00
C150   C     0.78742   0.80437   0.76694   0.00000  Uiso   1.00
C151   C     0.88725   0.75961   0.71541   0.00000  Uiso   1.00
C152   C     0.43365   0.96983   0.65285   0.00000  Uiso   1.00
C153   C     0.31342   0.92740   0.64022   0.00000  Uiso   1.00
C154   C     0.14320   0.92533   0.55215   0.00000  Uiso   1.00
C155   C     0.05494   0.88330   0.55605   0.00000  Uiso   1.00
C156   C     0.53072   0.02113   0.74473   0.00000  Uiso   1.00
C157   C     0.54321   0.09787   0.74453   0.00000  Uiso   1.00
C158   C     0.63789   0.13476   0.83641   0.00000  Uiso   1.00
C159   C     0.55682   0.91236   0.68565   0.00000  Uiso   1.00
C160   C     0.59130   0.89766   0.63579   0.00000  Uiso   1.00
C161   C     0.70801   0.84298   0.67796   0.00000  Uiso   1.00
H162   H     0.64132   0.86888   0.88553   0.00000  Uiso   1.00
H163   H     0.36607   0.81701   0.80183   0.00000  Uiso   1.00
H164   H     0.76603   0.98953   0.99419   0.00000  Uiso   1.00
H165   H     0.81411   0.78935   0.88546   0.00000  Uiso   1.00
H166   H     0.02593   0.77653   0.66988   0.00000  Uiso   1.00
H167   H     0.86931   0.14029   0.07547   0.00000  Uiso   1.00
H168   H     0.97071   0.71816   0.84622   0.00000  Uiso   1.00
H169   H     0.37193   0.99984   0.58369   0.00000  Uiso   1.00
H170   H     0.08189   0.95516   0.48342   0.00000  Uiso   1.00
H171   H     0.48185   0.12768   0.67578   0.00000  Uiso   1.00
H172   H     0.52993   0.92749   0.56706   0.00000  Uiso   1.00
H173   H     0.79528   0.88866   0.41145   0.00000  Uiso   1.00
H174   H     0.63868   0.25242   0.81705   0.00000  Uiso   1.00
H175   H     0.74006   0.83029   0.58779   0.00000  Uiso   1.00
O176   O     0.72467   0.80086   0.48016   0.00000  Uiso   1.00
O177   O     0.83118   0.27810   0.01229   0.00000  Uiso   1.00
O178   O     0.96420   0.72427   0.71151   0.00000  Uiso   1.00
N179   N     0.01146   0.80904   0.62281   0.00000  Uiso   1.00
N180   N     0.79995   0.14914   0.00202   0.00000  Uiso   1.00
N181   N     0.89478   0.75449   0.78769   0.00000  Uiso   1.00
N182   N     0.88735   0.86937   0.48375   0.00000  Uiso   1.00
N183   N     0.67584   0.20947   0.86296   0.00000  Uiso   1.00
N184   N     0.77067   0.81483   0.64863   0.00000  Uiso   1.00
