data_job_06958
_audit_creation_date              2018-12-19
_audit_creation_method            'Materials Studio'
_symmetry_space_group_name_H-M    'P1'
_symmetry_Int_Tables_number       1
_symmetry_cell_setting            triclinic
loop_
_symmetry_equiv_pos_as_xyz
  x,y,z
_cell_length_a                    23.0881
_cell_length_b                    21.5190
_cell_length_c                    23.3943
_cell_angle_alpha                 104.5020
_cell_angle_beta                  113.2400
_cell_angle_gamma                 105.9770
loop_
_atom_site_label
_atom_site_type_symbol
_atom_site_fract_x
_atom_site_fract_y
_atom_site_fract_z
_atom_site_U_iso_or_equiv
_atom_site_adp_type
_atom_site_occupancy
C1     C     0.71972   0.02094   0.63188   0.00000  Uiso   1.00
C2     C     0.70647   0.06911   0.59503   0.00000  Uiso   1.00
C3     C     0.74120   0.09264   0.56256   0.00000  Uiso   1.00
C4     C     0.72146   0.13638   0.53182   0.00000  Uiso   1.00
C5     C     0.70891   0.20824   0.47436   0.00000  Uiso   1.00
C6     C     0.73623   0.06080   0.70417   0.00000  Uiso   1.00
C7     C     0.79598   0.07732   0.76346   0.00000  Uiso   1.00
C8     C     0.80128   0.11406   0.82460   0.00000  Uiso   1.00
C9     C     0.83492   0.17296   0.93658   0.00000  Uiso   1.00
C10    C     0.65012   0.95750   0.59862   0.00000  Uiso   1.00
C11    C     0.63745   0.88716   0.56918   0.00000  Uiso   1.00
C12    C     0.57025   0.83693   0.54146   0.00000  Uiso   1.00
C13    C     0.47018   0.73545   0.48957   0.00000  Uiso   1.00
C14    C     0.62291   0.05680   0.63503   0.00000  Uiso   1.00
C15    C     0.65389   0.08859   0.59674   0.00000  Uiso   1.00
C16    C     0.63409   0.13231   0.56604   0.00000  Uiso   1.00
C17    C     0.66878   0.15589   0.53353   0.00000  Uiso   1.00
C18    C     0.68365   0.08027   0.70588   0.00000  Uiso   1.00
C19    C     0.68887   0.11699   0.76695   0.00000  Uiso   1.00
C20    C     0.74860   0.13357   0.82631   0.00000  Uiso   1.00
C21    C     0.59753   0.97697   0.60033   0.00000  Uiso   1.00
C22    C     0.53034   0.92684   0.57266   0.00000  Uiso   1.00
C23    C     0.51757   0.85644   0.54318   0.00000  Uiso   1.00
H24    H     0.76066   0.00578   0.63056   0.00000  Uiso   1.00
H25    H     0.78190   0.07756   0.56125   0.00000  Uiso   1.00
H26    H     0.83666   0.06223   0.76212   0.00000  Uiso   1.00
H27    H     0.67816   0.87211   0.56787   0.00000  Uiso   1.00
H28    H     0.78227   0.16575   0.48519   0.00000  Uiso   1.00
H29    H     0.89772   0.13341   0.90874   0.00000  Uiso   1.00
H30    H     0.56349   0.73250   0.49911   0.00000  Uiso   1.00
H31    H     0.58197   0.07196   0.63637   0.00000  Uiso   1.00
H32    H     0.59340   0.14737   0.56737   0.00000  Uiso   1.00
H33    H     0.64816   0.13205   0.76825   0.00000  Uiso   1.00
H34    H     0.48966   0.94193   0.57399   0.00000  Uiso   1.00
H35    H     0.62928   0.22241   0.49016   0.00000  Uiso   1.00
H36    H     0.74474   0.19008   0.91371   0.00000  Uiso   1.00
H37    H     0.41050   0.78917   0.50408   0.00000  Uiso   1.00
O38    O     0.71653   0.24251   0.44220   0.00000  Uiso   1.00
O39    O     0.86800   0.20008   0.99788   0.00000  Uiso   1.00
O40    O     0.42950   0.67409   0.46046   0.00000  Uiso   1.00
N41    N     0.74468   0.16872   0.49581   0.00000  Uiso   1.00
N42    N     0.85263   0.13850   0.89181   0.00000  Uiso   1.00
N43    N     0.54016   0.76368   0.50886   0.00000  Uiso   1.00
N44    N     0.66236   0.19921   0.49849   0.00000  Uiso   1.00
N45    N     0.77031   0.16899   0.89448   0.00000  Uiso   1.00
N46    N     0.45784   0.79417   0.51153   0.00000  Uiso   1.00
C47    C     0.61137   0.73545   0.01976   0.00000  Uiso   1.00
C48    C     0.57402   0.73064   0.06071   0.00000  Uiso   1.00
C49    C     0.54030   0.77226   0.07322   0.00000  Uiso   1.00
C50    C     0.50930   0.75966   0.11182   0.00000  Uiso   1.00
C51    C     0.45092   0.76018   0.17162   0.00000  Uiso   1.00
C52    C     0.68548   0.74792   0.06688   0.00000  Uiso   1.00
C53    C     0.74549   0.80407   0.08456   0.00000  Uiso   1.00
C54    C     0.80831   0.80601   0.12835   0.00000  Uiso   1.00
C55    C     0.92299   0.83333   0.19768   0.00000  Uiso   1.00
C56    C     0.57798   0.66174   0.96343   0.00000  Uiso   1.00
C57    C     0.54761   0.64541   0.89412   0.00000  Uiso   1.00
C58    C     0.51993   0.57479   0.85080   0.00000  Uiso   1.00
C59    C     0.46769   0.46830   0.75950   0.00000  Uiso   1.00
C60    C     0.61626   0.63906   0.06608   0.00000  Uiso   1.00
C61    C     0.57668   0.67828   0.08588   0.00000  Uiso   1.00
C62    C     0.54571   0.66561   0.12447   0.00000  Uiso   1.00
C63    C     0.51195   0.70721   0.13702   0.00000  Uiso   1.00
C64    C     0.68814   0.69557   0.09204   0.00000  Uiso   1.00
C65    C     0.75089   0.69742   0.13581   0.00000  Uiso   1.00
C66    C     0.81097   0.75356   0.15356   0.00000  Uiso   1.00
C67    C     0.58063   0.60938   0.98858   0.00000  Uiso   1.00
C68    C     0.55301   0.53877   0.94537   0.00000  Uiso   1.00
C69    C     0.52259   0.52234   0.87601   0.00000  Uiso   1.00
H70    H     0.60931   0.77621   0.00017   0.00000  Uiso   1.00
H71    H     0.53827   0.81277   0.05374   0.00000  Uiso   1.00
H72    H     0.74342   0.84457   0.06508   0.00000  Uiso   1.00
H73    H     0.54556   0.68594   0.87466   0.00000  Uiso   1.00
H74    H     0.46069   0.83024   0.12425   0.00000  Uiso   1.00
H75    H     0.89326   0.89728   0.14814   0.00000  Uiso   1.00
H76    H     0.47605   0.56277   0.74661   0.00000  Uiso   1.00
H77    H     0.61833   0.59830   0.08567   0.00000  Uiso   1.00
H78    H     0.54777   0.62509   0.14393   0.00000  Uiso   1.00
H79    H     0.75293   0.65690   0.15527   0.00000  Uiso   1.00
H80    H     0.55507   0.49827   0.96486   0.00000  Uiso   1.00
H81    H     0.46841   0.67792   0.19746   0.00000  Uiso   1.00
H82    H     0.90098   0.74495   0.22134   0.00000  Uiso   1.00
H83    H     0.48377   0.41045   0.81982   0.00000  Uiso   1.00
O84    O     0.41799   0.77493   0.19766   0.00000  Uiso   1.00
O85    O     0.98551   0.86288   0.22898   0.00000  Uiso   1.00
O86    O     0.43813   0.42402   0.70219   0.00000  Uiso   1.00
N87    N     0.47217   0.79070   0.13347   0.00000  Uiso   1.00
N88    N     0.87661   0.85339   0.15581   0.00000  Uiso   1.00
N89    N     0.48656   0.54066   0.78042   0.00000  Uiso   1.00
N90    N     0.47633   0.70874   0.17286   0.00000  Uiso   1.00
N91    N     0.88076   0.77142   0.19520   0.00000  Uiso   1.00
N92    N     0.49071   0.45869   0.81981   0.00000  Uiso   1.00
C93    C     0.02054   0.65956   0.70355   0.00000  Uiso   1.00
C94    C     0.07900   0.63641   0.71121   0.00000  Uiso   1.00
C95    C     0.09620   0.59328   0.74397   0.00000  Uiso   1.00
C96    C     0.15141   0.57824   0.74550   0.00000  Uiso   1.00
C97    C     0.23662   0.53821   0.76201   0.00000  Uiso   1.00
C98    C     0.05443   0.74021   0.73405   0.00000  Uiso   1.00
C99    C     0.05096   0.78435   0.78600   0.00000  Uiso   1.00
C100   C     0.08549   0.85669   0.80675   0.00000  Uiso   1.00
C101   C     0.13252   0.97781   0.85869   0.00000  Uiso   1.00
C102   C     0.97443   0.63632   0.62733   0.00000  Uiso   1.00
C103   C     0.90370   0.59312   0.58955   0.00000  Uiso   1.00
C104   C     0.87087   0.57801   0.52044   0.00000  Uiso   1.00
C105   C     0.79369   0.53781   0.40668   0.00000  Uiso   1.00
C106   C     0.08800   0.70957   0.64800   0.00000  Uiso   1.00
C107   C     0.11564   0.66358   0.68104   0.00000  Uiso   1.00
C108   C     0.17084   0.64861   0.68251   0.00000  Uiso   1.00
C109   C     0.18811   0.60545   0.71527   0.00000  Uiso   1.00
C110   C     0.09107   0.76738   0.70388   0.00000  Uiso   1.00
C111   C     0.12560   0.83968   0.72455   0.00000  Uiso   1.00
C112   C     0.12219   0.88391   0.77653   0.00000  Uiso   1.00
C113   C     0.01107   0.66349   0.59715   0.00000  Uiso   1.00
C114   C     0.97834   0.64845   0.52810   0.00000  Uiso   1.00
C115   C     0.90757   0.60522   0.49022   0.00000  Uiso   1.00
H116   H     0.99201   0.63841   0.72704   0.00000  Uiso   1.00
H117   H     0.06783   0.57227   0.76732   0.00000  Uiso   1.00
H118   H     0.02260   0.76331   0.80934   0.00000  Uiso   1.00
H119   H     0.87536   0.57210   0.61291   0.00000  Uiso   1.00
H120   H     0.16806   0.51094   0.79869   0.00000  Uiso   1.00
H121   H     0.07267   0.91375   0.88728   0.00000  Uiso   1.00
H122   H     0.76219   0.51056   0.47308   0.00000  Uiso   1.00
H123   H     0.11653   0.73072   0.62451   0.00000  Uiso   1.00
H124   H     0.19918   0.66964   0.65916   0.00000  Uiso   1.00
H125   H     0.15395   0.86068   0.70119   0.00000  Uiso   1.00
H126   H     0.00671   0.66948   0.50477   0.00000  Uiso   1.00
H127   H     0.27468   0.58997   0.71091   0.00000  Uiso   1.00
H128   H     0.17928   0.99279   0.79950   0.00000  Uiso   1.00
H129   H     0.86880   0.58960   0.38530   0.00000  Uiso   1.00
O130   O     0.27351   0.50863   0.77947   0.00000  Uiso   1.00
O131   O     0.14834   0.03710   0.89568   0.00000  Uiso   1.00
O132   O     0.74100   0.50813   0.35227   0.00000  Uiso   1.00
N133   N     0.18180   0.53791   0.77326   0.00000  Uiso   1.00
N134   N     0.09262   0.91452   0.85610   0.00000  Uiso   1.00
N135   N     0.80235   0.53759   0.46886   0.00000  Uiso   1.00
N136   N     0.23917   0.58043   0.72603   0.00000  Uiso   1.00
N137   N     0.14999   0.95704   0.80887   0.00000  Uiso   1.00
N138   N     0.85971   0.58011   0.42163   0.00000  Uiso   1.00
C139   C     0.22184   0.18324   0.52219   0.00000  Uiso   1.00
C140   C     0.20595   0.14869   0.56692   0.00000  Uiso   1.00
C141   C     0.24497   0.11922   0.60355   0.00000  Uiso   1.00
C142   C     0.22178   0.09022   0.64141   0.00000  Uiso   1.00
C143   C     0.20625   0.03652   0.71073   0.00000  Uiso   1.00
C144   C     0.22668   0.25781   0.54929   0.00000  Uiso   1.00
C145   C     0.28313   0.32008   0.57109   0.00000  Uiso   1.00
C146   C     0.27738   0.38295   0.59410   0.00000  Uiso   1.00
C147   C     0.29402   0.49866   0.63599   0.00000  Uiso   1.00
C148   C     0.15712   0.14386   0.45179   0.00000  Uiso   1.00
C149   C     0.15509   0.11034   0.39159   0.00000  Uiso   1.00
C150   C     0.09077   0.07727   0.33250   0.00000  Uiso   1.00
C151   C     0.99942   0.01606   0.22301   0.00000  Uiso   1.00
C152   C     0.11126   0.18416   0.52428   0.00000  Uiso   1.00
C153   C     0.14588   0.14919   0.56806   0.00000  Uiso   1.00
C154   C     0.12262   0.12023   0.60587   0.00000  Uiso   1.00
C155   C     0.16160   0.09071   0.64255   0.00000  Uiso   1.00
C156   C     0.16662   0.25831   0.55043   0.00000  Uiso   1.00
C157   C     0.16078   0.32110   0.57341   0.00000  Uiso   1.00
C158   C     0.21721   0.38345   0.59524   0.00000  Uiso   1.00
C159   C     0.09705   0.14436   0.45292   0.00000  Uiso   1.00
C160   C     0.03274   0.11135   0.39391   0.00000  Uiso   1.00
C161   C     0.03060   0.07777   0.33364   0.00000  Uiso   1.00
H162   H     0.26861   0.18286   0.52130   0.00000  Uiso   1.00
H163   H     0.29146   0.11885   0.60266   0.00000  Uiso   1.00
H164   H     0.32960   0.31968   0.57020   0.00000  Uiso   1.00
H165   H     0.20158   0.10996   0.39073   0.00000  Uiso   1.00
H166   H     0.29031   0.04812   0.69339   0.00000  Uiso   1.00
H167   H     0.37074   0.47159   0.62491   0.00000  Uiso   1.00
H168   H     0.10078   0.02935   0.24647   0.00000  Uiso   1.00
H169   H     0.06449   0.18455   0.52517   0.00000  Uiso   1.00
H170   H     0.07614   0.12062   0.60674   0.00000  Uiso   1.00
H171   H     0.11429   0.32146   0.57428   0.00000  Uiso   1.00
H172   H     0.98626   0.11174   0.39481   0.00000  Uiso   1.00
H173   H     0.11555   0.04956   0.69670   0.00000  Uiso   1.00
H174   H     0.19598   0.47304   0.62822   0.00000  Uiso   1.00
H175   H     0.92602   0.03080   0.24978   0.00000  Uiso   1.00
O176   O     0.21429   0.00678   0.74866   0.00000  Uiso   1.00
O177   O     0.31980   0.56235   0.65880   0.00000  Uiso   1.00
O178   O     0.96562   0.98215   0.16230   0.00000  Uiso   1.00
N179   N     0.24758   0.05722   0.68296   0.00000  Uiso   1.00
N180   N     0.32278   0.45314   0.61895   0.00000  Uiso   1.00
N181   N     0.07039   0.03970   0.26514   0.00000  Uiso   1.00
N182   N     0.15354   0.05799   0.68474   0.00000  Uiso   1.00
N183   N     0.22874   0.45392   0.62073   0.00000  Uiso   1.00
N184   N     0.97635   0.04048   0.26692   0.00000  Uiso   1.00
C185   C     0.10258   0.49764   0.16051   0.00000  Uiso   1.00
C186   C     0.06644   0.54574   0.17014   0.00000  Uiso   1.00
C187   C     0.03052   0.54529   0.20574   0.00000  Uiso   1.00
C188   C     0.00115   0.59347   0.20870   0.00000  Uiso   1.00
C189   C     0.94411   0.66106   0.22849   0.00000  Uiso   1.00
C190   C     0.17800   0.54658   0.18780   0.00000  Uiso   1.00
C191   C     0.23586   0.54682   0.23823   0.00000  Uiso   1.00
C192   C     0.30040   0.59570   0.25605   0.00000  Uiso   1.00
C193   C     0.41655   0.66456   0.30320   0.00000  Uiso   1.00
C194   C     0.07133   0.45978   0.08383   0.00000  Uiso   1.00
C195   C     0.03952   0.38703   0.04685   0.00000  Uiso   1.00
C196   C     0.01426   0.36282   0.97713   0.00000  Uiso   1.00
C197   C     0.96479   0.29690   0.86287   0.00000  Uiso   1.00
C198   C     0.11430   0.58401   0.10249   0.00000  Uiso   1.00
C199   C     0.07281   0.59266   0.13863   0.00000  Uiso   1.00
C200   C     0.04349   0.64085   0.14154   0.00000  Uiso   1.00
C201   C     0.00753   0.64047   0.17713   0.00000  Uiso   1.00
C202   C     0.18436   0.59350   0.15628   0.00000  Uiso   1.00
C203   C     0.24883   0.64239   0.17403   0.00000  Uiso   1.00
C204   C     0.30678   0.64270   0.22448   0.00000  Uiso   1.00
C205   C     0.07769   0.50669   0.05231   0.00000  Uiso   1.00
C206   C     0.05249   0.48260   0.98265   0.00000  Uiso   1.00
C207   C     0.02064   0.40983   0.94556   0.00000  Uiso   1.00
H208   H     0.09762   0.46111   0.18505   0.00000  Uiso   1.00
H209   H     0.02561   0.50897   0.23013   0.00000  Uiso   1.00
H210   H     0.23092   0.51050   0.26260   0.00000  Uiso   1.00
H211   H     0.03460   0.35074   0.07125   0.00000  Uiso   1.00
H212   H     0.94860   0.58275   0.26622   0.00000  Uiso   1.00
H213   H     0.38151   0.58596   0.33469   0.00000  Uiso   1.00
H214   H     0.96754   0.24906   0.93119   0.00000  Uiso   1.00
H215   H     0.11926   0.62054   0.07795   0.00000  Uiso   1.00
H216   H     0.04843   0.67716   0.11714   0.00000  Uiso   1.00
H217   H     0.25374   0.67868   0.14963   0.00000  Uiso   1.00
H218   H     0.05742   0.51892   0.95828   0.00000  Uiso   1.00
H219   H     0.96712   0.71925   0.17453   0.00000  Uiso   1.00
H220   H     0.40003   0.72246   0.24299   0.00000  Uiso   1.00
H221   H     0.98606   0.38556   0.83949   0.00000  Uiso   1.00
O222   O     0.91090   0.68538   0.24811   0.00000  Uiso   1.00
O223   O     0.47885   0.68958   0.33793   0.00000  Uiso   1.00
O224   O     0.93573   0.24758   0.80854   0.00000  Uiso   1.00
N225   N     0.96267   0.60710   0.23925   0.00000  Uiso   1.00
N226   N     0.36741   0.61010   0.30327   0.00000  Uiso   1.00
N227   N     0.98040   0.29513   0.92603   0.00000  Uiso   1.00
N228   N     0.97263   0.68055   0.18991   0.00000  Uiso   1.00
N229   N     0.37737   0.68355   0.25393   0.00000  Uiso   1.00
N230   N     0.99036   0.36858   0.87669   0.00000  Uiso   1.00
C231   C     0.48432   0.21313   0.11041   0.00000  Uiso   1.00
C232   C     0.52590   0.18646   0.08160   0.00000  Uiso   1.00
C233   C     0.54165   0.20454   0.03490   0.00000  Uiso   1.00
C234   C     0.58028   0.17450   0.01488   0.00000  Uiso   1.00
C235   C     0.64153   0.14019   0.96626   0.00000  Uiso   1.00
C236   C     0.53086   0.24702   0.18760   0.00000  Uiso   1.00
C237   C     0.55077   0.31600   0.23001   0.00000  Uiso   1.00
C238   C     0.59356   0.33693   0.29922   0.00000  Uiso   1.00
C239   C     0.66247   0.39661   0.41516   0.00000  Uiso   1.00
C240   C     0.42401   0.14735   0.09457   0.00000  Uiso   1.00
C241   C     0.35407   0.13253   0.05878   0.00000  Uiso   1.00
C242   C     0.30690   0.06955   0.04967   0.00000  Uiso   1.00
C243   C     0.20990   0.97447   0.02117   0.00000  Uiso   1.00
C244   C     0.52491   0.12765   0.15791   0.00000  Uiso   1.00
C245   C     0.54795   0.14004   0.10741   0.00000  Uiso   1.00
C246   C     0.58656   0.10996   0.08745   0.00000  Uiso   1.00
C247   C     0.60236   0.12799   0.04072   0.00000  Uiso   1.00
C248   C     0.55291   0.20059   0.21340   0.00000  Uiso   1.00
C249   C     0.59568   0.22142   0.28256   0.00000  Uiso   1.00
C250   C     0.61565   0.29042   0.32507   0.00000  Uiso   1.00
C251   C     0.44606   0.10091   0.12037   0.00000  Uiso   1.00
C252   C     0.39899   0.03795   0.11133   0.00000  Uiso   1.00
C253   C     0.32899   0.02304   0.07552   0.00000  Uiso   1.00
H254   H     0.46716   0.24928   0.09032   0.00000  Uiso   1.00
H255   H     0.52458   0.24048   0.01495   0.00000  Uiso   1.00
H256   H     0.53369   0.35191   0.21003   0.00000  Uiso   1.00
H257   H     0.33703   0.16847   0.03882   0.00000  Uiso   1.00
H258   H     0.59800   0.21026   0.94278   0.00000  Uiso   1.00
H259   H     0.61719   0.44522   0.35412   0.00000  Uiso   1.00
H260   H     0.20248   0.05840   0.99309   0.00000  Uiso   1.00
H261   H     0.54208   0.09150   0.17800   0.00000  Uiso   1.00
H262   H     0.60362   0.07404   0.10743   0.00000  Uiso   1.00
H263   H     0.61273   0.18548   0.30251   0.00000  Uiso   1.00
H264   H     0.41607   0.00204   0.13130   0.00000  Uiso   1.00
H265   H     0.66215   0.07517   0.01784   0.00000  Uiso   1.00
H266   H     0.68134   0.31014   0.42918   0.00000  Uiso   1.00
H267   H     0.26663   0.92332   0.06815   0.00000  Uiso   1.00
O268   O     0.66923   0.13409   0.93232   0.00000  Uiso   1.00
O269   O     0.69439   0.44235   0.47199   0.00000  Uiso   1.00
O270   O     0.15031   0.93485   0.99832   0.00000  Uiso   1.00
N271   N     0.60464   0.18085   0.97012   0.00000  Uiso   1.00
N272   N     0.62259   0.40054   0.35470   0.00000  Uiso   1.00
N273   N     0.23488   0.03890   0.01718   0.00000  Uiso   1.00
N274   N     0.63916   0.10816   0.01051   0.00000  Uiso   1.00
N275   N     0.65711   0.32785   0.39509   0.00000  Uiso   1.00
N276   N     0.26939   0.96621   0.05757   0.00000  Uiso   1.00
C277   C     0.22071   0.90709   0.22111   0.00000  Uiso   1.00
C278   C     0.21046   0.85850   0.25720   0.00000  Uiso   1.00
C279   C     0.16076   0.84471   0.27712   0.00000  Uiso   1.00
C280   C     0.15983   0.79873   0.30944   0.00000  Uiso   1.00
C281   C     0.13673   0.72798   0.36363   0.00000  Uiso   1.00
C282   C     0.21495   0.86202   0.15570   0.00000  Uiso   1.00
C283   C     0.16902   0.85120   0.09027   0.00000  Uiso   1.00
C284   C     0.17188   0.80818   0.03715   0.00000  Uiso   1.00
C285   C     0.15579   0.74294   0.93375   0.00000  Uiso   1.00
C286   C     0.29615   0.96157   0.26550   0.00000  Uiso   1.00
C287   C     0.31849   0.03445   0.29239   0.00000  Uiso   1.00
C288   C     0.38972   0.07525   0.33171   0.00000  Uiso   1.00
C289   C     0.49969   0.16457   0.39881   0.00000  Uiso   1.00
C290   C     0.30745   0.84993   0.24311   0.00000  Uiso   1.00
C291   C     0.25758   0.82746   0.26915   0.00000  Uiso   1.00
C292   C     0.25673   0.78148   0.30145   0.00000  Uiso   1.00
C293   C     0.20703   0.76763   0.32142   0.00000  Uiso   1.00
C294   C     0.26206   0.83098   0.16764   0.00000  Uiso   1.00
C295   C     0.26499   0.78797   0.11461   0.00000  Uiso   1.00
C296   C     0.21908   0.77709   0.04912   0.00000  Uiso   1.00
C297   C     0.34326   0.93053   0.27745   0.00000  Uiso   1.00
C298   C     0.41446   0.97122   0.31673   0.00000  Uiso   1.00
C299   C     0.43691   0.04415   0.34368   0.00000  Uiso   1.00
H300   H     0.18403   0.93125   0.21181   0.00000  Uiso   1.00
H301   H     0.12430   0.86874   0.26786   0.00000  Uiso   1.00
H302   H     0.13258   0.87524   0.08104   0.00000  Uiso   1.00
H303   H     0.28202   0.05845   0.28314   0.00000  Uiso   1.00
H304   H     0.07885   0.78573   0.33525   0.00000  Uiso   1.00
H305   H     0.09631   0.79944   0.94133   0.00000  Uiso   1.00
H306   H     0.41144   0.18579   0.36749   0.00000  Uiso   1.00
H307   H     0.34413   0.82576   0.25241   0.00000  Uiso   1.00
H308   H     0.29319   0.75747   0.31069   0.00000  Uiso   1.00
H309   H     0.30146   0.76396   0.12387   0.00000  Uiso   1.00
H310   H     0.45091   0.94718   0.32597   0.00000  Uiso   1.00
H311   H     0.21592   0.69541   0.37001   0.00000  Uiso   1.00
H312   H     0.23338   0.70912   0.97609   0.00000  Uiso   1.00
H313   H     0.54852   0.09547   0.40226   0.00000  Uiso   1.00
O314   O     0.11097   0.69753   0.39022   0.00000  Uiso   1.00
O315   O     0.13389   0.71553   0.87342   0.00000  Uiso   1.00
O316   O     0.54733   0.22241   0.43253   0.00000  Uiso   1.00
N317   N     0.11811   0.77386   0.33544   0.00000  Uiso   1.00
N318   N     0.13442   0.78667   0.96715   0.00000  Uiso   1.00
N319   N     0.42905   0.14787   0.36556   0.00000  Uiso   1.00
N320   N     0.19187   0.72526   0.35415   0.00000  Uiso   1.00
N321   N     0.20818   0.73807   0.98586   0.00000  Uiso   1.00
N322   N     0.50281   0.09927   0.38427   0.00000  Uiso   1.00
C323   C     0.28152   0.25317   0.88654   0.00000  Uiso   1.00
C324   C     0.31267   0.26036   0.84065   0.00000  Uiso   1.00
C325   C     0.35408   0.22796   0.83021   0.00000  Uiso   1.00
C326   C     0.37745   0.24120   0.78629   0.00000  Uiso   1.00
C327   C     0.42845   0.24563   0.71991   0.00000  Uiso   1.00
C328   C     0.20332   0.22651   0.84142   0.00000  Uiso   1.00
C329   C     0.15279   0.16567   0.83164   0.00000  Uiso   1.00
C330   C     0.08410   0.15043   0.78838   0.00000  Uiso   1.00
C331   C     0.96533   0.10235   0.72324   0.00000  Uiso   1.00
C332   C     0.30652   0.32823   0.93682   0.00000  Uiso   1.00
C333   C     0.34275   0.35291   0.00725   0.00000  Uiso   1.00
C334   C     0.36094   0.42332   0.04430   0.00000  Uiso   1.00
C335   C     0.40241   0.53317   0.12729   0.00000  Uiso   1.00
C336   C     0.24937   0.33431   0.82711   0.00000  Uiso   1.00
C337   C     0.29521   0.30443   0.80837   0.00000  Uiso   1.00
C338   C     0.31852   0.31773   0.76445   0.00000  Uiso   1.00
C339   C     0.35996   0.28536   0.75395   0.00000  Uiso   1.00
C340   C     0.18586   0.27058   0.80914   0.00000  Uiso   1.00
C341   C     0.11723   0.25544   0.76589   0.00000  Uiso   1.00
C342   C     0.06661   0.19458   0.75604   0.00000  Uiso   1.00
C343   C     0.28907   0.37231   0.90454   0.00000  Uiso   1.00
C344   C     0.30720   0.44269   0.94149   0.00000  Uiso   1.00
C345   C     0.34345   0.46747   0.01196   0.00000  Uiso   1.00
H346   H     0.29510   0.21885   0.91168   0.00000  Uiso   1.00
H347   H     0.36758   0.19385   0.85520   0.00000  Uiso   1.00
H348   H     0.16632   0.13157   0.85664   0.00000  Uiso   1.00
H349   H     0.35625   0.31879   0.03221   0.00000  Uiso   1.00
H350   H     0.44021   0.18554   0.77832   0.00000  Uiso   1.00
H351   H     0.01584   0.05424   0.78138   0.00000  Uiso   1.00
H352   H     0.41636   0.44903   0.15162   0.00000  Uiso   1.00
H353   H     0.23578   0.36862   0.80198   0.00000  Uiso   1.00
H354   H     0.30500   0.35184   0.73948   0.00000  Uiso   1.00
H355   H     0.10374   0.28956   0.74092   0.00000  Uiso   1.00
H356   H     0.29368   0.47678   0.91649   0.00000  Uiso   1.00
H357   H     0.38942   0.31377   0.68440   0.00000  Uiso   1.00
H358   H     0.96505   0.18247   0.68746   0.00000  Uiso   1.00
H359   H     0.36557   0.57726   0.05770   0.00000  Uiso   1.00
O360   O     0.46140   0.23589   0.69221   0.00000  Uiso   1.00
O361   O     0.90465   0.06364   0.69623   0.00000  Uiso   1.00
O362   O     0.43012   0.58159   0.18197   0.00000  Uiso   1.00
N363   N     0.41877   0.21803   0.76481   0.00000  Uiso   1.00
N364   N     0.02201   0.09527   0.76765   0.00000  Uiso   1.00
N365   N     0.39644   0.46436   0.11380   0.00000  Uiso   1.00
N366   N     0.39144   0.28703   0.71427   0.00000  Uiso   1.00
N367   N     0.99468   0.16427   0.71711   0.00000  Uiso   1.00
N368   N     0.36911   0.53336   0.06326   0.00000  Uiso   1.00
C369   C     0.09604   0.35831   0.27956   0.00000  Uiso   1.00
C370   C     0.10122   0.41232   0.33989   0.00000  Uiso   1.00
C371   C     0.10977   0.48120   0.34926   0.00000  Uiso   1.00
C372   C     0.11334   0.52227   0.40780   0.00000  Uiso   1.00
C373   C     0.12209   0.61021   0.49424   0.00000  Uiso   1.00
C374   C     0.02756   0.29422   0.24893   0.00000  Uiso   1.00
C375   C     0.97419   0.26380   0.18182   0.00000  Uiso   1.00
C376   C     0.91576   0.20544   0.16378   0.00000  Uiso   1.00
C377   C     0.81018   0.11001   0.10899   0.00000  Uiso   1.00
C378   C     0.15324   0.33443   0.30968   0.00000  Uiso   1.00
C379   C     0.20552   0.33780   0.29364   0.00000  Uiso   1.00
C380   C     0.25289   0.31328   0.32673   0.00000  Uiso   1.00
C381   C     0.34243   0.28027   0.36627   0.00000  Uiso   1.00
C382   C     0.08717   0.30876   0.36684   0.00000  Uiso   1.00
C383   C     0.09641   0.38540   0.38729   0.00000  Uiso   1.00
C384   C     0.09997   0.42638   0.44583   0.00000  Uiso   1.00
C385   C     0.10852   0.49531   0.45529   0.00000  Uiso   1.00
C386   C     0.02275   0.26731   0.29633   0.00000  Uiso   1.00
C387   C     0.96438   0.20898   0.27838   0.00000  Uiso   1.00
C388   C     0.91093   0.17848   0.21127   0.00000  Uiso   1.00
C389   C     0.14843   0.30752   0.35708   0.00000  Uiso   1.00
C390   C     0.19572   0.28298   0.39020   0.00000  Uiso   1.00
C391   C     0.24806   0.28631   0.37422   0.00000  Uiso   1.00
H392   H     0.09978   0.37926   0.24265   0.00000  Uiso   1.00
H393   H     0.11349   0.50201   0.31256   0.00000  Uiso   1.00
H394   H     0.97793   0.28463   0.14515   0.00000  Uiso   1.00
H395   H     0.20923   0.35863   0.25695   0.00000  Uiso   1.00
H396   H     0.12654   0.62621   0.41097   0.00000  Uiso   1.00
H397   H     0.84072   0.16786   0.05795   0.00000  Uiso   1.00
H398   H     0.32845   0.32389   0.29371   0.00000  Uiso   1.00
H399   H     0.08342   0.28780   0.40375   0.00000  Uiso   1.00
H400   H     0.09624   0.40554   0.48250   0.00000  Uiso   1.00
H401   H     0.96068   0.18816   0.31508   0.00000  Uiso   1.00
H402   H     0.19197   0.26216   0.42689   0.00000  Uiso   1.00
H403   H     0.11254   0.54792   0.54889   0.00000  Uiso   1.00
H404   H     0.82672   0.08956   0.19588   0.00000  Uiso   1.00
H405   H     0.31445   0.24559   0.43164   0.00000  Uiso   1.00
O406   O     0.12824   0.66615   0.52882   0.00000  Uiso   1.00
O407   O     0.75326   0.06481   0.06568   0.00000  Uiso   1.00
O408   O     0.39316   0.26951   0.37499   0.00000  Uiso   1.00
N409   N     0.12150   0.59164   0.43263   0.00000  Uiso   1.00
N410   N     0.85427   0.16311   0.10258   0.00000  Uiso   1.00
N411   N     0.31025   0.30896   0.32298   0.00000  Uiso   1.00
N412   N     0.11397   0.54950   0.50684   0.00000  Uiso   1.00
N413   N     0.84674   0.12098   0.17680   0.00000  Uiso   1.00
N414   N     0.30271   0.26683   0.39720   0.00000  Uiso   1.00
C415   C     0.73250   0.83017   0.41701   0.00000  Uiso   1.00
C416   C     0.76580   0.86079   0.37971   0.00000  Uiso   1.00
C417   C     0.75297   0.91008   0.35402   0.00000  Uiso   1.00
C418   C     0.78865   0.93144   0.32155   0.00000  Uiso   1.00
C419   C     0.83321   0.98307   0.26459   0.00000  Uiso   1.00
C420   C     0.69840   0.75008   0.37752   0.00000  Uiso   1.00
C421   C     0.62889   0.70629   0.35000   0.00000  Uiso   1.00
C422   C     0.60784   0.63444   0.31569   0.00000  Uiso   1.00
C423   C     0.54776   0.51418   0.25538   0.00000  Uiso   1.00
C424   C     0.79236   0.84556   0.48557   0.00000  Uiso   1.00
C425   C     0.80185   0.88203   0.54891   0.00000  Uiso   1.00
C426   C     0.85990   0.89056   0.60557   0.00000  Uiso   1.00
C427   C     0.94573   0.91854   0.71303   0.00000  Uiso   1.00
C428   C     0.81870   0.78044   0.40502   0.00000  Uiso   1.00
C429   C     0.81262   0.83378   0.37319   0.00000  Uiso   1.00
C430   C     0.84834   0.85506   0.34075   0.00000  Uiso   1.00
C431   C     0.83556   0.90438   0.31502   0.00000  Uiso   1.00
C432   C     0.74521   0.72306   0.37100   0.00000  Uiso   1.00
C433   C     0.72426   0.65127   0.33673   0.00000  Uiso   1.00
C434   C     0.65474   0.60738   0.30916   0.00000  Uiso   1.00
C435   C     0.83918   0.81855   0.47906   0.00000  Uiso   1.00
C436   C     0.89723   0.82701   0.53564   0.00000  Uiso   1.00
C437   C     0.90681   0.86349   0.59904   0.00000  Uiso   1.00
H438   H     0.69604   0.85119   0.42208   0.00000  Uiso   1.00
H439   H     0.71672   0.93097   0.35907   0.00000  Uiso   1.00
H440   H     0.59267   0.72720   0.35506   0.00000  Uiso   1.00
H441   H     0.76561   0.90292   0.55393   0.00000  Uiso   1.00
H442   H     0.76028   0.00748   0.28631   0.00000  Uiso   1.00
H443   H     0.49871   0.57783   0.27787   0.00000  Uiso   1.00
H444   H     0.86339   0.94837   0.69724   0.00000  Uiso   1.00
H445   H     0.85515   0.75941   0.39994   0.00000  Uiso   1.00
H446   H     0.88457   0.83415   0.33572   0.00000  Uiso   1.00
H447   H     0.76051   0.63038   0.33170   0.00000  Uiso   1.00
H448   H     0.93345   0.80610   0.53058   0.00000  Uiso   1.00
H449   H     0.89650   0.92890   0.26736   0.00000  Uiso   1.00
H450   H     0.63493   0.49924   0.25891   0.00000  Uiso   1.00
H451   H     0.99961   0.86978   0.67828   0.00000  Uiso   1.00
O452   O     0.84485   0.01900   0.23496   0.00000  Uiso   1.00
O453   O     0.50169   0.45531   0.22390   0.00000  Uiso   1.00
O454   O     0.98014   0.94145   0.77410   0.00000  Uiso   1.00
N455   N     0.78831   0.97874   0.29068   0.00000  Uiso   1.00
N456   N     0.54376   0.57704   0.28278   0.00000  Uiso   1.00
N457   N     0.88469   0.92345   0.67485   0.00000  Uiso   1.00
N458   N     0.86162   0.93646   0.28048   0.00000  Uiso   1.00
N459   N     0.61706   0.53476   0.27257   0.00000  Uiso   1.00
N460   N     0.95799   0.88116   0.66465   0.00000  Uiso   1.00
C461   C     0.74025   0.43326   0.62910   0.00000  Uiso   1.00
C462   C     0.78226   0.39010   0.64500   0.00000  Uiso   1.00
C463   C     0.81408   0.36754   0.60983   0.00000  Uiso   1.00
C464   C     0.85009   0.32862   0.63230   0.00000  Uiso   1.00
C465   C     0.91467   0.26397   0.64849   0.00000  Uiso   1.00
C466   C     0.66910   0.39045   0.61802   0.00000  Uiso   1.00
C467   C     0.60579   0.36819   0.56017   0.00000  Uiso   1.00
C468   C     0.54655   0.32957   0.55994   0.00000  Uiso   1.00
C469   C     0.43546   0.26551   0.53427   0.00000  Uiso   1.00
C470   C     0.77442   0.49934   0.69449   0.00000  Uiso   1.00
C471   C     0.79965   0.56865   0.70095   0.00000  Uiso   1.00
C472   C     0.82907   0.62171   0.76510   0.00000  Uiso   1.00
C473   C     0.88150   0.72673   0.85816   0.00000  Uiso   1.00
C474   C     0.74760   0.40425   0.73154   0.00000  Uiso   1.00
C475   C     0.78624   0.37434   0.70063   0.00000  Uiso   1.00
C476   C     0.82221   0.33545   0.72316   0.00000  Uiso   1.00
C477   C     0.85409   0.31284   0.68804   0.00000  Uiso   1.00
C478   C     0.67309   0.37469   0.67365   0.00000  Uiso   1.00
C479   C     0.61392   0.33610   0.67351   0.00000  Uiso   1.00
C480   C     0.55054   0.31379   0.61568   0.00000  Uiso   1.00
C481   C     0.77842   0.48359   0.75013   0.00000  Uiso   1.00
C482   C     0.80779   0.53656   0.81428   0.00000  Uiso   1.00
C483   C     0.83306   0.60593   0.82083   0.00000  Uiso   1.00
H484   H     0.73714   0.44552   0.58579   0.00000  Uiso   1.00
H485   H     0.81098   0.37974   0.56677   0.00000  Uiso   1.00
H486   H     0.60272   0.38040   0.51713   0.00000  Uiso   1.00
H487   H     0.79656   0.58082   0.65788   0.00000  Uiso   1.00
H488   H     0.89458   0.29984   0.57021   0.00000  Uiso   1.00
H489   H     0.45546   0.30125   0.46554   0.00000  Uiso   1.00
H490   H     0.86420   0.72388   0.76235   0.00000  Uiso   1.00
H491   H     0.75070   0.39199   0.77486   0.00000  Uiso   1.00
H492   H     0.82529   0.32327   0.76622   0.00000  Uiso   1.00
H493   H     0.61703   0.32392   0.71658   0.00000  Uiso   1.00
H494   H     0.81087   0.52435   0.85733   0.00000  Uiso   1.00
H495   H     0.90619   0.25400   0.73209   0.00000  Uiso   1.00
H496   H     0.46707   0.25541   0.62742   0.00000  Uiso   1.00
H497   H     0.87581   0.67804   0.92423   0.00000  Uiso   1.00
O498   O     0.94919   0.23266   0.64204   0.00000  Uiso   1.00
O499   O     0.37308   0.23452   0.50473   0.00000  Uiso   1.00
O500   O     0.90933   0.78900   0.89413   0.00000  Uiso   1.00
N501   N     0.88709   0.29849   0.60950   0.00000  Uiso   1.00
N502   N     0.47654   0.29980   0.51164   0.00000  Uiso   1.00
N503   N     0.85866   0.69493   0.78912   0.00000  Uiso   1.00
N504   N     0.89334   0.27383   0.69661   0.00000  Uiso   1.00
N505   N     0.48279   0.27514   0.59875   0.00000  Uiso   1.00
N506   N     0.86491   0.67026   0.87623   0.00000  Uiso   1.00
C507   C     0.46323   0.73636   0.76763   0.00000  Uiso   1.00
C508   C     0.42320   0.73763   0.80615   0.00000  Uiso   1.00
C509   C     0.40760   0.69022   0.83431   0.00000  Uiso   1.00
C510   C     0.37051   0.70037   0.86752   0.00000  Uiso   1.00
C511   C     0.31148   0.69386   0.92656   0.00000  Uiso   1.00
C512   C     0.41590   0.73271   0.69822   0.00000  Uiso   1.00
C513   C     0.39417   0.68117   0.63563   0.00000  Uiso   1.00
C514   C     0.35094   0.68719   0.57799   0.00000  Uiso   1.00
C515   C     0.28062   0.67308   0.46947   0.00000  Uiso   1.00
C516   C     0.52445   0.80886   0.80462   0.00000  Uiso   1.00
C517   C     0.59398   0.82135   0.83148   0.00000  Uiso   1.00
C518   C     0.64214   0.89147   0.86340   0.00000  Uiso   1.00
C519   C     0.74035   0.99559   0.92009   0.00000  Uiso   1.00
C520   C     0.42511   0.83868   0.77654   0.00000  Uiso   1.00
C521   C     0.40250   0.79321   0.81099   0.00000  Uiso   1.00
C522   C     0.36543   0.80343   0.84417   0.00000  Uiso   1.00
C523   C     0.34977   0.75605   0.87237   0.00000  Uiso   1.00
C524   C     0.39520   0.78829   0.70306   0.00000  Uiso   1.00
C525   C     0.35200   0.79438   0.64549   0.00000  Uiso   1.00
C526   C     0.33020   0.74287   0.58284   0.00000  Uiso   1.00
C527   C     0.50375   0.86444   0.80946   0.00000  Uiso   1.00
C528   C     0.55181   0.93456   0.84134   0.00000  Uiso   1.00
C529   C     0.62140   0.94715   0.86825   0.00000  Uiso   1.00
H530   H     0.47934   0.69309   0.76385   0.00000  Uiso   1.00
H531   H     0.42362   0.64721   0.83054   0.00000  Uiso   1.00
H532   H     0.41020   0.63818   0.63190   0.00000  Uiso   1.00
H533   H     0.60998   0.77833   0.82772   0.00000  Uiso   1.00
H534   H     0.35270   0.62085   0.90659   0.00000  Uiso   1.00
H535   H     0.32441   0.60180   0.48774   0.00000  Uiso   1.00
H536   H     0.74569   0.89734   0.90067   0.00000  Uiso   1.00
H537   H     0.40899   0.88195   0.78031   0.00000  Uiso   1.00
H538   H     0.34942   0.84644   0.84791   0.00000  Uiso   1.00
H539   H     0.33599   0.83740   0.64926   0.00000  Uiso   1.00
H540   H     0.53577   0.97755   0.84508   0.00000  Uiso   1.00
H541   H     0.29246   0.78255   0.92068   0.00000  Uiso   1.00
H542   H     0.26418   0.76350   0.50183   0.00000  Uiso   1.00
H543   H     0.68546   0.05904   0.91476   0.00000  Uiso   1.00
O544   O     0.28464   0.67491   0.95779   0.00000  Uiso   1.00
O545   O     0.24754   0.64993   0.40828   0.00000  Uiso   1.00
O546   O     0.80024   0.03767   0.95003   0.00000  Uiso   1.00
N547   N     0.34671   0.66378   0.90065   0.00000  Uiso   1.00
N548   N     0.32026   0.64597   0.50905   0.00000  Uiso   1.00
N549   N     0.71411   0.92227   0.89508   0.00000  Uiso   1.00
N550   N     0.31430   0.75079   0.90823   0.00000  Uiso   1.00
N551   N     0.28785   0.73298   0.51663   0.00000  Uiso   1.00
N552   N     0.68170   0.00928   0.90266   0.00000  Uiso   1.00
