data_job_00532
_audit_creation_date              2018-12-19
_audit_creation_method            'Materials Studio'
_symmetry_space_group_name_H-M    'P1'
_symmetry_Int_Tables_number       1
_symmetry_cell_setting            triclinic
loop_
_symmetry_equiv_pos_as_xyz
  x,y,z
_cell_length_a                    20.5193
_cell_length_b                    23.9804
_cell_length_c                    15.7789
_cell_angle_alpha                 90.0000
_cell_angle_beta                  130.6220
_cell_angle_gamma                 90.0000
loop_
_atom_site_label
_atom_site_type_symbol
_atom_site_fract_x
_atom_site_fract_y
_atom_site_fract_z
_atom_site_U_iso_or_equiv
_atom_site_adp_type
_atom_site_occupancy
C1     C     0.73513   0.62570   0.73038   0.00000  Uiso   1.00
C2     C     0.74714   0.68731   0.71973   0.00000  Uiso   1.00
C3     C     0.69904   0.73096   0.71186   0.00000  Uiso   1.00
C4     C     0.72006   0.78435   0.70267   0.00000  Uiso   1.00
C5     C     0.72853   0.87858   0.68627   0.00000  Uiso   1.00
C6     C     0.72067   0.59638   0.63358   0.00000  Uiso   1.00
C7     C     0.65032   0.56359   0.55329   0.00000  Uiso   1.00
C8     C     0.64906   0.54043   0.47158   0.00000  Uiso   1.00
C9     C     0.61647   0.49347   0.32147   0.00000  Uiso   1.00
C10    C     0.82175   0.60519   0.83622   0.00000  Uiso   1.00
C11    C     0.83640   0.57978   0.92631   0.00000  Uiso   1.00
C12    C     0.92024   0.56403   0.01521   0.00000  Uiso   1.00
C13    C     0.04460   0.53075   0.17975   0.00000  Uiso   1.00
C14    C     0.85799   0.64289   0.72805   0.00000  Uiso   1.00
C15    C     0.81387   0.69664   0.71846   0.00000  Uiso   1.00
C16    C     0.83497   0.74998   0.70928   0.00000  Uiso   1.00
C17    C     0.78691   0.79370   0.70141   0.00000  Uiso   1.00
C18    C     0.78740   0.60572   0.63231   0.00000  Uiso   1.00
C19    C     0.78625   0.58260   0.55071   0.00000  Uiso   1.00
C20    C     0.71591   0.54978   0.47031   0.00000  Uiso   1.00
C21    C     0.88849   0.61453   0.83496   0.00000  Uiso   1.00
C22    C     0.97233   0.59881   0.92373   0.00000  Uiso   1.00
C23    C     0.98709   0.57339   0.01394   0.00000  Uiso   1.00
H24    H     0.68317   0.61843   0.73136   0.00000  Uiso   1.00
H25    H     0.64740   0.72372   0.71283   0.00000  Uiso   1.00
H26    H     0.59869   0.55636   0.55429   0.00000  Uiso   1.00
H27    H     0.78474   0.57257   0.92726   0.00000  Uiso   1.00
H28    H     0.63714   0.84456   0.69170   0.00000  Uiso   1.00
H29    H     0.53446   0.49168   0.35742   0.00000  Uiso   1.00
H30    H     0.92678   0.52584   0.14390   0.00000  Uiso   1.00
H31    H     0.90994   0.65016   0.72706   0.00000  Uiso   1.00
H32    H     0.88662   0.75719   0.70830   0.00000  Uiso   1.00
H33    H     0.83791   0.58984   0.54976   0.00000  Uiso   1.00
H34    H     0.02395   0.60604   0.92273   0.00000  Uiso   1.00
H35    H     0.83130   0.87173   0.68801   0.00000  Uiso   1.00
H36    H     0.72861   0.51884   0.35374   0.00000  Uiso   1.00
H37    H     0.12093   0.55301   0.14022   0.00000  Uiso   1.00
O38    O     0.71477   0.92798   0.67755   0.00000  Uiso   1.00
O39    O     0.58005   0.46500   0.23902   0.00000  Uiso   1.00
O40    O     0.09476   0.50982   0.27086   0.00000  Uiso   1.00
N41    N     0.68605   0.83627   0.69343   0.00000  Uiso   1.00
N42    N     0.59004   0.50635   0.38089   0.00000  Uiso   1.00
N43    N     0.95682   0.53827   0.11617   0.00000  Uiso   1.00
N44    N     0.79053   0.85089   0.69145   0.00000  Uiso   1.00
N45    N     0.69451   0.52097   0.37891   0.00000  Uiso   1.00
N46    N     0.06129   0.55289   0.11419   0.00000  Uiso   1.00
C47    C     0.23513   0.12570   0.73038   0.00000  Uiso   1.00
C48    C     0.24714   0.18731   0.71973   0.00000  Uiso   1.00
C49    C     0.19904   0.23096   0.71186   0.00000  Uiso   1.00
C50    C     0.22006   0.28435   0.70267   0.00000  Uiso   1.00
C51    C     0.22853   0.37858   0.68627   0.00000  Uiso   1.00
C52    C     0.22067   0.09638   0.63358   0.00000  Uiso   1.00
C53    C     0.15032   0.06359   0.55329   0.00000  Uiso   1.00
C54    C     0.14906   0.04043   0.47158   0.00000  Uiso   1.00
C55    C     0.11647   0.99347   0.32147   0.00000  Uiso   1.00
C56    C     0.32175   0.10519   0.83622   0.00000  Uiso   1.00
C57    C     0.33640   0.07978   0.92631   0.00000  Uiso   1.00
C58    C     0.42024   0.06403   0.01521   0.00000  Uiso   1.00
C59    C     0.54460   0.03075   0.17975   0.00000  Uiso   1.00
C60    C     0.35799   0.14289   0.72805   0.00000  Uiso   1.00
C61    C     0.31387   0.19664   0.71846   0.00000  Uiso   1.00
C62    C     0.33497   0.24998   0.70928   0.00000  Uiso   1.00
C63    C     0.28691   0.29370   0.70141   0.00000  Uiso   1.00
C64    C     0.28740   0.10572   0.63231   0.00000  Uiso   1.00
C65    C     0.28625   0.08260   0.55071   0.00000  Uiso   1.00
C66    C     0.21591   0.04978   0.47031   0.00000  Uiso   1.00
C67    C     0.38849   0.11453   0.83496   0.00000  Uiso   1.00
C68    C     0.47233   0.09881   0.92373   0.00000  Uiso   1.00
C69    C     0.48709   0.07339   0.01394   0.00000  Uiso   1.00
H70    H     0.18317   0.11843   0.73136   0.00000  Uiso   1.00
H71    H     0.14740   0.22372   0.71283   0.00000  Uiso   1.00
H72    H     0.09869   0.05636   0.55429   0.00000  Uiso   1.00
H73    H     0.28474   0.07257   0.92726   0.00000  Uiso   1.00
H74    H     0.13714   0.34456   0.69170   0.00000  Uiso   1.00
H75    H     0.03446   0.99168   0.35742   0.00000  Uiso   1.00
H76    H     0.42678   0.02584   0.14390   0.00000  Uiso   1.00
H77    H     0.40994   0.15016   0.72706   0.00000  Uiso   1.00
H78    H     0.38662   0.25719   0.70830   0.00000  Uiso   1.00
H79    H     0.33791   0.08984   0.54976   0.00000  Uiso   1.00
H80    H     0.52395   0.10604   0.92273   0.00000  Uiso   1.00
H81    H     0.33130   0.37173   0.68801   0.00000  Uiso   1.00
H82    H     0.22861   0.01884   0.35374   0.00000  Uiso   1.00
H83    H     0.62093   0.05301   0.14022   0.00000  Uiso   1.00
O84    O     0.21477   0.42798   0.67755   0.00000  Uiso   1.00
O85    O     0.08005   0.96500   0.23902   0.00000  Uiso   1.00
O86    O     0.59476   0.00982   0.27086   0.00000  Uiso   1.00
N87    N     0.18605   0.33627   0.69343   0.00000  Uiso   1.00
N88    N     0.09004   0.00635   0.38089   0.00000  Uiso   1.00
N89    N     0.45682   0.03827   0.11617   0.00000  Uiso   1.00
N90    N     0.29053   0.35089   0.69145   0.00000  Uiso   1.00
N91    N     0.19451   0.02097   0.37891   0.00000  Uiso   1.00
N92    N     0.56129   0.05289   0.11419   0.00000  Uiso   1.00
C93    C     0.26487   0.62570   0.76962   0.00000  Uiso   1.00
C94    C     0.25286   0.68731   0.78027   0.00000  Uiso   1.00
C95    C     0.30096   0.73096   0.78814   0.00000  Uiso   1.00
C96    C     0.27994   0.78435   0.79733   0.00000  Uiso   1.00
C97    C     0.27147   0.87858   0.81373   0.00000  Uiso   1.00
C98    C     0.27933   0.59638   0.86642   0.00000  Uiso   1.00
C99    C     0.34968   0.56359   0.94671   0.00000  Uiso   1.00
C100   C     0.35094   0.54043   0.02842   0.00000  Uiso   1.00
C101   C     0.38353   0.49347   0.17853   0.00000  Uiso   1.00
C102   C     0.17825   0.60519   0.66378   0.00000  Uiso   1.00
C103   C     0.16360   0.57978   0.57369   0.00000  Uiso   1.00
C104   C     0.07976   0.56403   0.48479   0.00000  Uiso   1.00
C105   C     0.95540   0.53075   0.32025   0.00000  Uiso   1.00
C106   C     0.14201   0.64289   0.77195   0.00000  Uiso   1.00
C107   C     0.18613   0.69664   0.78154   0.00000  Uiso   1.00
C108   C     0.16503   0.74998   0.79072   0.00000  Uiso   1.00
C109   C     0.21309   0.79370   0.79859   0.00000  Uiso   1.00
C110   C     0.21260   0.60572   0.86769   0.00000  Uiso   1.00
C111   C     0.21375   0.58260   0.94929   0.00000  Uiso   1.00
C112   C     0.28409   0.54978   0.02969   0.00000  Uiso   1.00
C113   C     0.11151   0.61453   0.66504   0.00000  Uiso   1.00
C114   C     0.02767   0.59881   0.57627   0.00000  Uiso   1.00
C115   C     0.01291   0.57339   0.48606   0.00000  Uiso   1.00
H116   H     0.31683   0.61843   0.76864   0.00000  Uiso   1.00
H117   H     0.35260   0.72372   0.78717   0.00000  Uiso   1.00
H118   H     0.40131   0.55636   0.94571   0.00000  Uiso   1.00
H119   H     0.21526   0.57257   0.57274   0.00000  Uiso   1.00
H120   H     0.36286   0.84456   0.80830   0.00000  Uiso   1.00
H121   H     0.46554   0.49168   0.14258   0.00000  Uiso   1.00
H122   H     0.07322   0.52584   0.35610   0.00000  Uiso   1.00
H123   H     0.09006   0.65016   0.77294   0.00000  Uiso   1.00
H124   H     0.11338   0.75719   0.79170   0.00000  Uiso   1.00
H125   H     0.16209   0.58984   0.95024   0.00000  Uiso   1.00
H126   H     0.97605   0.60604   0.57727   0.00000  Uiso   1.00
H127   H     0.16870   0.87173   0.81199   0.00000  Uiso   1.00
H128   H     0.27139   0.51884   0.14626   0.00000  Uiso   1.00
H129   H     0.87907   0.55301   0.35978   0.00000  Uiso   1.00
O130   O     0.28523   0.92798   0.82245   0.00000  Uiso   1.00
O131   O     0.41995   0.46500   0.26098   0.00000  Uiso   1.00
O132   O     0.90524   0.50982   0.22914   0.00000  Uiso   1.00
N133   N     0.31395   0.83627   0.80657   0.00000  Uiso   1.00
N134   N     0.40996   0.50635   0.11911   0.00000  Uiso   1.00
N135   N     0.04318   0.53827   0.38383   0.00000  Uiso   1.00
N136   N     0.20947   0.85089   0.80855   0.00000  Uiso   1.00
N137   N     0.30549   0.52097   0.12109   0.00000  Uiso   1.00
N138   N     0.93871   0.55289   0.38581   0.00000  Uiso   1.00
C139   C     0.76487   0.12570   0.76962   0.00000  Uiso   1.00
C140   C     0.75286   0.18731   0.78027   0.00000  Uiso   1.00
C141   C     0.80096   0.23096   0.78814   0.00000  Uiso   1.00
C142   C     0.77994   0.28435   0.79733   0.00000  Uiso   1.00
C143   C     0.77147   0.37858   0.81373   0.00000  Uiso   1.00
C144   C     0.77933   0.09638   0.86642   0.00000  Uiso   1.00
C145   C     0.84968   0.06359   0.94671   0.00000  Uiso   1.00
C146   C     0.85094   0.04043   0.02842   0.00000  Uiso   1.00
C147   C     0.88353   0.99347   0.17853   0.00000  Uiso   1.00
C148   C     0.67825   0.10519   0.66378   0.00000  Uiso   1.00
C149   C     0.66360   0.07978   0.57369   0.00000  Uiso   1.00
C150   C     0.57976   0.06403   0.48479   0.00000  Uiso   1.00
C151   C     0.45540   0.03075   0.32025   0.00000  Uiso   1.00
C152   C     0.64201   0.14289   0.77195   0.00000  Uiso   1.00
C153   C     0.68613   0.19664   0.78154   0.00000  Uiso   1.00
C154   C     0.66503   0.24998   0.79072   0.00000  Uiso   1.00
C155   C     0.71309   0.29370   0.79859   0.00000  Uiso   1.00
C156   C     0.71260   0.10572   0.86769   0.00000  Uiso   1.00
C157   C     0.71375   0.08260   0.94929   0.00000  Uiso   1.00
C158   C     0.78409   0.04978   0.02969   0.00000  Uiso   1.00
C159   C     0.61151   0.11453   0.66504   0.00000  Uiso   1.00
C160   C     0.52767   0.09881   0.57627   0.00000  Uiso   1.00
C161   C     0.51291   0.07339   0.48606   0.00000  Uiso   1.00
H162   H     0.81683   0.11843   0.76864   0.00000  Uiso   1.00
H163   H     0.85260   0.22372   0.78717   0.00000  Uiso   1.00
H164   H     0.90131   0.05636   0.94571   0.00000  Uiso   1.00
H165   H     0.71526   0.07257   0.57274   0.00000  Uiso   1.00
H166   H     0.86286   0.34456   0.80830   0.00000  Uiso   1.00
H167   H     0.96554   0.99168   0.14258   0.00000  Uiso   1.00
H168   H     0.57322   0.02584   0.35610   0.00000  Uiso   1.00
H169   H     0.59006   0.15016   0.77294   0.00000  Uiso   1.00
H170   H     0.61338   0.25719   0.79170   0.00000  Uiso   1.00
H171   H     0.66209   0.08984   0.95024   0.00000  Uiso   1.00
H172   H     0.47605   0.10604   0.57727   0.00000  Uiso   1.00
H173   H     0.66870   0.37173   0.81199   0.00000  Uiso   1.00
H174   H     0.77139   0.01884   0.14626   0.00000  Uiso   1.00
H175   H     0.37907   0.05301   0.35978   0.00000  Uiso   1.00
O176   O     0.78523   0.42798   0.82245   0.00000  Uiso   1.00
O177   O     0.91995   0.96500   0.26098   0.00000  Uiso   1.00
O178   O     0.40524   0.00982   0.22914   0.00000  Uiso   1.00
N179   N     0.81395   0.33627   0.80657   0.00000  Uiso   1.00
N180   N     0.90996   0.00635   0.11911   0.00000  Uiso   1.00
N181   N     0.54318   0.03827   0.38383   0.00000  Uiso   1.00
N182   N     0.70947   0.35089   0.80855   0.00000  Uiso   1.00
N183   N     0.80549   0.02097   0.12109   0.00000  Uiso   1.00
N184   N     0.43871   0.05289   0.38581   0.00000  Uiso   1.00
C185   C     0.26487   0.37430   0.26962   0.00000  Uiso   1.00
C186   C     0.25286   0.31269   0.28027   0.00000  Uiso   1.00
C187   C     0.30096   0.26904   0.28814   0.00000  Uiso   1.00
C188   C     0.27994   0.21565   0.29733   0.00000  Uiso   1.00
C189   C     0.27147   0.12142   0.31373   0.00000  Uiso   1.00
C190   C     0.27933   0.40362   0.36642   0.00000  Uiso   1.00
C191   C     0.34968   0.43641   0.44671   0.00000  Uiso   1.00
C192   C     0.35094   0.45957   0.52842   0.00000  Uiso   1.00
C193   C     0.38353   0.50653   0.67853   0.00000  Uiso   1.00
C194   C     0.17825   0.39481   0.16378   0.00000  Uiso   1.00
C195   C     0.16360   0.42022   0.07369   0.00000  Uiso   1.00
C196   C     0.07976   0.43597   0.98479   0.00000  Uiso   1.00
C197   C     0.95540   0.46925   0.82025   0.00000  Uiso   1.00
C198   C     0.14201   0.35711   0.27195   0.00000  Uiso   1.00
C199   C     0.18613   0.30336   0.28154   0.00000  Uiso   1.00
C200   C     0.16503   0.25002   0.29072   0.00000  Uiso   1.00
C201   C     0.21309   0.20630   0.29859   0.00000  Uiso   1.00
C202   C     0.21260   0.39428   0.36769   0.00000  Uiso   1.00
C203   C     0.21375   0.41740   0.44929   0.00000  Uiso   1.00
C204   C     0.28409   0.45022   0.52969   0.00000  Uiso   1.00
C205   C     0.11151   0.38547   0.16504   0.00000  Uiso   1.00
C206   C     0.02767   0.40119   0.07627   0.00000  Uiso   1.00
C207   C     0.01291   0.42661   0.98606   0.00000  Uiso   1.00
H208   H     0.31683   0.38157   0.26864   0.00000  Uiso   1.00
H209   H     0.35260   0.27628   0.28717   0.00000  Uiso   1.00
H210   H     0.40131   0.44364   0.44571   0.00000  Uiso   1.00
H211   H     0.21526   0.42743   0.07274   0.00000  Uiso   1.00
H212   H     0.36286   0.15544   0.30830   0.00000  Uiso   1.00
H213   H     0.46554   0.50832   0.64258   0.00000  Uiso   1.00
H214   H     0.07322   0.47416   0.85610   0.00000  Uiso   1.00
H215   H     0.09006   0.34984   0.27294   0.00000  Uiso   1.00
H216   H     0.11338   0.24281   0.29170   0.00000  Uiso   1.00
H217   H     0.16209   0.41016   0.45024   0.00000  Uiso   1.00
H218   H     0.97605   0.39396   0.07727   0.00000  Uiso   1.00
H219   H     0.16870   0.12827   0.31199   0.00000  Uiso   1.00
H220   H     0.27139   0.48116   0.64626   0.00000  Uiso   1.00
H221   H     0.87907   0.44699   0.85978   0.00000  Uiso   1.00
O222   O     0.28523   0.07202   0.32245   0.00000  Uiso   1.00
O223   O     0.41995   0.53500   0.76098   0.00000  Uiso   1.00
O224   O     0.90524   0.49018   0.72914   0.00000  Uiso   1.00
N225   N     0.31395   0.16373   0.30657   0.00000  Uiso   1.00
N226   N     0.40996   0.49365   0.61911   0.00000  Uiso   1.00
N227   N     0.04318   0.46173   0.88383   0.00000  Uiso   1.00
N228   N     0.20947   0.14911   0.30855   0.00000  Uiso   1.00
N229   N     0.30549   0.47903   0.62109   0.00000  Uiso   1.00
N230   N     0.93871   0.44711   0.88581   0.00000  Uiso   1.00
C231   C     0.76487   0.87430   0.26962   0.00000  Uiso   1.00
C232   C     0.75286   0.81269   0.28027   0.00000  Uiso   1.00
C233   C     0.80096   0.76904   0.28814   0.00000  Uiso   1.00
C234   C     0.77994   0.71565   0.29733   0.00000  Uiso   1.00
C235   C     0.77147   0.62142   0.31373   0.00000  Uiso   1.00
C236   C     0.77933   0.90362   0.36642   0.00000  Uiso   1.00
C237   C     0.84968   0.93641   0.44671   0.00000  Uiso   1.00
C238   C     0.85094   0.95957   0.52842   0.00000  Uiso   1.00
C239   C     0.88353   0.00653   0.67853   0.00000  Uiso   1.00
C240   C     0.67825   0.89481   0.16378   0.00000  Uiso   1.00
C241   C     0.66360   0.92022   0.07369   0.00000  Uiso   1.00
C242   C     0.57976   0.93597   0.98479   0.00000  Uiso   1.00
C243   C     0.45540   0.96925   0.82025   0.00000  Uiso   1.00
C244   C     0.64201   0.85711   0.27195   0.00000  Uiso   1.00
C245   C     0.68613   0.80336   0.28154   0.00000  Uiso   1.00
C246   C     0.66503   0.75002   0.29072   0.00000  Uiso   1.00
C247   C     0.71309   0.70630   0.29859   0.00000  Uiso   1.00
C248   C     0.71260   0.89428   0.36769   0.00000  Uiso   1.00
C249   C     0.71375   0.91740   0.44929   0.00000  Uiso   1.00
C250   C     0.78409   0.95022   0.52969   0.00000  Uiso   1.00
C251   C     0.61151   0.88547   0.16504   0.00000  Uiso   1.00
C252   C     0.52767   0.90119   0.07627   0.00000  Uiso   1.00
C253   C     0.51291   0.92661   0.98606   0.00000  Uiso   1.00
H254   H     0.81683   0.88157   0.26864   0.00000  Uiso   1.00
H255   H     0.85260   0.77628   0.28717   0.00000  Uiso   1.00
H256   H     0.90131   0.94364   0.44571   0.00000  Uiso   1.00
H257   H     0.71526   0.92743   0.07274   0.00000  Uiso   1.00
H258   H     0.86286   0.65544   0.30830   0.00000  Uiso   1.00
H259   H     0.96554   0.00832   0.64258   0.00000  Uiso   1.00
H260   H     0.57322   0.97416   0.85610   0.00000  Uiso   1.00
H261   H     0.59006   0.84984   0.27294   0.00000  Uiso   1.00
H262   H     0.61338   0.74281   0.29170   0.00000  Uiso   1.00
H263   H     0.66209   0.91016   0.45024   0.00000  Uiso   1.00
H264   H     0.47605   0.89396   0.07727   0.00000  Uiso   1.00
H265   H     0.66870   0.62827   0.31199   0.00000  Uiso   1.00
H266   H     0.77139   0.98116   0.64626   0.00000  Uiso   1.00
H267   H     0.37907   0.94699   0.85978   0.00000  Uiso   1.00
O268   O     0.78523   0.57202   0.32245   0.00000  Uiso   1.00
O269   O     0.91995   0.03500   0.76098   0.00000  Uiso   1.00
O270   O     0.40524   0.99018   0.72914   0.00000  Uiso   1.00
N271   N     0.81395   0.66373   0.30657   0.00000  Uiso   1.00
N272   N     0.90996   0.99365   0.61911   0.00000  Uiso   1.00
N273   N     0.54318   0.96173   0.88383   0.00000  Uiso   1.00
N274   N     0.70947   0.64911   0.30855   0.00000  Uiso   1.00
N275   N     0.80549   0.97903   0.62109   0.00000  Uiso   1.00
N276   N     0.43871   0.94711   0.88581   0.00000  Uiso   1.00
C277   C     0.73513   0.37430   0.23038   0.00000  Uiso   1.00
C278   C     0.74714   0.31269   0.21973   0.00000  Uiso   1.00
C279   C     0.69904   0.26904   0.21186   0.00000  Uiso   1.00
C280   C     0.72006   0.21565   0.20267   0.00000  Uiso   1.00
C281   C     0.72853   0.12142   0.18627   0.00000  Uiso   1.00
C282   C     0.72067   0.40362   0.13358   0.00000  Uiso   1.00
C283   C     0.65032   0.43641   0.05329   0.00000  Uiso   1.00
C284   C     0.64906   0.45957   0.97158   0.00000  Uiso   1.00
C285   C     0.61647   0.50653   0.82147   0.00000  Uiso   1.00
C286   C     0.82175   0.39481   0.33622   0.00000  Uiso   1.00
C287   C     0.83640   0.42022   0.42631   0.00000  Uiso   1.00
C288   C     0.92024   0.43597   0.51521   0.00000  Uiso   1.00
C289   C     0.04460   0.46925   0.67975   0.00000  Uiso   1.00
C290   C     0.85799   0.35711   0.22805   0.00000  Uiso   1.00
C291   C     0.81387   0.30336   0.21846   0.00000  Uiso   1.00
C292   C     0.83497   0.25002   0.20928   0.00000  Uiso   1.00
C293   C     0.78691   0.20630   0.20141   0.00000  Uiso   1.00
C294   C     0.78740   0.39428   0.13231   0.00000  Uiso   1.00
C295   C     0.78625   0.41740   0.05071   0.00000  Uiso   1.00
C296   C     0.71591   0.45022   0.97031   0.00000  Uiso   1.00
C297   C     0.88849   0.38547   0.33496   0.00000  Uiso   1.00
C298   C     0.97233   0.40119   0.42373   0.00000  Uiso   1.00
C299   C     0.98709   0.42661   0.51394   0.00000  Uiso   1.00
H300   H     0.68317   0.38157   0.23136   0.00000  Uiso   1.00
H301   H     0.64740   0.27628   0.21283   0.00000  Uiso   1.00
H302   H     0.59869   0.44364   0.05429   0.00000  Uiso   1.00
H303   H     0.78474   0.42743   0.42726   0.00000  Uiso   1.00
H304   H     0.63714   0.15544   0.19170   0.00000  Uiso   1.00
H305   H     0.53446   0.50832   0.85742   0.00000  Uiso   1.00
H306   H     0.92678   0.47416   0.64390   0.00000  Uiso   1.00
H307   H     0.90994   0.34984   0.22706   0.00000  Uiso   1.00
H308   H     0.88662   0.24281   0.20830   0.00000  Uiso   1.00
H309   H     0.83791   0.41016   0.04976   0.00000  Uiso   1.00
H310   H     0.02395   0.39396   0.42273   0.00000  Uiso   1.00
H311   H     0.83130   0.12827   0.18801   0.00000  Uiso   1.00
H312   H     0.72861   0.48116   0.85374   0.00000  Uiso   1.00
H313   H     0.12093   0.44699   0.64022   0.00000  Uiso   1.00
O314   O     0.71477   0.07202   0.17755   0.00000  Uiso   1.00
O315   O     0.58005   0.53500   0.73902   0.00000  Uiso   1.00
O316   O     0.09476   0.49018   0.77086   0.00000  Uiso   1.00
N317   N     0.68605   0.16373   0.19343   0.00000  Uiso   1.00
N318   N     0.59004   0.49365   0.88089   0.00000  Uiso   1.00
N319   N     0.95682   0.46173   0.61617   0.00000  Uiso   1.00
N320   N     0.79053   0.14911   0.19145   0.00000  Uiso   1.00
N321   N     0.69451   0.47903   0.87891   0.00000  Uiso   1.00
N322   N     0.06129   0.44711   0.61419   0.00000  Uiso   1.00
C323   C     0.23513   0.87430   0.23038   0.00000  Uiso   1.00
C324   C     0.24714   0.81269   0.21973   0.00000  Uiso   1.00
C325   C     0.19904   0.76904   0.21186   0.00000  Uiso   1.00
C326   C     0.22006   0.71565   0.20267   0.00000  Uiso   1.00
C327   C     0.22853   0.62142   0.18627   0.00000  Uiso   1.00
C328   C     0.22067   0.90362   0.13358   0.00000  Uiso   1.00
C329   C     0.15032   0.93641   0.05329   0.00000  Uiso   1.00
C330   C     0.14906   0.95957   0.97158   0.00000  Uiso   1.00
C331   C     0.11647   0.00653   0.82147   0.00000  Uiso   1.00
C332   C     0.32175   0.89481   0.33622   0.00000  Uiso   1.00
C333   C     0.33640   0.92022   0.42631   0.00000  Uiso   1.00
C334   C     0.42024   0.93597   0.51521   0.00000  Uiso   1.00
C335   C     0.54460   0.96925   0.67975   0.00000  Uiso   1.00
C336   C     0.35799   0.85711   0.22805   0.00000  Uiso   1.00
C337   C     0.31387   0.80336   0.21846   0.00000  Uiso   1.00
C338   C     0.33497   0.75002   0.20928   0.00000  Uiso   1.00
C339   C     0.28691   0.70630   0.20141   0.00000  Uiso   1.00
C340   C     0.28740   0.89428   0.13231   0.00000  Uiso   1.00
C341   C     0.28625   0.91740   0.05071   0.00000  Uiso   1.00
C342   C     0.21591   0.95022   0.97031   0.00000  Uiso   1.00
C343   C     0.38849   0.88547   0.33496   0.00000  Uiso   1.00
C344   C     0.47233   0.90119   0.42373   0.00000  Uiso   1.00
C345   C     0.48709   0.92661   0.51394   0.00000  Uiso   1.00
H346   H     0.18317   0.88157   0.23136   0.00000  Uiso   1.00
H347   H     0.14740   0.77628   0.21283   0.00000  Uiso   1.00
H348   H     0.09869   0.94364   0.05429   0.00000  Uiso   1.00
H349   H     0.28474   0.92743   0.42726   0.00000  Uiso   1.00
H350   H     0.13714   0.65544   0.19170   0.00000  Uiso   1.00
H351   H     0.03446   0.00832   0.85742   0.00000  Uiso   1.00
H352   H     0.42678   0.97416   0.64390   0.00000  Uiso   1.00
H353   H     0.40994   0.84984   0.22706   0.00000  Uiso   1.00
H354   H     0.38662   0.74281   0.20830   0.00000  Uiso   1.00
H355   H     0.33791   0.91016   0.04976   0.00000  Uiso   1.00
H356   H     0.52395   0.89396   0.42273   0.00000  Uiso   1.00
H357   H     0.33130   0.62827   0.18801   0.00000  Uiso   1.00
H358   H     0.22861   0.98116   0.85374   0.00000  Uiso   1.00
H359   H     0.62093   0.94699   0.64022   0.00000  Uiso   1.00
O360   O     0.21477   0.57202   0.17755   0.00000  Uiso   1.00
O361   O     0.08005   0.03500   0.73902   0.00000  Uiso   1.00
O362   O     0.59476   0.99018   0.77086   0.00000  Uiso   1.00
N363   N     0.18605   0.66373   0.19343   0.00000  Uiso   1.00
N364   N     0.09004   0.99365   0.88089   0.00000  Uiso   1.00
N365   N     0.45682   0.96173   0.61617   0.00000  Uiso   1.00
N366   N     0.29053   0.64911   0.19145   0.00000  Uiso   1.00
N367   N     0.19451   0.97903   0.87891   0.00000  Uiso   1.00
N368   N     0.56129   0.94711   0.61419   0.00000  Uiso   1.00
