data_job_06231
_audit_creation_date              2018-12-19
_audit_creation_method            'Materials Studio'
_symmetry_space_group_name_H-M    'P1'
_symmetry_Int_Tables_number       1
_symmetry_cell_setting            triclinic
loop_
_symmetry_equiv_pos_as_xyz
  x,y,z
_cell_length_a                    17.0244
_cell_length_b                    16.2312
_cell_length_c                    15.9659
_cell_angle_alpha                 98.0355
_cell_angle_beta                  97.1482
_cell_angle_gamma                 97.6052
loop_
_atom_site_label
_atom_site_type_symbol
_atom_site_fract_x
_atom_site_fract_y
_atom_site_fract_z
_atom_site_U_iso_or_equiv
_atom_site_adp_type
_atom_site_occupancy
C1     C     0.10061   0.20227   0.75906   0.00000  Uiso   1.00
C2     C     0.18799   0.20230   0.79468   0.00000  Uiso   1.00
C3     C     0.22494   0.23745   0.87667   0.00000  Uiso   1.00
C4     C     0.30535   0.23091   0.89690   0.00000  Uiso   1.00
C5     C     0.43466   0.23713   0.96128   0.00000  Uiso   1.00
C6     C     0.10196   0.24349   0.67898   0.00000  Uiso   1.00
C7     C     0.06657   0.31325   0.66368   0.00000  Uiso   1.00
C8     C     0.07456   0.34137   0.58650   0.00000  Uiso   1.00
C9     C     0.07027   0.41149   0.47121   0.00000  Uiso   1.00
C10    C     0.06471   0.11023   0.72823   0.00000  Uiso   1.00
C11    C     0.99799   0.06795   0.75432   0.00000  Uiso   1.00
C12    C     0.97460   0.98389   0.71859   0.00000  Uiso   1.00
C13    C     0.91248   0.84711   0.67978   0.00000  Uiso   1.00
C14    C     0.17771   0.12815   0.64920   0.00000  Uiso   1.00
C15    C     0.22986   0.16205   0.73501   0.00000  Uiso   1.00
C16    C     0.31024   0.15545   0.75512   0.00000  Uiso   1.00
C17    C     0.34730   0.19058   0.83712   0.00000  Uiso   1.00
C18    C     0.14384   0.20323   0.61930   0.00000  Uiso   1.00
C19    C     0.15187   0.23125   0.54213   0.00000  Uiso   1.00
C20    C     0.11651   0.30105   0.52672   0.00000  Uiso   1.00
C21    C     0.10659   0.06997   0.66856   0.00000  Uiso   1.00
C22    C     0.08330   0.98596   0.63277   0.00000  Uiso   1.00
C23    C     0.01656   0.94356   0.65881   0.00000  Uiso   1.00
H24    H     0.06800   0.23361   0.80552   0.00000  Uiso   1.00
H25    H     0.19251   0.26860   0.92283   0.00000  Uiso   1.00
H26    H     0.03416   0.34438   0.70987   0.00000  Uiso   1.00
H27    H     0.96560   0.09913   0.80050   0.00000  Uiso   1.00
H28    H     0.34902   0.28967   0.02657   0.00000  Uiso   1.00
H29    H     0.01512   0.44944   0.57751   0.00000  Uiso   1.00
H30    H     0.87053   0.93227   0.76863   0.00000  Uiso   1.00
H31    H     0.21031   0.09681   0.60273   0.00000  Uiso   1.00
H32    H     0.34263   0.12430   0.70893   0.00000  Uiso   1.00
H33    H     0.18428   0.20008   0.49596   0.00000  Uiso   1.00
H34    H     0.11572   0.95483   0.58660   0.00000  Uiso   1.00
H35    H     0.47087   0.17255   0.85296   0.00000  Uiso   1.00
H36    H     0.13696   0.33233   0.40389   0.00000  Uiso   1.00
H37    H     0.99237   0.81516   0.59502   0.00000  Uiso   1.00
O38    O     0.49443   0.25168   0.01327   0.00000  Uiso   1.00
O39    O     0.05634   0.46129   0.42411   0.00000  Uiso   1.00
O40    O     0.86665   0.78278   0.67486   0.00000  Uiso   1.00
N41    N     0.35954   0.25832   0.97114   0.00000  Uiso   1.00
N42    N     0.04737   0.40771   0.55130   0.00000  Uiso   1.00
N43    N     0.91218   0.92420   0.72997   0.00000  Uiso   1.00
N44    N     0.42510   0.19530   0.87772   0.00000  Uiso   1.00
N45    N     0.11293   0.34469   0.45788   0.00000  Uiso   1.00
N46    N     0.97774   0.86118   0.63655   0.00000  Uiso   1.00
C47    C     0.75245   0.09581   0.19994   0.00000  Uiso   1.00
C48    C     0.78751   0.18735   0.20032   0.00000  Uiso   1.00
C49    C     0.86488   0.22512   0.23486   0.00000  Uiso   1.00
C50    C     0.88541   0.30953   0.22878   0.00000  Uiso   1.00
C51    C     0.94818   0.44484   0.23538   0.00000  Uiso   1.00
C52    C     0.67781   0.09831   0.24347   0.00000  Uiso   1.00
C53    C     0.66294   0.06121   0.31429   0.00000  Uiso   1.00
C54    C     0.59111   0.07067   0.34453   0.00000  Uiso   1.00
C55    C     0.48354   0.06769   0.41808   0.00000  Uiso   1.00
C56    C     0.72274   0.05848   0.10654   0.00000  Uiso   1.00
C57    C     0.74564   0.98788   0.06222   0.00000  Uiso   1.00
C58    C     0.71163   0.96379   0.97717   0.00000  Uiso   1.00
C59    C     0.67384   0.89897   0.83812   0.00000  Uiso   1.00
C60    C     0.65133   0.17855   0.12772   0.00000  Uiso   1.00
C61    C     0.73258   0.23229   0.16110   0.00000  Uiso   1.00
C62    C     0.75300   0.31666   0.15496   0.00000  Uiso   1.00
C63    C     0.83039   0.35456   0.18949   0.00000  Uiso   1.00
C64    C     0.62288   0.14325   0.20425   0.00000  Uiso   1.00
C65    C     0.55106   0.15276   0.23439   0.00000  Uiso   1.00
C66    C     0.53608   0.11569   0.30523   0.00000  Uiso   1.00
C67    C     0.66782   0.10342   0.06731   0.00000  Uiso   1.00
C68    C     0.63376   0.07943   0.98232   0.00000  Uiso   1.00
C69    C     0.65660   0.00881   0.93788   0.00000  Uiso   1.00
H70    H     0.79521   0.06082   0.23048   0.00000  Uiso   1.00
H71    H     0.90737   0.19032   0.26522   0.00000  Uiso   1.00
H72    H     0.70545   0.02643   0.34462   0.00000  Uiso   1.00
H73    H     0.78814   0.95312   0.09259   0.00000  Uiso   1.00
H74    H     0.00748   0.35373   0.28646   0.00000  Uiso   1.00
H75    H     0.58172   0.00813   0.45387   0.00000  Uiso   1.00
H76    H     0.75609   0.85352   0.92242   0.00000  Uiso   1.00
H77    H     0.60856   0.21354   0.09718   0.00000  Uiso   1.00
H78    H     0.71048   0.35143   0.12460   0.00000  Uiso   1.00
H79    H     0.50856   0.18753   0.20401   0.00000  Uiso   1.00
H80    H     0.59126   0.11422   0.95199   0.00000  Uiso   1.00
H81    H     0.84768   0.48448   0.17234   0.00000  Uiso   1.00
H82    H     0.42191   0.13888   0.33975   0.00000  Uiso   1.00
H83    H     0.59629   0.98428   0.80830   0.00000  Uiso   1.00
O84    O     0.99798   0.50706   0.24987   0.00000  Uiso   1.00
O85    O     0.43939   0.05364   0.46950   0.00000  Uiso   1.00
O86    O     0.66817   0.85081   0.77225   0.00000  Uiso   1.00
N87    N     0.95589   0.36557   0.25582   0.00000  Uiso   1.00
N88    N     0.55783   0.04247   0.41235   0.00000  Uiso   1.00
N89    N     0.72084   0.89792   0.91550   0.00000  Uiso   1.00
N90    N     0.86990   0.43593   0.19441   0.00000  Uiso   1.00
N91    N     0.47184   0.11283   0.35095   0.00000  Uiso   1.00
N92    N     0.63485   0.96828   0.85409   0.00000  Uiso   1.00
C93    C     0.20084   0.75627   0.09545   0.00000  Uiso   1.00
C94    C     0.20211   0.79314   0.18894   0.00000  Uiso   1.00
C95    C     0.23602   0.87413   0.22760   0.00000  Uiso   1.00
C96    C     0.23095   0.89578   0.31380   0.00000  Uiso   1.00
C97    C     0.23868   0.96173   0.45201   0.00000  Uiso   1.00
C98    C     0.23995   0.67706   0.09621   0.00000  Uiso   1.00
C99    C     0.30567   0.66045   0.05689   0.00000  Uiso   1.00
C100   C     0.33244   0.58439   0.06502   0.00000  Uiso   1.00
C101   C     0.39889   0.47010   0.05921   0.00000  Uiso   1.00
C102   C     0.11296   0.72628   0.05901   0.00000  Uiso   1.00
C103   C     0.07192   0.75104   0.98839   0.00000  Uiso   1.00
C104   C     0.99177   0.71640   0.96518   0.00000  Uiso   1.00
C105   C     0.86105   0.67853   0.90160   0.00000  Uiso   1.00
C106   C     0.13151   0.65071   0.17980   0.00000  Uiso   1.00
C107   C     0.16445   0.73580   0.23476   0.00000  Uiso   1.00
C108   C     0.15932   0.75734   0.32092   0.00000  Uiso   1.00
C109   C     0.19322   0.83835   0.35970   0.00000  Uiso   1.00
C110   C     0.20230   0.61973   0.14203   0.00000  Uiso   1.00
C111   C     0.22897   0.54367   0.15021   0.00000  Uiso   1.00
C112   C     0.29472   0.52695   0.11092   0.00000  Uiso   1.00
C113   C     0.07530   0.66895   0.10482   0.00000  Uiso   1.00
C114   C     0.99521   0.63426   0.08172   0.00000  Uiso   1.00
C115   C     0.95405   0.65896   0.01108   0.00000  Uiso   1.00
H116   H     0.23016   0.80090   0.05978   0.00000  Uiso   1.00
H117   H     0.26517   0.91847   0.19212   0.00000  Uiso   1.00
H118   H     0.33480   0.70483   0.02143   0.00000  Uiso   1.00
H119   H     0.10108   0.79541   0.95295   0.00000  Uiso   1.00
H120   H     0.28740   0.02353   0.35906   0.00000  Uiso   1.00
H121   H     0.43420   0.57303   0.99913   0.00000  Uiso   1.00
H122   H     0.94135   0.76403   0.85471   0.00000  Uiso   1.00
H123   H     0.10219   0.60608   0.21547   0.00000  Uiso   1.00
H124   H     0.13017   0.71296   0.35636   0.00000  Uiso   1.00
H125   H     0.19981   0.49931   0.18567   0.00000  Uiso   1.00
H126   H     0.96609   0.58989   0.11719   0.00000  Uiso   1.00
H127   H     0.17784   0.85672   0.49236   0.00000  Uiso   1.00
H128   H     0.32464   0.40622   0.13243   0.00000  Uiso   1.00
H129   H     0.83179   0.59723   0.98801   0.00000  Uiso   1.00
O130   O     0.25336   0.01394   0.51559   0.00000  Uiso   1.00
O131   O     0.44595   0.42290   0.04336   0.00000  Uiso   1.00
O132   O     0.79934   0.67350   0.85389   0.00000  Uiso   1.00
N133   N     0.25776   0.96961   0.37109   0.00000  Uiso   1.00
N134   N     0.39502   0.54843   0.03459   0.00000  Uiso   1.00
N135   N     0.93425   0.72698   0.89955   0.00000  Uiso   1.00
N136   N     0.19880   0.87985   0.44282   0.00000  Uiso   1.00
N137   N     0.33606   0.45867   0.10632   0.00000  Uiso   1.00
N138   N     0.87530   0.63722   0.97128   0.00000  Uiso   1.00
C139   C     0.89939   0.79773   0.24094   0.00000  Uiso   1.00
C140   C     0.81201   0.79770   0.20532   0.00000  Uiso   1.00
C141   C     0.77506   0.76255   0.12333   0.00000  Uiso   1.00
C142   C     0.69465   0.76909   0.10310   0.00000  Uiso   1.00
C143   C     0.56534   0.76288   0.03872   0.00000  Uiso   1.00
C144   C     0.89804   0.75651   0.32102   0.00000  Uiso   1.00
C145   C     0.93343   0.68675   0.33632   0.00000  Uiso   1.00
C146   C     0.92544   0.65863   0.41350   0.00000  Uiso   1.00
C147   C     0.92973   0.58851   0.52879   0.00000  Uiso   1.00
C148   C     0.93529   0.88977   0.27177   0.00000  Uiso   1.00
C149   C     0.00201   0.93205   0.24568   0.00000  Uiso   1.00
C150   C     0.02540   0.01611   0.28141   0.00000  Uiso   1.00
C151   C     0.08752   0.15289   0.32022   0.00000  Uiso   1.00
C152   C     0.82229   0.87185   0.35080   0.00000  Uiso   1.00
C153   C     0.77014   0.83795   0.26499   0.00000  Uiso   1.00
C154   C     0.68976   0.84455   0.24488   0.00000  Uiso   1.00
C155   C     0.65270   0.80942   0.16288   0.00000  Uiso   1.00
C156   C     0.85616   0.79677   0.38069   0.00000  Uiso   1.00
C157   C     0.84813   0.76875   0.45787   0.00000  Uiso   1.00
C158   C     0.88349   0.69895   0.47328   0.00000  Uiso   1.00
C159   C     0.89341   0.93003   0.33144   0.00000  Uiso   1.00
C160   C     0.91670   0.01404   0.36723   0.00000  Uiso   1.00
C161   C     0.98344   0.05644   0.34119   0.00000  Uiso   1.00
H162   H     0.93200   0.76639   0.19448   0.00000  Uiso   1.00
H163   H     0.80749   0.73140   0.07717   0.00000  Uiso   1.00
H164   H     0.96583   0.65562   0.29013   0.00000  Uiso   1.00
H165   H     0.03440   0.90087   0.19950   0.00000  Uiso   1.00
H166   H     0.65098   0.71033   0.97343   0.00000  Uiso   1.00
H167   H     0.98488   0.55055   0.42249   0.00000  Uiso   1.00
H168   H     0.12947   0.06773   0.23137   0.00000  Uiso   1.00
H169   H     0.78969   0.90319   0.39727   0.00000  Uiso   1.00
H170   H     0.65737   0.87570   0.29107   0.00000  Uiso   1.00
H171   H     0.81572   0.79992   0.50404   0.00000  Uiso   1.00
H172   H     0.88428   0.04517   0.41340   0.00000  Uiso   1.00
H173   H     0.52913   0.82745   0.14704   0.00000  Uiso   1.00
H174   H     0.86304   0.66767   0.59611   0.00000  Uiso   1.00
H175   H     0.00763   0.18484   0.40498   0.00000  Uiso   1.00
O176   O     0.50557   0.74832   0.98673   0.00000  Uiso   1.00
O177   O     0.94365   0.53871   0.57588   0.00000  Uiso   1.00
O178   O     0.13335   0.21722   0.32514   0.00000  Uiso   1.00
N179   N     0.64046   0.74168   0.02886   0.00000  Uiso   1.00
N180   N     0.95263   0.59229   0.44870   0.00000  Uiso   1.00
N181   N     0.08782   0.07580   0.27003   0.00000  Uiso   1.00
N182   N     0.57490   0.80470   0.12228   0.00000  Uiso   1.00
N183   N     0.88707   0.65531   0.54212   0.00000  Uiso   1.00
N184   N     0.02226   0.13882   0.36345   0.00000  Uiso   1.00
C185   C     0.24755   0.90419   0.80006   0.00000  Uiso   1.00
C186   C     0.21249   0.81265   0.79968   0.00000  Uiso   1.00
C187   C     0.13512   0.77488   0.76514   0.00000  Uiso   1.00
C188   C     0.11459   0.69047   0.77122   0.00000  Uiso   1.00
C189   C     0.05182   0.55516   0.76462   0.00000  Uiso   1.00
C190   C     0.32219   0.90169   0.75653   0.00000  Uiso   1.00
C191   C     0.33706   0.93879   0.68571   0.00000  Uiso   1.00
C192   C     0.40889   0.92933   0.65547   0.00000  Uiso   1.00
C193   C     0.51646   0.93231   0.58192   0.00000  Uiso   1.00
C194   C     0.27726   0.94152   0.89346   0.00000  Uiso   1.00
C195   C     0.25436   0.01212   0.93778   0.00000  Uiso   1.00
C196   C     0.28837   0.03621   0.02283   0.00000  Uiso   1.00
C197   C     0.32616   0.10103   0.16188   0.00000  Uiso   1.00
C198   C     0.34867   0.82145   0.87228   0.00000  Uiso   1.00
C199   C     0.26742   0.76771   0.83890   0.00000  Uiso   1.00
C200   C     0.24700   0.68334   0.84504   0.00000  Uiso   1.00
C201   C     0.16961   0.64544   0.81051   0.00000  Uiso   1.00
C202   C     0.37712   0.85675   0.79575   0.00000  Uiso   1.00
C203   C     0.44894   0.84724   0.76561   0.00000  Uiso   1.00
C204   C     0.46392   0.88431   0.69477   0.00000  Uiso   1.00
C205   C     0.33218   0.89658   0.93269   0.00000  Uiso   1.00
C206   C     0.36624   0.92057   0.01768   0.00000  Uiso   1.00
C207   C     0.34340   0.99119   0.06212   0.00000  Uiso   1.00
H208   H     0.20479   0.93918   0.76952   0.00000  Uiso   1.00
H209   H     0.09263   0.80968   0.73478   0.00000  Uiso   1.00
H210   H     0.29455   0.97357   0.65538   0.00000  Uiso   1.00
H211   H     0.21186   0.04688   0.90741   0.00000  Uiso   1.00
H212   H     0.99252   0.64628   0.71354   0.00000  Uiso   1.00
H213   H     0.41828   0.99187   0.54613   0.00000  Uiso   1.00
H214   H     0.24391   0.14648   0.07758   0.00000  Uiso   1.00
H215   H     0.39144   0.78646   0.90282   0.00000  Uiso   1.00
H216   H     0.28952   0.64857   0.87540   0.00000  Uiso   1.00
H217   H     0.49144   0.81247   0.79599   0.00000  Uiso   1.00
H218   H     0.40874   0.88578   0.04801   0.00000  Uiso   1.00
H219   H     0.15232   0.51552   0.82766   0.00000  Uiso   1.00
H220   H     0.57809   0.86112   0.66025   0.00000  Uiso   1.00
H221   H     0.40371   0.01572   0.19170   0.00000  Uiso   1.00
O222   O     0.00202   0.49294   0.75013   0.00000  Uiso   1.00
O223   O     0.56061   0.94636   0.53050   0.00000  Uiso   1.00
O224   O     0.33183   0.14919   0.22775   0.00000  Uiso   1.00
N225   N     0.04411   0.63443   0.74418   0.00000  Uiso   1.00
N226   N     0.44217   0.95753   0.58764   0.00000  Uiso   1.00
N227   N     0.27916   0.10208   0.08450   0.00000  Uiso   1.00
N228   N     0.13010   0.56407   0.80559   0.00000  Uiso   1.00
N229   N     0.52816   0.88717   0.64905   0.00000  Uiso   1.00
N230   N     0.36515   0.03172   0.14591   0.00000  Uiso   1.00
C231   C     0.79916   0.24373   0.90455   0.00000  Uiso   1.00
C232   C     0.79789   0.20686   0.81106   0.00000  Uiso   1.00
C233   C     0.76398   0.12588   0.77240   0.00000  Uiso   1.00
C234   C     0.76905   0.10422   0.68620   0.00000  Uiso   1.00
C235   C     0.76132   0.03827   0.54799   0.00000  Uiso   1.00
C236   C     0.76005   0.32294   0.90379   0.00000  Uiso   1.00
C237   C     0.69433   0.33955   0.94311   0.00000  Uiso   1.00
C238   C     0.66756   0.41561   0.93498   0.00000  Uiso   1.00
C239   C     0.60111   0.52990   0.94079   0.00000  Uiso   1.00
C240   C     0.88704   0.27372   0.94099   0.00000  Uiso   1.00
C241   C     0.92808   0.24896   0.01161   0.00000  Uiso   1.00
C242   C     0.00823   0.28360   0.03482   0.00000  Uiso   1.00
C243   C     0.13895   0.32147   0.09840   0.00000  Uiso   1.00
C244   C     0.86849   0.34929   0.82020   0.00000  Uiso   1.00
C245   C     0.83555   0.26420   0.76524   0.00000  Uiso   1.00
C246   C     0.84068   0.24266   0.67908   0.00000  Uiso   1.00
C247   C     0.80678   0.16165   0.64030   0.00000  Uiso   1.00
C248   C     0.79770   0.38027   0.85797   0.00000  Uiso   1.00
C249   C     0.77103   0.45633   0.84979   0.00000  Uiso   1.00
C250   C     0.70528   0.47305   0.88908   0.00000  Uiso   1.00
C251   C     0.92470   0.33105   0.89518   0.00000  Uiso   1.00
C252   C     0.00479   0.36574   0.91828   0.00000  Uiso   1.00
C253   C     0.04595   0.34104   0.98892   0.00000  Uiso   1.00
H254   H     0.76984   0.19910   0.94022   0.00000  Uiso   1.00
H255   H     0.73483   0.08153   0.80788   0.00000  Uiso   1.00
H256   H     0.66520   0.29517   0.97857   0.00000  Uiso   1.00
H257   H     0.89892   0.20459   0.04705   0.00000  Uiso   1.00
H258   H     0.71260   0.97647   0.64094   0.00000  Uiso   1.00
H259   H     0.56580   0.42697   0.00087   0.00000  Uiso   1.00
H260   H     0.05865   0.23597   0.14529   0.00000  Uiso   1.00
H261   H     0.89781   0.39392   0.78453   0.00000  Uiso   1.00
H262   H     0.86983   0.28704   0.64364   0.00000  Uiso   1.00
H263   H     0.80019   0.50069   0.81433   0.00000  Uiso   1.00
H264   H     0.03391   0.41011   0.88281   0.00000  Uiso   1.00
H265   H     0.82216   0.14328   0.50764   0.00000  Uiso   1.00
H266   H     0.67536   0.59378   0.86757   0.00000  Uiso   1.00
H267   H     0.16821   0.40277   0.01199   0.00000  Uiso   1.00
O268   O     0.74664   0.98606   0.48441   0.00000  Uiso   1.00
O269   O     0.55405   0.57710   0.95664   0.00000  Uiso   1.00
O270   O     0.20066   0.32650   0.14611   0.00000  Uiso   1.00
N271   N     0.74224   0.03039   0.62891   0.00000  Uiso   1.00
N272   N     0.60498   0.45157   0.96541   0.00000  Uiso   1.00
N273   N     0.06575   0.27302   0.10045   0.00000  Uiso   1.00
N274   N     0.80120   0.12015   0.55718   0.00000  Uiso   1.00
N275   N     0.66394   0.54133   0.89368   0.00000  Uiso   1.00
N276   N     0.12470   0.36278   0.02872   0.00000  Uiso   1.00
