data_job_01742
_audit_creation_date              2018-12-19
_audit_creation_method            'Materials Studio'
_symmetry_space_group_name_H-M    'P1'
_symmetry_Int_Tables_number       1
_symmetry_cell_setting            triclinic
loop_
_symmetry_equiv_pos_as_xyz
  x,y,z
_cell_length_a                    12.3815
_cell_length_b                    12.4101
_cell_length_c                    12.5184
_cell_angle_alpha                 98.6665
_cell_angle_beta                  69.2897
_cell_angle_gamma                 90.2440
loop_
_atom_site_label
_atom_site_type_symbol
_atom_site_fract_x
_atom_site_fract_y
_atom_site_fract_z
_atom_site_U_iso_or_equiv
_atom_site_adp_type
_atom_site_occupancy
C1     C     0.11356   0.59889   0.80585   0.00000  Uiso   1.00
C2     C     0.08393   0.68935   0.91026   0.00000  Uiso   1.00
C3     C     0.02181   0.67798   0.02407   0.00000  Uiso   1.00
C4     C     0.00386   0.77052   0.10709   0.00000  Uiso   1.00
C5     C     0.95141   0.89572   0.27376   0.00000  Uiso   1.00
C6     C     0.24484   0.59380   0.74793   0.00000  Uiso   1.00
C7     C     0.31802   0.50210   0.72524   0.00000  Uiso   1.00
C8     C     0.43553   0.51421   0.67160   0.00000  Uiso   1.00
C9     C     0.63289   0.49105   0.58618   0.00000  Uiso   1.00
C10    C     0.06576   0.63998   0.72171   0.00000  Uiso   1.00
C11    C     0.98838   0.58710   0.67695   0.00000  Uiso   1.00
C12    C     0.95513   0.63808   0.60120   0.00000  Uiso   1.00
C13    C     0.87444   0.68662   0.47507   0.00000  Uiso   1.00
C14    C     0.19212   0.78344   0.75090   0.00000  Uiso   1.00
C15    C     0.12661   0.78959   0.88041   0.00000  Uiso   1.00
C16    C     0.10873   0.88217   0.96328   0.00000  Uiso   1.00
C17    C     0.04660   0.87095   0.07720   0.00000  Uiso   1.00
C18    C     0.28752   0.69404   0.71808   0.00000  Uiso   1.00
C19    C     0.40494   0.70628   0.66446   0.00000  Uiso   1.00
C20    C     0.47828   0.61463   0.64171   0.00000  Uiso   1.00
C21    C     0.10843   0.74022   0.69186   0.00000  Uiso   1.00
C22    C     0.07530   0.79129   0.61617   0.00000  Uiso   1.00
C23    C     0.99788   0.73850   0.57131   0.00000  Uiso   1.00
H24    H     0.08035   0.52084   0.82908   0.00000  Uiso   1.00
H25    H     0.98881   0.60039   0.04713   0.00000  Uiso   1.00
H26    H     0.28497   0.42453   0.74834   0.00000  Uiso   1.00
H27    H     0.95538   0.50953   0.70006   0.00000  Uiso   1.00
H28    H     0.90619   0.73279   0.27573   0.00000  Uiso   1.00
H29    H     0.53065   0.36197   0.64568   0.00000  Uiso   1.00
H30    H     0.83564   0.54118   0.54386   0.00000  Uiso   1.00
H31    H     0.22535   0.86148   0.72767   0.00000  Uiso   1.00
H32    H     0.14177   0.95973   0.94016   0.00000  Uiso   1.00
H33    H     0.43793   0.78387   0.64137   0.00000  Uiso   1.00
H34    H     0.10834   0.86886   0.59309   0.00000  Uiso   1.00
H35    H     0.03034   0.02444   0.18891   0.00000  Uiso   1.00
H36    H     0.65480   0.65361   0.55885   0.00000  Uiso   1.00
H37    H     0.95979   0.83284   0.45704   0.00000  Uiso   1.00
O38    O     0.91070   0.93709   0.37394   0.00000  Uiso   1.00
O39    O     0.72997   0.45058   0.54732   0.00000  Uiso   1.00
O40    O     0.81813   0.68571   0.41375   0.00000  Uiso   1.00
N41    N     0.94686   0.78795   0.22613   0.00000  Uiso   1.00
N42    N     0.53070   0.44126   0.63709   0.00000  Uiso   1.00
N43    N     0.88095   0.60880   0.54187   0.00000  Uiso   1.00
N44    N     0.01366   0.94488   0.17941   0.00000  Uiso   1.00
N45    N     0.59750   0.59819   0.59037   0.00000  Uiso   1.00
N46    N     0.94775   0.76573   0.49516   0.00000  Uiso   1.00
C47    C     0.88644   0.40111   0.19415   0.00000  Uiso   1.00
C48    C     0.91607   0.31065   0.08974   0.00000  Uiso   1.00
C49    C     0.97819   0.32202   0.97593   0.00000  Uiso   1.00
C50    C     0.99614   0.22948   0.89291   0.00000  Uiso   1.00
C51    C     0.04859   0.10428   0.72624   0.00000  Uiso   1.00
C52    C     0.75516   0.40620   0.25207   0.00000  Uiso   1.00
C53    C     0.68198   0.49790   0.27476   0.00000  Uiso   1.00
C54    C     0.56447   0.48579   0.32840   0.00000  Uiso   1.00
C55    C     0.36711   0.50895   0.41382   0.00000  Uiso   1.00
C56    C     0.93424   0.36002   0.27829   0.00000  Uiso   1.00
C57    C     0.01162   0.41290   0.32305   0.00000  Uiso   1.00
C58    C     0.04487   0.36192   0.39880   0.00000  Uiso   1.00
C59    C     0.12556   0.31338   0.52493   0.00000  Uiso   1.00
C60    C     0.80788   0.21656   0.24910   0.00000  Uiso   1.00
C61    C     0.87339   0.21041   0.11959   0.00000  Uiso   1.00
C62    C     0.89127   0.11783   0.03672   0.00000  Uiso   1.00
C63    C     0.95340   0.12905   0.92280   0.00000  Uiso   1.00
C64    C     0.71248   0.30596   0.28192   0.00000  Uiso   1.00
C65    C     0.59506   0.29372   0.33554   0.00000  Uiso   1.00
C66    C     0.52172   0.38537   0.35829   0.00000  Uiso   1.00
C67    C     0.89157   0.25978   0.30814   0.00000  Uiso   1.00
C68    C     0.92470   0.20871   0.38383   0.00000  Uiso   1.00
C69    C     0.00212   0.26150   0.42869   0.00000  Uiso   1.00
H70    H     0.91965   0.47916   0.17092   0.00000  Uiso   1.00
H71    H     0.01119   0.39961   0.95287   0.00000  Uiso   1.00
H72    H     0.71503   0.57547   0.25166   0.00000  Uiso   1.00
H73    H     0.04462   0.49047   0.29994   0.00000  Uiso   1.00
H74    H     0.09381   0.26721   0.72427   0.00000  Uiso   1.00
H75    H     0.46935   0.63803   0.35432   0.00000  Uiso   1.00
H76    H     0.16436   0.45882   0.45614   0.00000  Uiso   1.00
H77    H     0.77465   0.13852   0.27233   0.00000  Uiso   1.00
H78    H     0.85823   0.04027   0.05984   0.00000  Uiso   1.00
H79    H     0.56207   0.21613   0.35863   0.00000  Uiso   1.00
H80    H     0.89166   0.13114   0.40691   0.00000  Uiso   1.00
H81    H     0.96966   0.97556   0.81109   0.00000  Uiso   1.00
H82    H     0.34520   0.34639   0.44115   0.00000  Uiso   1.00
H83    H     0.04021   0.16716   0.54296   0.00000  Uiso   1.00
O84    O     0.08930   0.06291   0.62606   0.00000  Uiso   1.00
O85    O     0.27003   0.54942   0.45268   0.00000  Uiso   1.00
O86    O     0.18187   0.31429   0.58625   0.00000  Uiso   1.00
N87    N     0.05314   0.21205   0.77387   0.00000  Uiso   1.00
N88    N     0.46930   0.55874   0.36291   0.00000  Uiso   1.00
N89    N     0.11905   0.39120   0.45813   0.00000  Uiso   1.00
N90    N     0.98634   0.05512   0.82059   0.00000  Uiso   1.00
N91    N     0.40250   0.40181   0.40963   0.00000  Uiso   1.00
N92    N     0.05225   0.23427   0.50484   0.00000  Uiso   1.00
