data_job_02530
_audit_creation_date              2018-12-19
_audit_creation_method            'Materials Studio'
_symmetry_space_group_name_H-M    'P1'
_symmetry_Int_Tables_number       1
_symmetry_cell_setting            triclinic
loop_
_symmetry_equiv_pos_as_xyz
  x,y,z
_cell_length_a                    40.7968
_cell_length_b                    23.3697
_cell_length_c                    12.3598
_cell_angle_alpha                 90.0000
_cell_angle_beta                  90.0000
_cell_angle_gamma                 90.0000
loop_
_atom_site_label
_atom_site_type_symbol
_atom_site_fract_x
_atom_site_fract_y
_atom_site_fract_z
_atom_site_U_iso_or_equiv
_atom_site_adp_type
_atom_site_occupancy
C1     C     0.32313   0.92527   0.88071   0.00000  Uiso   1.00
C2     C     0.35952   0.92532   0.90900   0.00000  Uiso   1.00
C3     C     0.37252   0.92466   0.01274   0.00000  Uiso   1.00
C4     C     0.40645   0.92484   0.02156   0.00000  Uiso   1.00
C5     C     0.45988   0.92482   0.07943   0.00000  Uiso   1.00
C6     C     0.31754   0.97788   0.81009   0.00000  Uiso   1.00
C7     C     0.29526   0.02141   0.83067   0.00000  Uiso   1.00
C8     C     0.29385   0.06583   0.75622   0.00000  Uiso   1.00
C9     C     0.28210   0.14739   0.66049   0.00000  Uiso   1.00
C10    C     0.31778   0.87364   0.80737   0.00000  Uiso   1.00
C11    C     0.29568   0.82954   0.82563   0.00000  Uiso   1.00
C12    C     0.29446   0.78621   0.74888   0.00000  Uiso   1.00
C13    C     0.28307   0.70592   0.64892   0.00000  Uiso   1.00
C14    C     0.36025   0.92676   0.71191   0.00000  Uiso   1.00
C15    C     0.37968   0.92613   0.81731   0.00000  Uiso   1.00
C16    C     0.41359   0.92631   0.82598   0.00000  Uiso   1.00
C17    C     0.42665   0.92565   0.92971   0.00000  Uiso   1.00
C18    C     0.33770   0.97869   0.71841   0.00000  Uiso   1.00
C19    C     0.33633   0.02306   0.64391   0.00000  Uiso   1.00
C20    C     0.31405   0.06664   0.66437   0.00000  Uiso   1.00
C21    C     0.33794   0.87445   0.71568   0.00000  Uiso   1.00
C22    C     0.33675   0.83118   0.63887   0.00000  Uiso   1.00
C23    C     0.31466   0.78702   0.65702   0.00000  Uiso   1.00
H24    H     0.30743   0.92464   0.95209   0.00000  Uiso   1.00
H25    H     0.35691   0.92404   0.08368   0.00000  Uiso   1.00
H26    H     0.27966   0.02077   0.90162   0.00000  Uiso   1.00
H27    H     0.28008   0.82893   0.89660   0.00000  Uiso   1.00
H28    H     0.42066   0.92374   0.18912   0.00000  Uiso   1.00
H29    H     0.25775   0.12770   0.80524   0.00000  Uiso   1.00
H30    H     0.25865   0.72316   0.79464   0.00000  Uiso   1.00
H31    H     0.37595   0.92739   0.64052   0.00000  Uiso   1.00
H32    H     0.42919   0.92693   0.75501   0.00000  Uiso   1.00
H33    H     0.35193   0.02367   0.57296   0.00000  Uiso   1.00
H34    H     0.35236   0.83182   0.56793   0.00000  Uiso   1.00
H35    H     0.47932   0.92610   0.92237   0.00000  Uiso   1.00
H36    H     0.31641   0.13005   0.53848   0.00000  Uiso   1.00
H37    H     0.31731   0.72551   0.52788   0.00000  Uiso   1.00
O38    O     0.48378   0.92459   0.13668   0.00000  Uiso   1.00
O39    O     0.27005   0.19216   0.63303   0.00000  Uiso   1.00
O40    O     0.27122   0.66142   0.61912   0.00000  Uiso   1.00
N41    N     0.42716   0.92435   0.11063   0.00000  Uiso   1.00
N42    N     0.27486   0.11504   0.75173   0.00000  Uiso   1.00
N43    N     0.27569   0.73683   0.74180   0.00000  Uiso   1.00
N44    N     0.45873   0.92561   0.96709   0.00000  Uiso   1.00
N45    N     0.30642   0.11630   0.60819   0.00000  Uiso   1.00
N46    N     0.30725   0.73810   0.59826   0.00000  Uiso   1.00
C47    C     0.82313   0.42527   0.38071   0.00000  Uiso   1.00
C48    C     0.85952   0.42532   0.40900   0.00000  Uiso   1.00
C49    C     0.87252   0.42466   0.51274   0.00000  Uiso   1.00
C50    C     0.90645   0.42484   0.52156   0.00000  Uiso   1.00
C51    C     0.95988   0.42482   0.57943   0.00000  Uiso   1.00
C52    C     0.81754   0.47788   0.31009   0.00000  Uiso   1.00
C53    C     0.79526   0.52141   0.33067   0.00000  Uiso   1.00
C54    C     0.79385   0.56583   0.25622   0.00000  Uiso   1.00
C55    C     0.78210   0.64739   0.16049   0.00000  Uiso   1.00
C56    C     0.81778   0.37364   0.30737   0.00000  Uiso   1.00
C57    C     0.79568   0.32954   0.32563   0.00000  Uiso   1.00
C58    C     0.79446   0.28621   0.24888   0.00000  Uiso   1.00
C59    C     0.78307   0.20592   0.14892   0.00000  Uiso   1.00
C60    C     0.86025   0.42676   0.21191   0.00000  Uiso   1.00
C61    C     0.87968   0.42613   0.31731   0.00000  Uiso   1.00
C62    C     0.91359   0.42631   0.32598   0.00000  Uiso   1.00
C63    C     0.92665   0.42565   0.42971   0.00000  Uiso   1.00
C64    C     0.83770   0.47869   0.21841   0.00000  Uiso   1.00
C65    C     0.83633   0.52306   0.14391   0.00000  Uiso   1.00
C66    C     0.81405   0.56664   0.16437   0.00000  Uiso   1.00
C67    C     0.83794   0.37445   0.21568   0.00000  Uiso   1.00
C68    C     0.83675   0.33118   0.13887   0.00000  Uiso   1.00
C69    C     0.81466   0.28702   0.15702   0.00000  Uiso   1.00
H70    H     0.80743   0.42464   0.45209   0.00000  Uiso   1.00
H71    H     0.85691   0.42404   0.58368   0.00000  Uiso   1.00
H72    H     0.77966   0.52077   0.40162   0.00000  Uiso   1.00
H73    H     0.78008   0.32893   0.39660   0.00000  Uiso   1.00
H74    H     0.92066   0.42374   0.68912   0.00000  Uiso   1.00
H75    H     0.75775   0.62770   0.30524   0.00000  Uiso   1.00
H76    H     0.75865   0.22316   0.29464   0.00000  Uiso   1.00
H77    H     0.87595   0.42739   0.14052   0.00000  Uiso   1.00
H78    H     0.92919   0.42693   0.25501   0.00000  Uiso   1.00
H79    H     0.85193   0.52367   0.07296   0.00000  Uiso   1.00
H80    H     0.85236   0.33182   0.06793   0.00000  Uiso   1.00
H81    H     0.97932   0.42610   0.42237   0.00000  Uiso   1.00
H82    H     0.81641   0.63005   0.03848   0.00000  Uiso   1.00
H83    H     0.81731   0.22551   0.02788   0.00000  Uiso   1.00
O84    O     0.98378   0.42459   0.63668   0.00000  Uiso   1.00
O85    O     0.77005   0.69216   0.13303   0.00000  Uiso   1.00
O86    O     0.77122   0.16142   0.11912   0.00000  Uiso   1.00
N87    N     0.92716   0.42435   0.61063   0.00000  Uiso   1.00
N88    N     0.77486   0.61504   0.25173   0.00000  Uiso   1.00
N89    N     0.77569   0.23683   0.24180   0.00000  Uiso   1.00
N90    N     0.95873   0.42561   0.46709   0.00000  Uiso   1.00
N91    N     0.80642   0.61630   0.10819   0.00000  Uiso   1.00
N92    N     0.80725   0.23810   0.09826   0.00000  Uiso   1.00
C93    C     0.67687   0.07473   0.88071   0.00000  Uiso   1.00
C94    C     0.64048   0.07468   0.90900   0.00000  Uiso   1.00
C95    C     0.62748   0.07534   0.01274   0.00000  Uiso   1.00
C96    C     0.59355   0.07516   0.02156   0.00000  Uiso   1.00
C97    C     0.54012   0.07518   0.07943   0.00000  Uiso   1.00
C98    C     0.68246   0.02212   0.81009   0.00000  Uiso   1.00
C99    C     0.70474   0.97859   0.83067   0.00000  Uiso   1.00
C100   C     0.70615   0.93417   0.75622   0.00000  Uiso   1.00
C101   C     0.71790   0.85261   0.66049   0.00000  Uiso   1.00
C102   C     0.68222   0.12636   0.80737   0.00000  Uiso   1.00
C103   C     0.70432   0.17046   0.82563   0.00000  Uiso   1.00
C104   C     0.70554   0.21379   0.74888   0.00000  Uiso   1.00
C105   C     0.71693   0.29408   0.64892   0.00000  Uiso   1.00
C106   C     0.63975   0.07324   0.71191   0.00000  Uiso   1.00
C107   C     0.62032   0.07387   0.81731   0.00000  Uiso   1.00
C108   C     0.58641   0.07369   0.82598   0.00000  Uiso   1.00
C109   C     0.57335   0.07435   0.92971   0.00000  Uiso   1.00
C110   C     0.66230   0.02131   0.71841   0.00000  Uiso   1.00
C111   C     0.66367   0.97694   0.64391   0.00000  Uiso   1.00
C112   C     0.68595   0.93336   0.66437   0.00000  Uiso   1.00
C113   C     0.66206   0.12555   0.71568   0.00000  Uiso   1.00
C114   C     0.66325   0.16882   0.63887   0.00000  Uiso   1.00
C115   C     0.68534   0.21298   0.65702   0.00000  Uiso   1.00
H116   H     0.69257   0.07536   0.95209   0.00000  Uiso   1.00
H117   H     0.64309   0.07596   0.08368   0.00000  Uiso   1.00
H118   H     0.72034   0.97923   0.90162   0.00000  Uiso   1.00
H119   H     0.71992   0.17107   0.89660   0.00000  Uiso   1.00
H120   H     0.57934   0.07626   0.18912   0.00000  Uiso   1.00
H121   H     0.74225   0.87230   0.80524   0.00000  Uiso   1.00
H122   H     0.74135   0.27684   0.79464   0.00000  Uiso   1.00
H123   H     0.62405   0.07261   0.64052   0.00000  Uiso   1.00
H124   H     0.57081   0.07307   0.75501   0.00000  Uiso   1.00
H125   H     0.64807   0.97633   0.57296   0.00000  Uiso   1.00
H126   H     0.64764   0.16818   0.56793   0.00000  Uiso   1.00
H127   H     0.52068   0.07390   0.92237   0.00000  Uiso   1.00
H128   H     0.68359   0.86995   0.53848   0.00000  Uiso   1.00
H129   H     0.68269   0.27449   0.52788   0.00000  Uiso   1.00
O130   O     0.51622   0.07541   0.13668   0.00000  Uiso   1.00
O131   O     0.72995   0.80784   0.63303   0.00000  Uiso   1.00
O132   O     0.72878   0.33858   0.61912   0.00000  Uiso   1.00
N133   N     0.57284   0.07565   0.11063   0.00000  Uiso   1.00
N134   N     0.72514   0.88496   0.75173   0.00000  Uiso   1.00
N135   N     0.72431   0.26317   0.74180   0.00000  Uiso   1.00
N136   N     0.54127   0.07439   0.96709   0.00000  Uiso   1.00
N137   N     0.69358   0.88370   0.60819   0.00000  Uiso   1.00
N138   N     0.69275   0.26190   0.59826   0.00000  Uiso   1.00
C139   C     0.17687   0.57473   0.38071   0.00000  Uiso   1.00
C140   C     0.14048   0.57468   0.40900   0.00000  Uiso   1.00
C141   C     0.12748   0.57534   0.51274   0.00000  Uiso   1.00
C142   C     0.09355   0.57516   0.52156   0.00000  Uiso   1.00
C143   C     0.04012   0.57518   0.57943   0.00000  Uiso   1.00
C144   C     0.18246   0.52212   0.31009   0.00000  Uiso   1.00
C145   C     0.20474   0.47859   0.33067   0.00000  Uiso   1.00
C146   C     0.20615   0.43417   0.25622   0.00000  Uiso   1.00
C147   C     0.21790   0.35261   0.16049   0.00000  Uiso   1.00
C148   C     0.18222   0.62636   0.30737   0.00000  Uiso   1.00
C149   C     0.20432   0.67046   0.32563   0.00000  Uiso   1.00
C150   C     0.20554   0.71379   0.24888   0.00000  Uiso   1.00
C151   C     0.21693   0.79408   0.14892   0.00000  Uiso   1.00
C152   C     0.13975   0.57324   0.21191   0.00000  Uiso   1.00
C153   C     0.12032   0.57387   0.31731   0.00000  Uiso   1.00
C154   C     0.08641   0.57369   0.32598   0.00000  Uiso   1.00
C155   C     0.07335   0.57435   0.42971   0.00000  Uiso   1.00
C156   C     0.16230   0.52131   0.21841   0.00000  Uiso   1.00
C157   C     0.16367   0.47694   0.14391   0.00000  Uiso   1.00
C158   C     0.18595   0.43336   0.16437   0.00000  Uiso   1.00
C159   C     0.16206   0.62555   0.21568   0.00000  Uiso   1.00
C160   C     0.16325   0.66882   0.13887   0.00000  Uiso   1.00
C161   C     0.18534   0.71298   0.15702   0.00000  Uiso   1.00
H162   H     0.19257   0.57536   0.45209   0.00000  Uiso   1.00
H163   H     0.14309   0.57596   0.58368   0.00000  Uiso   1.00
H164   H     0.22034   0.47923   0.40162   0.00000  Uiso   1.00
H165   H     0.21992   0.67107   0.39660   0.00000  Uiso   1.00
H166   H     0.07934   0.57626   0.68912   0.00000  Uiso   1.00
H167   H     0.24225   0.37230   0.30524   0.00000  Uiso   1.00
H168   H     0.24135   0.77684   0.29464   0.00000  Uiso   1.00
H169   H     0.12405   0.57261   0.14052   0.00000  Uiso   1.00
H170   H     0.07081   0.57307   0.25501   0.00000  Uiso   1.00
H171   H     0.14807   0.47633   0.07296   0.00000  Uiso   1.00
H172   H     0.14764   0.66818   0.06793   0.00000  Uiso   1.00
H173   H     0.02068   0.57390   0.42237   0.00000  Uiso   1.00
H174   H     0.18359   0.36995   0.03848   0.00000  Uiso   1.00
H175   H     0.18269   0.77449   0.02788   0.00000  Uiso   1.00
O176   O     0.01622   0.57541   0.63668   0.00000  Uiso   1.00
O177   O     0.22995   0.30784   0.13303   0.00000  Uiso   1.00
O178   O     0.22878   0.83858   0.11912   0.00000  Uiso   1.00
N179   N     0.07284   0.57565   0.61063   0.00000  Uiso   1.00
N180   N     0.22514   0.38496   0.25173   0.00000  Uiso   1.00
N181   N     0.22431   0.76317   0.24180   0.00000  Uiso   1.00
N182   N     0.04127   0.57439   0.46709   0.00000  Uiso   1.00
N183   N     0.19358   0.38370   0.10819   0.00000  Uiso   1.00
N184   N     0.19275   0.76190   0.09826   0.00000  Uiso   1.00
C185   C     0.67687   0.92527   0.11929   0.00000  Uiso   1.00
C186   C     0.64048   0.92532   0.09100   0.00000  Uiso   1.00
C187   C     0.62748   0.92466   0.98726   0.00000  Uiso   1.00
C188   C     0.59355   0.92484   0.97844   0.00000  Uiso   1.00
C189   C     0.54012   0.92482   0.92057   0.00000  Uiso   1.00
C190   C     0.68246   0.97788   0.18991   0.00000  Uiso   1.00
C191   C     0.70474   0.02141   0.16933   0.00000  Uiso   1.00
C192   C     0.70615   0.06583   0.24378   0.00000  Uiso   1.00
C193   C     0.71790   0.14739   0.33951   0.00000  Uiso   1.00
C194   C     0.68222   0.87364   0.19263   0.00000  Uiso   1.00
C195   C     0.70432   0.82954   0.17437   0.00000  Uiso   1.00
C196   C     0.70554   0.78621   0.25112   0.00000  Uiso   1.00
C197   C     0.71693   0.70592   0.35108   0.00000  Uiso   1.00
C198   C     0.63975   0.92676   0.28809   0.00000  Uiso   1.00
C199   C     0.62032   0.92613   0.18269   0.00000  Uiso   1.00
C200   C     0.58641   0.92631   0.17402   0.00000  Uiso   1.00
C201   C     0.57335   0.92565   0.07029   0.00000  Uiso   1.00
C202   C     0.66230   0.97869   0.28159   0.00000  Uiso   1.00
C203   C     0.66367   0.02306   0.35609   0.00000  Uiso   1.00
C204   C     0.68595   0.06664   0.33563   0.00000  Uiso   1.00
C205   C     0.66206   0.87445   0.28432   0.00000  Uiso   1.00
C206   C     0.66325   0.83118   0.36113   0.00000  Uiso   1.00
C207   C     0.68534   0.78702   0.34298   0.00000  Uiso   1.00
H208   H     0.69257   0.92464   0.04791   0.00000  Uiso   1.00
H209   H     0.64309   0.92404   0.91632   0.00000  Uiso   1.00
H210   H     0.72034   0.02077   0.09838   0.00000  Uiso   1.00
H211   H     0.71992   0.82893   0.10340   0.00000  Uiso   1.00
H212   H     0.57934   0.92374   0.81088   0.00000  Uiso   1.00
H213   H     0.74225   0.12770   0.19476   0.00000  Uiso   1.00
H214   H     0.74135   0.72316   0.20536   0.00000  Uiso   1.00
H215   H     0.62405   0.92739   0.35948   0.00000  Uiso   1.00
H216   H     0.57081   0.92693   0.24499   0.00000  Uiso   1.00
H217   H     0.64807   0.02367   0.42704   0.00000  Uiso   1.00
H218   H     0.64764   0.83182   0.43207   0.00000  Uiso   1.00
H219   H     0.52068   0.92610   0.07763   0.00000  Uiso   1.00
H220   H     0.68359   0.13005   0.46152   0.00000  Uiso   1.00
H221   H     0.68269   0.72551   0.47212   0.00000  Uiso   1.00
O222   O     0.51622   0.92459   0.86332   0.00000  Uiso   1.00
O223   O     0.72995   0.19216   0.36697   0.00000  Uiso   1.00
O224   O     0.72878   0.66142   0.38088   0.00000  Uiso   1.00
N225   N     0.57284   0.92435   0.88937   0.00000  Uiso   1.00
N226   N     0.72514   0.11504   0.24827   0.00000  Uiso   1.00
N227   N     0.72431   0.73683   0.25820   0.00000  Uiso   1.00
N228   N     0.54127   0.92561   0.03291   0.00000  Uiso   1.00
N229   N     0.69358   0.11630   0.39181   0.00000  Uiso   1.00
N230   N     0.69275   0.73810   0.40174   0.00000  Uiso   1.00
C231   C     0.17687   0.42527   0.61929   0.00000  Uiso   1.00
C232   C     0.14048   0.42532   0.59100   0.00000  Uiso   1.00
C233   C     0.12748   0.42466   0.48726   0.00000  Uiso   1.00
C234   C     0.09355   0.42484   0.47844   0.00000  Uiso   1.00
C235   C     0.04012   0.42482   0.42057   0.00000  Uiso   1.00
C236   C     0.18246   0.47788   0.68991   0.00000  Uiso   1.00
C237   C     0.20474   0.52141   0.66933   0.00000  Uiso   1.00
C238   C     0.20615   0.56583   0.74378   0.00000  Uiso   1.00
C239   C     0.21790   0.64739   0.83951   0.00000  Uiso   1.00
C240   C     0.18222   0.37364   0.69263   0.00000  Uiso   1.00
C241   C     0.20432   0.32954   0.67437   0.00000  Uiso   1.00
C242   C     0.20554   0.28621   0.75112   0.00000  Uiso   1.00
C243   C     0.21693   0.20592   0.85108   0.00000  Uiso   1.00
C244   C     0.13975   0.42676   0.78809   0.00000  Uiso   1.00
C245   C     0.12032   0.42613   0.68269   0.00000  Uiso   1.00
C246   C     0.08641   0.42631   0.67402   0.00000  Uiso   1.00
C247   C     0.07335   0.42565   0.57029   0.00000  Uiso   1.00
C248   C     0.16230   0.47869   0.78159   0.00000  Uiso   1.00
C249   C     0.16367   0.52306   0.85609   0.00000  Uiso   1.00
C250   C     0.18595   0.56664   0.83563   0.00000  Uiso   1.00
C251   C     0.16206   0.37445   0.78432   0.00000  Uiso   1.00
C252   C     0.16325   0.33118   0.86113   0.00000  Uiso   1.00
C253   C     0.18534   0.28702   0.84298   0.00000  Uiso   1.00
H254   H     0.19257   0.42464   0.54791   0.00000  Uiso   1.00
H255   H     0.14309   0.42404   0.41632   0.00000  Uiso   1.00
H256   H     0.22034   0.52077   0.59838   0.00000  Uiso   1.00
H257   H     0.21992   0.32893   0.60340   0.00000  Uiso   1.00
H258   H     0.07934   0.42374   0.31088   0.00000  Uiso   1.00
H259   H     0.24225   0.62770   0.69476   0.00000  Uiso   1.00
H260   H     0.24135   0.22316   0.70536   0.00000  Uiso   1.00
H261   H     0.12405   0.42739   0.85948   0.00000  Uiso   1.00
H262   H     0.07081   0.42693   0.74499   0.00000  Uiso   1.00
H263   H     0.14807   0.52367   0.92704   0.00000  Uiso   1.00
H264   H     0.14764   0.33182   0.93207   0.00000  Uiso   1.00
H265   H     0.02068   0.42610   0.57763   0.00000  Uiso   1.00
H266   H     0.18359   0.63005   0.96152   0.00000  Uiso   1.00
H267   H     0.18269   0.22551   0.97212   0.00000  Uiso   1.00
O268   O     0.01622   0.42459   0.36332   0.00000  Uiso   1.00
O269   O     0.22995   0.69216   0.86697   0.00000  Uiso   1.00
O270   O     0.22878   0.16142   0.88088   0.00000  Uiso   1.00
N271   N     0.07284   0.42435   0.38937   0.00000  Uiso   1.00
N272   N     0.22514   0.61504   0.74827   0.00000  Uiso   1.00
N273   N     0.22431   0.23683   0.75820   0.00000  Uiso   1.00
N274   N     0.04127   0.42561   0.53291   0.00000  Uiso   1.00
N275   N     0.19358   0.61630   0.89181   0.00000  Uiso   1.00
N276   N     0.19275   0.23810   0.90174   0.00000  Uiso   1.00
C277   C     0.32313   0.07473   0.11929   0.00000  Uiso   1.00
C278   C     0.35952   0.07468   0.09100   0.00000  Uiso   1.00
C279   C     0.37252   0.07534   0.98726   0.00000  Uiso   1.00
C280   C     0.40645   0.07516   0.97844   0.00000  Uiso   1.00
C281   C     0.45988   0.07518   0.92057   0.00000  Uiso   1.00
C282   C     0.31754   0.02212   0.18991   0.00000  Uiso   1.00
C283   C     0.29526   0.97859   0.16933   0.00000  Uiso   1.00
C284   C     0.29385   0.93417   0.24378   0.00000  Uiso   1.00
C285   C     0.28210   0.85261   0.33951   0.00000  Uiso   1.00
C286   C     0.31778   0.12636   0.19263   0.00000  Uiso   1.00
C287   C     0.29568   0.17046   0.17437   0.00000  Uiso   1.00
C288   C     0.29446   0.21379   0.25112   0.00000  Uiso   1.00
C289   C     0.28307   0.29408   0.35108   0.00000  Uiso   1.00
C290   C     0.36025   0.07324   0.28809   0.00000  Uiso   1.00
C291   C     0.37968   0.07387   0.18269   0.00000  Uiso   1.00
C292   C     0.41359   0.07369   0.17402   0.00000  Uiso   1.00
C293   C     0.42665   0.07435   0.07029   0.00000  Uiso   1.00
C294   C     0.33770   0.02131   0.28159   0.00000  Uiso   1.00
C295   C     0.33633   0.97694   0.35609   0.00000  Uiso   1.00
C296   C     0.31405   0.93336   0.33563   0.00000  Uiso   1.00
C297   C     0.33794   0.12555   0.28432   0.00000  Uiso   1.00
C298   C     0.33675   0.16882   0.36113   0.00000  Uiso   1.00
C299   C     0.31466   0.21298   0.34298   0.00000  Uiso   1.00
H300   H     0.30743   0.07536   0.04791   0.00000  Uiso   1.00
H301   H     0.35691   0.07596   0.91632   0.00000  Uiso   1.00
H302   H     0.27966   0.97923   0.09838   0.00000  Uiso   1.00
H303   H     0.28008   0.17107   0.10340   0.00000  Uiso   1.00
H304   H     0.42066   0.07626   0.81088   0.00000  Uiso   1.00
H305   H     0.25775   0.87230   0.19476   0.00000  Uiso   1.00
H306   H     0.25865   0.27684   0.20536   0.00000  Uiso   1.00
H307   H     0.37595   0.07261   0.35948   0.00000  Uiso   1.00
H308   H     0.42919   0.07307   0.24499   0.00000  Uiso   1.00
H309   H     0.35193   0.97633   0.42704   0.00000  Uiso   1.00
H310   H     0.35236   0.16818   0.43207   0.00000  Uiso   1.00
H311   H     0.47932   0.07390   0.07763   0.00000  Uiso   1.00
H312   H     0.31641   0.86995   0.46152   0.00000  Uiso   1.00
H313   H     0.31731   0.27449   0.47212   0.00000  Uiso   1.00
O314   O     0.48378   0.07541   0.86332   0.00000  Uiso   1.00
O315   O     0.27005   0.80784   0.36697   0.00000  Uiso   1.00
O316   O     0.27122   0.33858   0.38088   0.00000  Uiso   1.00
N317   N     0.42716   0.07565   0.88937   0.00000  Uiso   1.00
N318   N     0.27486   0.88496   0.24827   0.00000  Uiso   1.00
N319   N     0.27569   0.26317   0.25820   0.00000  Uiso   1.00
N320   N     0.45873   0.07439   0.03291   0.00000  Uiso   1.00
N321   N     0.30642   0.88370   0.39181   0.00000  Uiso   1.00
N322   N     0.30725   0.26190   0.40174   0.00000  Uiso   1.00
C323   C     0.82313   0.57473   0.61929   0.00000  Uiso   1.00
C324   C     0.85952   0.57468   0.59100   0.00000  Uiso   1.00
C325   C     0.87252   0.57534   0.48726   0.00000  Uiso   1.00
C326   C     0.90645   0.57516   0.47844   0.00000  Uiso   1.00
C327   C     0.95988   0.57518   0.42057   0.00000  Uiso   1.00
C328   C     0.81754   0.52212   0.68991   0.00000  Uiso   1.00
C329   C     0.79526   0.47859   0.66933   0.00000  Uiso   1.00
C330   C     0.79385   0.43417   0.74378   0.00000  Uiso   1.00
C331   C     0.78210   0.35261   0.83951   0.00000  Uiso   1.00
C332   C     0.81778   0.62636   0.69263   0.00000  Uiso   1.00
C333   C     0.79568   0.67046   0.67437   0.00000  Uiso   1.00
C334   C     0.79446   0.71379   0.75112   0.00000  Uiso   1.00
C335   C     0.78307   0.79408   0.85108   0.00000  Uiso   1.00
C336   C     0.86025   0.57324   0.78809   0.00000  Uiso   1.00
C337   C     0.87968   0.57387   0.68269   0.00000  Uiso   1.00
C338   C     0.91359   0.57369   0.67402   0.00000  Uiso   1.00
C339   C     0.92665   0.57435   0.57029   0.00000  Uiso   1.00
C340   C     0.83770   0.52131   0.78159   0.00000  Uiso   1.00
C341   C     0.83633   0.47694   0.85609   0.00000  Uiso   1.00
C342   C     0.81405   0.43336   0.83563   0.00000  Uiso   1.00
C343   C     0.83794   0.62555   0.78432   0.00000  Uiso   1.00
C344   C     0.83675   0.66882   0.86113   0.00000  Uiso   1.00
C345   C     0.81466   0.71298   0.84298   0.00000  Uiso   1.00
H346   H     0.80743   0.57536   0.54791   0.00000  Uiso   1.00
H347   H     0.85691   0.57596   0.41632   0.00000  Uiso   1.00
H348   H     0.77966   0.47923   0.59838   0.00000  Uiso   1.00
H349   H     0.78008   0.67107   0.60340   0.00000  Uiso   1.00
H350   H     0.92066   0.57626   0.31088   0.00000  Uiso   1.00
H351   H     0.75775   0.37230   0.69476   0.00000  Uiso   1.00
H352   H     0.75865   0.77684   0.70536   0.00000  Uiso   1.00
H353   H     0.87595   0.57261   0.85948   0.00000  Uiso   1.00
H354   H     0.92919   0.57307   0.74499   0.00000  Uiso   1.00
H355   H     0.85193   0.47633   0.92704   0.00000  Uiso   1.00
H356   H     0.85236   0.66818   0.93207   0.00000  Uiso   1.00
H357   H     0.97932   0.57390   0.57763   0.00000  Uiso   1.00
H358   H     0.81641   0.36995   0.96152   0.00000  Uiso   1.00
H359   H     0.81731   0.77449   0.97212   0.00000  Uiso   1.00
O360   O     0.98378   0.57541   0.36332   0.00000  Uiso   1.00
O361   O     0.77005   0.30784   0.86697   0.00000  Uiso   1.00
O362   O     0.77122   0.83858   0.88088   0.00000  Uiso   1.00
N363   N     0.92716   0.57565   0.38937   0.00000  Uiso   1.00
N364   N     0.77486   0.38496   0.74827   0.00000  Uiso   1.00
N365   N     0.77569   0.76317   0.75820   0.00000  Uiso   1.00
N366   N     0.95873   0.57439   0.53291   0.00000  Uiso   1.00
N367   N     0.80642   0.38370   0.89181   0.00000  Uiso   1.00
N368   N     0.80725   0.76190   0.90174   0.00000  Uiso   1.00
