data_job_05957
_audit_creation_date              2018-12-19
_audit_creation_method            'Materials Studio'
_symmetry_space_group_name_H-M    'P1'
_symmetry_Int_Tables_number       1
_symmetry_cell_setting            triclinic
loop_
_symmetry_equiv_pos_as_xyz
  x,y,z
_cell_length_a                    9.6773
_cell_length_b                    19.5139
_cell_length_c                    20.0624
_cell_angle_alpha                 117.2400
_cell_angle_beta                  78.9170
_cell_angle_gamma                 84.6624
loop_
_atom_site_label
_atom_site_type_symbol
_atom_site_fract_x
_atom_site_fract_y
_atom_site_fract_z
_atom_site_U_iso_or_equiv
_atom_site_adp_type
_atom_site_occupancy
C1     C     0.62542   0.67954   0.09613   0.00000  Uiso   1.00
C2     C     0.56478   0.64254   0.02571   0.00000  Uiso   1.00
C3     C     0.58150   0.56240   0.97639   0.00000  Uiso   1.00
C4     C     0.51778   0.54044   0.91524   0.00000  Uiso   1.00
C5     C     0.43548   0.47444   0.80761   0.00000  Uiso   1.00
C6     C     0.71654   0.73421   0.08310   0.00000  Uiso   1.00
C7     C     0.86084   0.73114   0.08204   0.00000  Uiso   1.00
C8     C     0.92486   0.78636   0.06922   0.00000  Uiso   1.00
C9     C     0.07814   0.86271   0.05073   0.00000  Uiso   1.00
C10    C     0.49703   0.73282   0.16526   0.00000  Uiso   1.00
C11    C     0.45680   0.72860   0.23329   0.00000  Uiso   1.00
C12    C     0.33603   0.78266   0.28965   0.00000  Uiso   1.00
C13    C     0.14850   0.85685   0.39872   0.00000  Uiso   1.00
C14    C     0.48252   0.78307   0.07524   0.00000  Uiso   1.00
C15    C     0.48716   0.69878   0.01436   0.00000  Uiso   1.00
C16    C     0.42339   0.67694   0.95328   0.00000  Uiso   1.00
C17    C     0.44001   0.59677   0.90388   0.00000  Uiso   1.00
C18    C     0.63892   0.79044   0.07175   0.00000  Uiso   1.00
C19    C     0.70274   0.84568   0.05893   0.00000  Uiso   1.00
C20    C     0.84710   0.84269   0.05785   0.00000  Uiso   1.00
C21    C     0.41941   0.78905   0.15391   0.00000  Uiso   1.00
C22    C     0.29869   0.84314   0.21017   0.00000  Uiso   1.00
C23    C     0.25827   0.83900   0.27828   0.00000  Uiso   1.00
H24    H     0.68586   0.63577   0.10496   0.00000  Uiso   1.00
H25    H     0.64159   0.51890   0.98519   0.00000  Uiso   1.00
H26    H     0.92088   0.68762   0.09083   0.00000  Uiso   1.00
H27    H     0.51689   0.68508   0.24205   0.00000  Uiso   1.00
H28    H     0.55832   0.41413   0.84738   0.00000  Uiso   1.00
H29    H     0.14721   0.76991   0.07016   0.00000  Uiso   1.00
H30    H     0.29533   0.76455   0.38904   0.00000  Uiso   1.00
H31    H     0.42209   0.82685   0.06640   0.00000  Uiso   1.00
H32    H     0.36333   0.72047   0.94451   0.00000  Uiso   1.00
H33    H     0.64263   0.88919   0.05015   0.00000  Uiso   1.00
H34    H     0.23865   0.88664   0.20137   0.00000  Uiso   1.00
H35    H     0.33248   0.57773   0.81436   0.00000  Uiso   1.00
H36    H     0.92137   0.93351   0.03714   0.00000  Uiso   1.00
H37    H     0.06949   0.92814   0.35602   0.00000  Uiso   1.00
O38    O     0.41155   0.42250   0.75136   0.00000  Uiso   1.00
O39    O     0.18414   0.88927   0.04366   0.00000  Uiso   1.00
O40    O     0.06649   0.88223   0.46202   0.00000  Uiso   1.00
N41    N     0.51320   0.46723   0.85634   0.00000  Uiso   1.00
N42    N     0.06379   0.79986   0.06462   0.00000  Uiso   1.00
N43    N     0.26738   0.79485   0.36275   0.00000  Uiso   1.00
N44    N     0.39168   0.55526   0.83857   0.00000  Uiso   1.00
N45    N     0.94227   0.88789   0.04685   0.00000  Uiso   1.00
N46    N     0.14585   0.88289   0.34499   0.00000  Uiso   1.00
C47    C     0.72488   0.90373   0.58421   0.00000  Uiso   1.00
C48    C     0.59732   0.97279   0.61902   0.00000  Uiso   1.00
C49    C     0.57122   0.02314   0.58945   0.00000  Uiso   1.00
C50    C     0.44862   0.08274   0.62979   0.00000  Uiso   1.00
C51    C     0.26474   0.18865   0.67358   0.00000  Uiso   1.00
C52    C     0.79908   0.91828   0.64864   0.00000  Uiso   1.00
C53    C     0.94262   0.92277   0.64396   0.00000  Uiso   1.00
C54    C     0.98987   0.93647   0.70923   0.00000  Uiso   1.00
C55    C     0.11925   0.95768   0.79899   0.00000  Uiso   1.00
C56    C     0.66087   0.83131   0.57012   0.00000  Uiso   1.00
C57    C     0.68823   0.76267   0.49944   0.00000  Uiso   1.00
C58    C     0.61914   0.70314   0.49861   0.00000  Uiso   1.00
C59    C     0.53392   0.58933   0.46646   0.00000  Uiso   1.00
C60    C     0.55357   0.92005   0.70844   0.00000  Uiso   1.00
C61    C     0.50427   0.98166   0.68650   0.00000  Uiso   1.00
C62    C     0.38168   0.04120   0.72689   0.00000  Uiso   1.00
C63    C     0.35540   0.09162   0.69738   0.00000  Uiso   1.00
C64    C     0.70604   0.92714   0.71611   0.00000  Uiso   1.00
C65    C     0.75308   0.94083   0.78140   0.00000  Uiso   1.00
C66    C     0.89665   0.94535   0.77683   0.00000  Uiso   1.00
C67    C     0.56781   0.84018   0.63760   0.00000  Uiso   1.00
C68    C     0.49868   0.78074   0.63688   0.00000  Uiso   1.00
C69    C     0.52592   0.71202   0.56620   0.00000  Uiso   1.00
H70    H     0.79733   0.89683   0.53169   0.00000  Uiso   1.00
H71    H     0.64326   0.01626   0.53723   0.00000  Uiso   1.00
H72    H     0.01460   0.91590   0.59174   0.00000  Uiso   1.00
H73    H     0.76024   0.75583   0.44723   0.00000  Uiso   1.00
H74    H     0.43143   0.15260   0.57315   0.00000  Uiso   1.00
H75    H     0.21445   0.94096   0.68807   0.00000  Uiso   1.00
H76    H     0.67808   0.60342   0.38336   0.00000  Uiso   1.00
H77    H     0.48113   0.92695   0.76097   0.00000  Uiso   1.00
H78    H     0.30969   0.04804   0.77910   0.00000  Uiso   1.00
H79    H     0.68105   0.94768   0.83360   0.00000  Uiso   1.00
H80    H     0.42668   0.78762   0.68910   0.00000  Uiso   1.00
H81    H     0.16070   0.17840   0.76946   0.00000  Uiso   1.00
H82    H     0.94372   0.96675   0.88438   0.00000  Uiso   1.00
H83    H     0.40735   0.62922   0.57967   0.00000  Uiso   1.00
O84    O     0.18903   0.24463   0.67911   0.00000  Uiso   1.00
O85    O     0.21632   0.96694   0.82987   0.00000  Uiso   1.00
O86    O     0.51260   0.52411   0.43010   0.00000  Uiso   1.00
N87    N     0.39123   0.14205   0.61686   0.00000  Uiso   1.00
N88    N     0.12330   0.94418   0.72430   0.00000  Uiso   1.00
N89    N     0.62186   0.62861   0.43943   0.00000  Uiso   1.00
N90    N     0.24555   0.15593   0.72249   0.00000  Uiso   1.00
N91    N     0.97762   0.95806   0.82993   0.00000  Uiso   1.00
N92    N     0.47618   0.64249   0.54506   0.00000  Uiso   1.00
C93    C     0.30565   0.41399   0.31949   0.00000  Uiso   1.00
C94    C     0.20734   0.37560   0.35474   0.00000  Uiso   1.00
C95    C     0.14824   0.40389   0.43354   0.00000  Uiso   1.00
C96    C     0.06107   0.36020   0.45399   0.00000  Uiso   1.00
C97    C     0.91257   0.31112   0.51728   0.00000  Uiso   1.00
C98    C     0.44251   0.35146   0.26850   0.00000  Uiso   1.00
C99    C     0.58115   0.35946   0.27479   0.00000  Uiso   1.00
C100   C     0.69196   0.29545   0.22263   0.00000  Uiso   1.00
C101   C     0.90859   0.20893   0.15201   0.00000  Uiso   1.00
C102   C     0.23306   0.42728   0.26411   0.00000  Uiso   1.00
C103   C     0.19561   0.49902   0.26670   0.00000  Uiso   1.00
C104   C     0.13010   0.49885   0.21084   0.00000  Uiso   1.00
C105   C     0.02152   0.53004   0.13340   0.00000  Uiso   1.00
C106   C     0.25594   0.28610   0.21569   0.00000  Uiso   1.00
C107   C     0.18034   0.30613   0.29835   0.00000  Uiso   1.00
C108   C     0.09323   0.26239   0.31868   0.00000  Uiso   1.00
C109   C     0.03401   0.29061   0.39750   0.00000  Uiso   1.00
C110   C     0.41552   0.28200   0.21211   0.00000  Uiso   1.00
C111   C     0.52615   0.21796   0.15993   0.00000  Uiso   1.00
C112   C     0.66491   0.22586   0.16615   0.00000  Uiso   1.00
C113   C     0.20605   0.35781   0.20773   0.00000  Uiso   1.00
C114   C     0.14060   0.35753   0.15185   0.00000  Uiso   1.00
C115   C     0.10305   0.42926   0.15435   0.00000  Uiso   1.00
H116   H     0.32669   0.46807   0.36339   0.00000  Uiso   1.00
H117   H     0.16917   0.45764   0.47715   0.00000  Uiso   1.00
H118   H     0.60201   0.41322   0.31842   0.00000  Uiso   1.00
H119   H     0.21652   0.55277   0.31034   0.00000  Uiso   1.00
H120   H     0.98267   0.41543   0.57842   0.00000  Uiso   1.00
H121   H     0.89534   0.32178   0.24371   0.00000  Uiso   1.00
H122   H     0.08247   0.61604   0.22666   0.00000  Uiso   1.00
H123   H     0.23492   0.23202   0.17178   0.00000  Uiso   1.00
H124   H     0.07236   0.20864   0.27504   0.00000  Uiso   1.00
H125   H     0.50521   0.16422   0.11631   0.00000  Uiso   1.00
H126   H     0.11972   0.30376   0.10822   0.00000  Uiso   1.00
H127   H     0.90410   0.21332   0.41437   0.00000  Uiso   1.00
H128   H     0.81678   0.11968   0.07966   0.00000  Uiso   1.00
H129   H     0.00391   0.41393   0.06261   0.00000  Uiso   1.00
O130   O     0.83814   0.30324   0.56778   0.00000  Uiso   1.00
O131   O     0.03554   0.18039   0.12864   0.00000  Uiso   1.00
O132   O     0.96907   0.56644   0.10627   0.00000  Uiso   1.00
N133   N     0.98646   0.37108   0.52564   0.00000  Uiso   1.00
N134   N     0.83976   0.28352   0.21271   0.00000  Uiso   1.00
N135   N     0.07983   0.55862   0.19676   0.00000  Uiso   1.00
N136   N     0.94418   0.26233   0.43737   0.00000  Uiso   1.00
N137   N     0.79748   0.17477   0.12444   0.00000  Uiso   1.00
N138   N     0.03755   0.44987   0.10849   0.00000  Uiso   1.00
C139   C     0.37458   0.32046   0.90387   0.00000  Uiso   1.00
C140   C     0.43522   0.35746   0.97429   0.00000  Uiso   1.00
C141   C     0.41850   0.43760   0.02361   0.00000  Uiso   1.00
C142   C     0.48222   0.45956   0.08476   0.00000  Uiso   1.00
C143   C     0.56452   0.52556   0.19239   0.00000  Uiso   1.00
C144   C     0.28346   0.26579   0.91690   0.00000  Uiso   1.00
C145   C     0.13916   0.26886   0.91796   0.00000  Uiso   1.00
C146   C     0.07514   0.21364   0.93078   0.00000  Uiso   1.00
C147   C     0.92186   0.13729   0.94927   0.00000  Uiso   1.00
C148   C     0.50296   0.26718   0.83474   0.00000  Uiso   1.00
C149   C     0.54320   0.27140   0.76671   0.00000  Uiso   1.00
C150   C     0.66397   0.21734   0.71035   0.00000  Uiso   1.00
C151   C     0.85150   0.14315   0.60128   0.00000  Uiso   1.00
C152   C     0.51748   0.21693   0.92476   0.00000  Uiso   1.00
C153   C     0.51284   0.30122   0.98564   0.00000  Uiso   1.00
C154   C     0.57661   0.32306   0.04672   0.00000  Uiso   1.00
C155   C     0.55999   0.40323   0.09612   0.00000  Uiso   1.00
C156   C     0.36108   0.20956   0.92825   0.00000  Uiso   1.00
C157   C     0.29726   0.15432   0.94107   0.00000  Uiso   1.00
C158   C     0.15290   0.15731   0.94215   0.00000  Uiso   1.00
C159   C     0.58059   0.21095   0.84609   0.00000  Uiso   1.00
C160   C     0.70131   0.15686   0.78983   0.00000  Uiso   1.00
C161   C     0.74173   0.16100   0.72172   0.00000  Uiso   1.00
H162   H     0.31414   0.36423   0.89504   0.00000  Uiso   1.00
H163   H     0.35841   0.48110   0.01481   0.00000  Uiso   1.00
H164   H     0.07912   0.31238   0.90917   0.00000  Uiso   1.00
H165   H     0.48311   0.31492   0.75795   0.00000  Uiso   1.00
H166   H     0.44168   0.58587   0.15262   0.00000  Uiso   1.00
H167   H     0.85279   0.23009   0.92984   0.00000  Uiso   1.00
H168   H     0.70467   0.23545   0.61096   0.00000  Uiso   1.00
H169   H     0.57791   0.17315   0.93360   0.00000  Uiso   1.00
H170   H     0.63667   0.27954   0.05549   0.00000  Uiso   1.00
H171   H     0.35737   0.11081   0.94985   0.00000  Uiso   1.00
H172   H     0.76135   0.11336   0.79863   0.00000  Uiso   1.00
H173   H     0.66752   0.42227   0.18565   0.00000  Uiso   1.00
H174   H     0.07863   0.06649   0.96286   0.00000  Uiso   1.00
H175   H     0.93051   0.07186   0.64398   0.00000  Uiso   1.00
O176   O     0.58845   0.57750   0.24864   0.00000  Uiso   1.00
O177   O     0.81586   0.11073   0.95634   0.00000  Uiso   1.00
O178   O     0.93351   0.11777   0.53798   0.00000  Uiso   1.00
N179   N     0.48679   0.53277   0.14366   0.00000  Uiso   1.00
N180   N     0.93621   0.20014   0.93538   0.00000  Uiso   1.00
N181   N     0.73262   0.20515   0.63725   0.00000  Uiso   1.00
N182   N     0.60832   0.44474   0.16143   0.00000  Uiso   1.00
N183   N     0.05773   0.11212   0.95315   0.00000  Uiso   1.00
N184   N     0.85415   0.11711   0.65501   0.00000  Uiso   1.00
C185   C     0.27512   0.09627   0.41579   0.00000  Uiso   1.00
C186   C     0.40268   0.02721   0.38098   0.00000  Uiso   1.00
C187   C     0.42878   0.97686   0.41055   0.00000  Uiso   1.00
C188   C     0.55138   0.91726   0.37022   0.00000  Uiso   1.00
C189   C     0.73526   0.81135   0.32642   0.00000  Uiso   1.00
C190   C     0.20092   0.08172   0.35136   0.00000  Uiso   1.00
C191   C     0.05738   0.07723   0.35604   0.00000  Uiso   1.00
C192   C     0.01013   0.06353   0.29077   0.00000  Uiso   1.00
C193   C     0.88075   0.04232   0.20101   0.00000  Uiso   1.00
C194   C     0.33913   0.16869   0.42988   0.00000  Uiso   1.00
C195   C     0.31177   0.23733   0.50056   0.00000  Uiso   1.00
C196   C     0.38086   0.29686   0.50139   0.00000  Uiso   1.00
C197   C     0.46608   0.41067   0.53354   0.00000  Uiso   1.00
C198   C     0.44643   0.07995   0.29156   0.00000  Uiso   1.00
C199   C     0.49573   0.01834   0.31351   0.00000  Uiso   1.00
C200   C     0.61832   0.95881   0.27311   0.00000  Uiso   1.00
C201   C     0.64460   0.90838   0.30262   0.00000  Uiso   1.00
C202   C     0.29396   0.07286   0.28389   0.00000  Uiso   1.00
C203   C     0.24692   0.05917   0.21860   0.00000  Uiso   1.00
C204   C     0.10335   0.05465   0.22317   0.00000  Uiso   1.00
C205   C     0.43219   0.15982   0.36240   0.00000  Uiso   1.00
C206   C     0.50132   0.21926   0.36312   0.00000  Uiso   1.00
C207   C     0.47408   0.28798   0.43380   0.00000  Uiso   1.00
H208   H     0.20267   0.10317   0.46831   0.00000  Uiso   1.00
H209   H     0.35674   0.98374   0.46277   0.00000  Uiso   1.00
H210   H     0.98540   0.08410   0.40826   0.00000  Uiso   1.00
H211   H     0.23976   0.24417   0.55277   0.00000  Uiso   1.00
H212   H     0.56857   0.84740   0.42685   0.00000  Uiso   1.00
H213   H     0.78555   0.05904   0.31193   0.00000  Uiso   1.00
H214   H     0.32192   0.39658   0.61664   0.00000  Uiso   1.00
H215   H     0.51887   0.07305   0.23903   0.00000  Uiso   1.00
H216   H     0.69031   0.95196   0.22090   0.00000  Uiso   1.00
H217   H     0.31895   0.05232   0.16640   0.00000  Uiso   1.00
H218   H     0.57332   0.21238   0.31090   0.00000  Uiso   1.00
H219   H     0.83930   0.82160   0.23054   0.00000  Uiso   1.00
H220   H     0.05627   0.03325   0.11562   0.00000  Uiso   1.00
H221   H     0.59265   0.37078   0.42033   0.00000  Uiso   1.00
O222   O     0.81097   0.75537   0.32089   0.00000  Uiso   1.00
O223   O     0.78368   0.03306   0.17014   0.00000  Uiso   1.00
O224   O     0.48740   0.47589   0.56990   0.00000  Uiso   1.00
N225   N     0.60877   0.85796   0.38314   0.00000  Uiso   1.00
N226   N     0.87670   0.05582   0.27570   0.00000  Uiso   1.00
N227   N     0.37814   0.37139   0.56057   0.00000  Uiso   1.00
N228   N     0.75445   0.84407   0.27751   0.00000  Uiso   1.00
N229   N     0.02238   0.04194   0.17007   0.00000  Uiso   1.00
N230   N     0.52382   0.35751   0.45494   0.00000  Uiso   1.00
C231   C     0.69434   0.58601   0.68051   0.00000  Uiso   1.00
C232   C     0.79266   0.62440   0.64527   0.00000  Uiso   1.00
C233   C     0.85176   0.59611   0.56647   0.00000  Uiso   1.00
C234   C     0.93893   0.63980   0.54601   0.00000  Uiso   1.00
C235   C     0.08743   0.68888   0.48272   0.00000  Uiso   1.00
C236   C     0.55749   0.64854   0.73150   0.00000  Uiso   1.00
C237   C     0.41885   0.64054   0.72521   0.00000  Uiso   1.00
C238   C     0.30804   0.70455   0.77737   0.00000  Uiso   1.00
C239   C     0.09141   0.79108   0.84799   0.00000  Uiso   1.00
C240   C     0.76694   0.57272   0.73589   0.00000  Uiso   1.00
C241   C     0.80439   0.50098   0.73331   0.00000  Uiso   1.00
C242   C     0.86990   0.50115   0.78916   0.00000  Uiso   1.00
C243   C     0.97848   0.46996   0.86660   0.00000  Uiso   1.00
C244   C     0.74406   0.71390   0.78432   0.00000  Uiso   1.00
C245   C     0.81966   0.69387   0.70165   0.00000  Uiso   1.00
C246   C     0.90677   0.73761   0.68132   0.00000  Uiso   1.00
C247   C     0.96599   0.70939   0.60250   0.00000  Uiso   1.00
C248   C     0.58448   0.71801   0.78789   0.00000  Uiso   1.00
C249   C     0.47385   0.78204   0.84007   0.00000  Uiso   1.00
C250   C     0.33509   0.77414   0.83385   0.00000  Uiso   1.00
C251   C     0.79395   0.64219   0.79227   0.00000  Uiso   1.00
C252   C     0.85940   0.64247   0.84815   0.00000  Uiso   1.00
C253   C     0.89695   0.57074   0.84565   0.00000  Uiso   1.00
H254   H     0.67331   0.53193   0.63661   0.00000  Uiso   1.00
H255   H     0.83083   0.54236   0.52285   0.00000  Uiso   1.00
H256   H     0.39799   0.58678   0.68158   0.00000  Uiso   1.00
H257   H     0.78347   0.44723   0.68966   0.00000  Uiso   1.00
H258   H     0.01733   0.58457   0.42158   0.00000  Uiso   1.00
H259   H     0.10466   0.67822   0.75629   0.00000  Uiso   1.00
H260   H     0.91753   0.38396   0.77335   0.00000  Uiso   1.00
H261   H     0.76508   0.76798   0.82822   0.00000  Uiso   1.00
H262   H     0.92764   0.79136   0.72496   0.00000  Uiso   1.00
H263   H     0.49479   0.83578   0.88369   0.00000  Uiso   1.00
H264   H     0.88028   0.69624   0.89178   0.00000  Uiso   1.00
H265   H     0.09590   0.78668   0.58563   0.00000  Uiso   1.00
H266   H     0.18322   0.88032   0.92034   0.00000  Uiso   1.00
H267   H     0.99609   0.58607   0.93739   0.00000  Uiso   1.00
O268   O     0.16186   0.69676   0.43222   0.00000  Uiso   1.00
O269   O     0.96446   0.81961   0.87136   0.00000  Uiso   1.00
O270   O     0.03093   0.43356   0.89373   0.00000  Uiso   1.00
N271   N     0.01354   0.62892   0.47436   0.00000  Uiso   1.00
N272   N     0.16024   0.71648   0.78729   0.00000  Uiso   1.00
N273   N     0.92017   0.44138   0.80324   0.00000  Uiso   1.00
N274   N     0.05582   0.73767   0.56263   0.00000  Uiso   1.00
N275   N     0.20252   0.82523   0.87556   0.00000  Uiso   1.00
N276   N     0.96245   0.55013   0.89151   0.00000  Uiso   1.00
