data_job_03910
_audit_creation_date              2018-12-19
_audit_creation_method            'Materials Studio'
_symmetry_space_group_name_H-M    'P1'
_symmetry_Int_Tables_number       1
_symmetry_cell_setting            triclinic
loop_
_symmetry_equiv_pos_as_xyz
  x,y,z
_cell_length_a                    13.5788
_cell_length_b                    11.7878
_cell_length_c                    30.7654
_cell_angle_alpha                 90.0000
_cell_angle_beta                  130.5984
_cell_angle_gamma                 90.0000
loop_
_atom_site_label
_atom_site_type_symbol
_atom_site_fract_x
_atom_site_fract_y
_atom_site_fract_z
_atom_site_U_iso_or_equiv
_atom_site_adp_type
_atom_site_occupancy
C1     C     0.12297   0.28265   0.61245   0.00000  Uiso   1.00
C2     C     0.07940   0.40239   0.61171   0.00000  Uiso   1.00
C3     C     0.13201   0.50217   0.61063   0.00000  Uiso   1.00
C4     C     0.07861   0.60315   0.61010   0.00000  Uiso   1.00
C5     C     0.02656   0.78892   0.60890   0.00000  Uiso   1.00
C6     C     0.15789   0.22509   0.66530   0.00000  Uiso   1.00
C7     C     0.27650   0.17578   0.70927   0.00000  Uiso   1.00
C8     C     0.28916   0.12749   0.75385   0.00000  Uiso   1.00
C9     C     0.35895   0.03792   0.83583   0.00000  Uiso   1.00
C10    C     0.00253   0.22177   0.56103   0.00000  Uiso   1.00
C11    C     0.99051   0.16964   0.51733   0.00000  Uiso   1.00
C12    C     0.87237   0.11853   0.47413   0.00000  Uiso   1.00
C13    C     0.70093   0.02381   0.39420   0.00000  Uiso   1.00
C14    C     0.93456   0.28455   0.61344   0.00000  Uiso   1.00
C15    C     0.97706   0.40342   0.61225   0.00000  Uiso   1.00
C16    C     0.92356   0.50428   0.61172   0.00000  Uiso   1.00
C17    C     0.97609   0.60419   0.61064   0.00000  Uiso   1.00
C18    C     0.05556   0.22612   0.66584   0.00000  Uiso   1.00
C19    C     0.06805   0.17788   0.71036   0.00000  Uiso   1.00
C20    C     0.18665   0.12852   0.75439   0.00000  Uiso   1.00
C21    C     0.90019   0.22280   0.56156   0.00000  Uiso   1.00
C22    C     0.78205   0.17175   0.51842   0.00000  Uiso   1.00
C23    C     0.76985   0.11956   0.47467   0.00000  Uiso   1.00
H24    H     0.20265   0.28184   0.61204   0.00000  Uiso   1.00
H25    H     0.21122   0.50133   0.61022   0.00000  Uiso   1.00
H26    H     0.35567   0.17498   0.70884   0.00000  Uiso   1.00
H27    H     0.06972   0.16885   0.51693   0.00000  Uiso   1.00
H28    H     0.17562   0.74514   0.60846   0.00000  Uiso   1.00
H29    H     0.48019   0.05698   0.81640   0.00000  Uiso   1.00
H30    H     0.87721   0.04405   0.41172   0.00000  Uiso   1.00
H31    H     0.85489   0.28535   0.61386   0.00000  Uiso   1.00
H32    H     0.84437   0.50505   0.61214   0.00000  Uiso   1.00
H33    H     0.98883   0.17869   0.71076   0.00000  Uiso   1.00
H34    H     0.70288   0.17257   0.51885   0.00000  Uiso   1.00
H35    H     0.87788   0.74816   0.61002   0.00000  Uiso   1.00
H36    H     0.18246   0.05999   0.81796   0.00000  Uiso   1.00
H37    H     0.57947   0.04706   0.41328   0.00000  Uiso   1.00
O38    O     0.02613   0.89111   0.60809   0.00000  Uiso   1.00
O39    O     0.42572   0.98824   0.88090   0.00000  Uiso   1.00
O40    O     0.63462   0.97129   0.34997   0.00000  Uiso   1.00
N41    N     0.10697   0.71570   0.60905   0.00000  Uiso   1.00
N42    N     0.39174   0.07232   0.80347   0.00000  Uiso   1.00
N43    N     0.82802   0.06021   0.42514   0.00000  Uiso   1.00
N44    N     0.94676   0.71732   0.60989   0.00000  Uiso   1.00
N45    N     0.23153   0.07395   0.80431   0.00000  Uiso   1.00
N46    N     0.66780   0.06183   0.42597   0.00000  Uiso   1.00
C47    C     0.87703   0.28265   0.88755   0.00000  Uiso   1.00
C48    C     0.92060   0.40239   0.88829   0.00000  Uiso   1.00
C49    C     0.86799   0.50217   0.88937   0.00000  Uiso   1.00
C50    C     0.92139   0.60315   0.88990   0.00000  Uiso   1.00
C51    C     0.97344   0.78892   0.89110   0.00000  Uiso   1.00
C52    C     0.84211   0.22509   0.83470   0.00000  Uiso   1.00
C53    C     0.72350   0.17578   0.79073   0.00000  Uiso   1.00
C54    C     0.71084   0.12749   0.74615   0.00000  Uiso   1.00
C55    C     0.64105   0.03792   0.66417   0.00000  Uiso   1.00
C56    C     0.99747   0.22177   0.93897   0.00000  Uiso   1.00
C57    C     0.00949   0.16964   0.98267   0.00000  Uiso   1.00
C58    C     0.12763   0.11853   0.02587   0.00000  Uiso   1.00
C59    C     0.29907   0.02381   0.10580   0.00000  Uiso   1.00
C60    C     0.06544   0.28455   0.88656   0.00000  Uiso   1.00
C61    C     0.02294   0.40342   0.88775   0.00000  Uiso   1.00
C62    C     0.07644   0.50428   0.88828   0.00000  Uiso   1.00
C63    C     0.02391   0.60419   0.88936   0.00000  Uiso   1.00
C64    C     0.94444   0.22612   0.83416   0.00000  Uiso   1.00
C65    C     0.93195   0.17788   0.78964   0.00000  Uiso   1.00
C66    C     0.81335   0.12852   0.74561   0.00000  Uiso   1.00
C67    C     0.09981   0.22280   0.93844   0.00000  Uiso   1.00
C68    C     0.21795   0.17175   0.98158   0.00000  Uiso   1.00
C69    C     0.23015   0.11956   0.02533   0.00000  Uiso   1.00
H70    H     0.79735   0.28184   0.88796   0.00000  Uiso   1.00
H71    H     0.78878   0.50133   0.88978   0.00000  Uiso   1.00
H72    H     0.64433   0.17498   0.79116   0.00000  Uiso   1.00
H73    H     0.93028   0.16885   0.98307   0.00000  Uiso   1.00
H74    H     0.82438   0.74514   0.89154   0.00000  Uiso   1.00
H75    H     0.51981   0.05698   0.68360   0.00000  Uiso   1.00
H76    H     0.12279   0.04405   0.08828   0.00000  Uiso   1.00
H77    H     0.14511   0.28535   0.88614   0.00000  Uiso   1.00
H78    H     0.15563   0.50505   0.88786   0.00000  Uiso   1.00
H79    H     0.01117   0.17869   0.78924   0.00000  Uiso   1.00
H80    H     0.29712   0.17257   0.98115   0.00000  Uiso   1.00
H81    H     0.12212   0.74816   0.88998   0.00000  Uiso   1.00
H82    H     0.81754   0.05999   0.68204   0.00000  Uiso   1.00
H83    H     0.42053   0.04706   0.08672   0.00000  Uiso   1.00
O84    O     0.97387   0.89111   0.89191   0.00000  Uiso   1.00
O85    O     0.57428   0.98824   0.61910   0.00000  Uiso   1.00
O86    O     0.36538   0.97129   0.15003   0.00000  Uiso   1.00
N87    N     0.89303   0.71570   0.89095   0.00000  Uiso   1.00
N88    N     0.60826   0.07232   0.69653   0.00000  Uiso   1.00
N89    N     0.17198   0.06021   0.07486   0.00000  Uiso   1.00
N90    N     0.05324   0.71732   0.89011   0.00000  Uiso   1.00
N91    N     0.76847   0.07395   0.69569   0.00000  Uiso   1.00
N92    N     0.33220   0.06183   0.07403   0.00000  Uiso   1.00
C93    C     0.87703   0.71735   0.38755   0.00000  Uiso   1.00
C94    C     0.92060   0.59761   0.38829   0.00000  Uiso   1.00
C95    C     0.86799   0.49783   0.38937   0.00000  Uiso   1.00
C96    C     0.92139   0.39685   0.38990   0.00000  Uiso   1.00
C97    C     0.97344   0.21108   0.39110   0.00000  Uiso   1.00
C98    C     0.84211   0.77491   0.33470   0.00000  Uiso   1.00
C99    C     0.72350   0.82422   0.29073   0.00000  Uiso   1.00
C100   C     0.71084   0.87251   0.24615   0.00000  Uiso   1.00
C101   C     0.64105   0.96208   0.16417   0.00000  Uiso   1.00
C102   C     0.99747   0.77823   0.43897   0.00000  Uiso   1.00
C103   C     0.00949   0.83036   0.48267   0.00000  Uiso   1.00
C104   C     0.12763   0.88147   0.52587   0.00000  Uiso   1.00
C105   C     0.29907   0.97619   0.60580   0.00000  Uiso   1.00
C106   C     0.06544   0.71545   0.38656   0.00000  Uiso   1.00
C107   C     0.02294   0.59658   0.38775   0.00000  Uiso   1.00
C108   C     0.07644   0.49572   0.38828   0.00000  Uiso   1.00
C109   C     0.02391   0.39581   0.38936   0.00000  Uiso   1.00
C110   C     0.94444   0.77388   0.33416   0.00000  Uiso   1.00
C111   C     0.93195   0.82212   0.28964   0.00000  Uiso   1.00
C112   C     0.81335   0.87148   0.24561   0.00000  Uiso   1.00
C113   C     0.09981   0.77720   0.43844   0.00000  Uiso   1.00
C114   C     0.21795   0.82825   0.48158   0.00000  Uiso   1.00
C115   C     0.23015   0.88044   0.52533   0.00000  Uiso   1.00
H116   H     0.79735   0.71816   0.38796   0.00000  Uiso   1.00
H117   H     0.78878   0.49867   0.38978   0.00000  Uiso   1.00
H118   H     0.64433   0.82502   0.29116   0.00000  Uiso   1.00
H119   H     0.93028   0.83115   0.48307   0.00000  Uiso   1.00
H120   H     0.82438   0.25486   0.39154   0.00000  Uiso   1.00
H121   H     0.51981   0.94302   0.18360   0.00000  Uiso   1.00
H122   H     0.12279   0.95595   0.58828   0.00000  Uiso   1.00
H123   H     0.14511   0.71465   0.38614   0.00000  Uiso   1.00
H124   H     0.15563   0.49495   0.38786   0.00000  Uiso   1.00
H125   H     0.01117   0.82131   0.28924   0.00000  Uiso   1.00
H126   H     0.29712   0.82743   0.48115   0.00000  Uiso   1.00
H127   H     0.12212   0.25184   0.38998   0.00000  Uiso   1.00
H128   H     0.81754   0.94001   0.18204   0.00000  Uiso   1.00
H129   H     0.42053   0.95294   0.58672   0.00000  Uiso   1.00
O130   O     0.97387   0.10889   0.39191   0.00000  Uiso   1.00
O131   O     0.57428   0.01176   0.11910   0.00000  Uiso   1.00
O132   O     0.36538   0.02871   0.65003   0.00000  Uiso   1.00
N133   N     0.89303   0.28430   0.39095   0.00000  Uiso   1.00
N134   N     0.60826   0.92768   0.19653   0.00000  Uiso   1.00
N135   N     0.17198   0.93979   0.57486   0.00000  Uiso   1.00
N136   N     0.05324   0.28268   0.39011   0.00000  Uiso   1.00
N137   N     0.76847   0.92605   0.19569   0.00000  Uiso   1.00
N138   N     0.33220   0.93817   0.57403   0.00000  Uiso   1.00
C139   C     0.12297   0.71735   0.11245   0.00000  Uiso   1.00
C140   C     0.07940   0.59761   0.11171   0.00000  Uiso   1.00
C141   C     0.13201   0.49783   0.11063   0.00000  Uiso   1.00
C142   C     0.07861   0.39685   0.11010   0.00000  Uiso   1.00
C143   C     0.02656   0.21108   0.10890   0.00000  Uiso   1.00
C144   C     0.15789   0.77491   0.16530   0.00000  Uiso   1.00
C145   C     0.27650   0.82422   0.20927   0.00000  Uiso   1.00
C146   C     0.28916   0.87251   0.25385   0.00000  Uiso   1.00
C147   C     0.35895   0.96208   0.33583   0.00000  Uiso   1.00
C148   C     0.00253   0.77823   0.06103   0.00000  Uiso   1.00
C149   C     0.99051   0.83036   0.01733   0.00000  Uiso   1.00
C150   C     0.87237   0.88147   0.97413   0.00000  Uiso   1.00
C151   C     0.70093   0.97619   0.89420   0.00000  Uiso   1.00
C152   C     0.93456   0.71545   0.11344   0.00000  Uiso   1.00
C153   C     0.97706   0.59658   0.11225   0.00000  Uiso   1.00
C154   C     0.92356   0.49572   0.11172   0.00000  Uiso   1.00
C155   C     0.97609   0.39581   0.11064   0.00000  Uiso   1.00
C156   C     0.05556   0.77388   0.16584   0.00000  Uiso   1.00
C157   C     0.06805   0.82212   0.21036   0.00000  Uiso   1.00
C158   C     0.18665   0.87148   0.25439   0.00000  Uiso   1.00
C159   C     0.90019   0.77720   0.06156   0.00000  Uiso   1.00
C160   C     0.78205   0.82825   0.01842   0.00000  Uiso   1.00
C161   C     0.76985   0.88044   0.97467   0.00000  Uiso   1.00
H162   H     0.20265   0.71816   0.11204   0.00000  Uiso   1.00
H163   H     0.21122   0.49867   0.11022   0.00000  Uiso   1.00
H164   H     0.35567   0.82502   0.20884   0.00000  Uiso   1.00
H165   H     0.06972   0.83115   0.01693   0.00000  Uiso   1.00
H166   H     0.17562   0.25486   0.10846   0.00000  Uiso   1.00
H167   H     0.48019   0.94302   0.31640   0.00000  Uiso   1.00
H168   H     0.87721   0.95595   0.91172   0.00000  Uiso   1.00
H169   H     0.85489   0.71465   0.11386   0.00000  Uiso   1.00
H170   H     0.84437   0.49495   0.11214   0.00000  Uiso   1.00
H171   H     0.98883   0.82131   0.21076   0.00000  Uiso   1.00
H172   H     0.70288   0.82743   0.01885   0.00000  Uiso   1.00
H173   H     0.87788   0.25184   0.11002   0.00000  Uiso   1.00
H174   H     0.18246   0.94001   0.31796   0.00000  Uiso   1.00
H175   H     0.57947   0.95294   0.91328   0.00000  Uiso   1.00
O176   O     0.02613   0.10889   0.10809   0.00000  Uiso   1.00
O177   O     0.42572   0.01176   0.38090   0.00000  Uiso   1.00
O178   O     0.63462   0.02871   0.84997   0.00000  Uiso   1.00
N179   N     0.10697   0.28430   0.10905   0.00000  Uiso   1.00
N180   N     0.39174   0.92768   0.30347   0.00000  Uiso   1.00
N181   N     0.82802   0.93979   0.92514   0.00000  Uiso   1.00
N182   N     0.94676   0.28268   0.10989   0.00000  Uiso   1.00
N183   N     0.23153   0.92605   0.30431   0.00000  Uiso   1.00
N184   N     0.66780   0.93817   0.92597   0.00000  Uiso   1.00
