data_job_00704
_audit_creation_date              2018-12-19
_audit_creation_method            'Materials Studio'
_symmetry_space_group_name_H-M    'P1'
_symmetry_Int_Tables_number       1
_symmetry_cell_setting            triclinic
loop_
_symmetry_equiv_pos_as_xyz
  x,y,z
_cell_length_a                    22.3515
_cell_length_b                    22.3515
_cell_length_c                    20.4383
_cell_angle_alpha                 90.0000
_cell_angle_beta                  90.0000
_cell_angle_gamma                 120.0000
loop_
_atom_site_label
_atom_site_type_symbol
_atom_site_fract_x
_atom_site_fract_y
_atom_site_fract_z
_atom_site_U_iso_or_equiv
_atom_site_adp_type
_atom_site_occupancy
C1     C     0.06063   0.43064   0.13629   0.00000  Uiso   1.00
C2     C     0.07688   0.38066   0.10033   0.00000  Uiso   1.00
C3     C     0.13455   0.39903   0.06166   0.00000  Uiso   1.00
C4     C     0.13997   0.34563   0.03296   0.00000  Uiso   1.00
C5     C     0.17286   0.27856   0.97563   0.00000  Uiso   1.00
C6     C     0.98938   0.41446   0.11261   0.00000  Uiso   1.00
C7     C     0.97349   0.46124   0.08428   0.00000  Uiso   1.00
C8     C     0.90525   0.43629   0.06592   0.00000  Uiso   1.00
C9     C     0.80228   0.42170   0.02769   0.00000  Uiso   1.00
C10    C     0.05195   0.40944   0.20812   0.00000  Uiso   1.00
C11    C     0.08865   0.45201   0.26009   0.00000  Uiso   1.00
C12    C     0.07307   0.42285   0.32215   0.00000  Uiso   1.00
C13    C     0.06725   0.40047   0.43221   0.00000  Uiso   1.00
C14    C     0.96769   0.30316   0.15408   0.00000  Uiso   1.00
C15    C     0.02639   0.31142   0.11000   0.00000  Uiso   1.00
C16    C     0.03172   0.25798   0.08135   0.00000  Uiso   1.00
C17    C     0.08940   0.27626   0.04264   0.00000  Uiso   1.00
C18    C     0.93890   0.34522   0.12227   0.00000  Uiso   1.00
C19    C     0.87066   0.32019   0.10396   0.00000  Uiso   1.00
C20    C     0.85467   0.36692   0.07560   0.00000  Uiso   1.00
C21    C     0.00146   0.34020   0.21778   0.00000  Uiso   1.00
C22    C     0.98582   0.31097   0.27977   0.00000  Uiso   1.00
C23    C     0.02249   0.35348   0.33183   0.00000  Uiso   1.00
H24    H     0.09993   0.48455   0.12877   0.00000  Uiso   1.00
H25    H     0.17361   0.45262   0.05419   0.00000  Uiso   1.00
H26    H     0.01257   0.51482   0.07681   0.00000  Uiso   1.00
H27    H     0.12771   0.50559   0.25259   0.00000  Uiso   1.00
H28    H     0.23302   0.38668   0.97575   0.00000  Uiso   1.00
H29    H     0.89345   0.51784   0.02346   0.00000  Uiso   1.00
H30    H     0.13625   0.49839   0.39414   0.00000  Uiso   1.00
H31    H     0.92838   0.24925   0.16161   0.00000  Uiso   1.00
H32    H     0.99265   0.20440   0.08883   0.00000  Uiso   1.00
H33    H     0.83161   0.26661   0.11145   0.00000  Uiso   1.00
H34    H     0.94675   0.25738   0.28723   0.00000  Uiso   1.00
H35    H     0.08614   0.18522   0.00387   0.00000  Uiso   1.00
H36    H     0.74657   0.31638   0.05158   0.00000  Uiso   1.00
H37    H     0.98937   0.29693   0.42225   0.00000  Uiso   1.00
O38    O     0.20494   0.26070   0.94133   0.00000  Uiso   1.00
O39    O     0.75944   0.43278   0.00393   0.00000  Uiso   1.00
O40    O     0.07799   0.40726   0.49025   0.00000  Uiso   1.00
N41    N     0.18964   0.34542   0.99237   0.00000  Uiso   1.00
N42    N     0.87216   0.46805   0.03696   0.00000  Uiso   1.00
N43    N     0.09915   0.44987   0.38352   0.00000  Uiso   1.00
N44    N     0.11060   0.23702   0.00750   0.00000  Uiso   1.00
N45    N     0.79313   0.35964   0.05209   0.00000  Uiso   1.00
N46    N     0.02011   0.34146   0.39865   0.00000  Uiso   1.00
C47    C     0.56936   0.62999   0.13629   0.00000  Uiso   1.00
C48    C     0.61934   0.69621   0.10033   0.00000  Uiso   1.00
C49    C     0.60097   0.73553   0.06166   0.00000  Uiso   1.00
C50    C     0.65437   0.79434   0.03296   0.00000  Uiso   1.00
C51    C     0.72144   0.89429   0.97563   0.00000  Uiso   1.00
C52    C     0.58554   0.57492   0.11261   0.00000  Uiso   1.00
C53    C     0.53876   0.51225   0.08428   0.00000  Uiso   1.00
C54    C     0.56371   0.46896   0.06592   0.00000  Uiso   1.00
C55    C     0.57830   0.38059   0.02769   0.00000  Uiso   1.00
C56    C     0.59056   0.64250   0.20812   0.00000  Uiso   1.00
C57    C     0.54799   0.63663   0.26009   0.00000  Uiso   1.00
C58    C     0.57715   0.65022   0.32215   0.00000  Uiso   1.00
C59    C     0.59953   0.66677   0.43221   0.00000  Uiso   1.00
C60    C     0.69684   0.66453   0.15408   0.00000  Uiso   1.00
C61    C     0.68858   0.71497   0.11000   0.00000  Uiso   1.00
C62    C     0.74202   0.77374   0.08135   0.00000  Uiso   1.00
C63    C     0.72374   0.81313   0.04264   0.00000  Uiso   1.00
C64    C     0.65478   0.59368   0.12227   0.00000  Uiso   1.00
C65    C     0.67981   0.55047   0.10396   0.00000  Uiso   1.00
C66    C     0.63308   0.48775   0.07560   0.00000  Uiso   1.00
C67    C     0.65980   0.66126   0.21778   0.00000  Uiso   1.00
C68    C     0.68903   0.67485   0.27977   0.00000  Uiso   1.00
C69    C     0.64652   0.66901   0.33183   0.00000  Uiso   1.00
H70    H     0.51545   0.61538   0.12877   0.00000  Uiso   1.00
H71    H     0.54738   0.72099   0.05419   0.00000  Uiso   1.00
H72    H     0.48518   0.49775   0.07681   0.00000  Uiso   1.00
H73    H     0.49441   0.62212   0.25259   0.00000  Uiso   1.00
H74    H     0.61332   0.84633   0.97575   0.00000  Uiso   1.00
H75    H     0.48216   0.37561   0.02346   0.00000  Uiso   1.00
H76    H     0.50161   0.63786   0.39414   0.00000  Uiso   1.00
H77    H     0.75075   0.67913   0.16161   0.00000  Uiso   1.00
H78    H     0.79560   0.78824   0.08883   0.00000  Uiso   1.00
H79    H     0.73339   0.56500   0.11145   0.00000  Uiso   1.00
H80    H     0.74262   0.68937   0.28723   0.00000  Uiso   1.00
H81    H     0.81478   0.90092   0.00387   0.00000  Uiso   1.00
H82    H     0.68362   0.43019   0.05158   0.00000  Uiso   1.00
H83    H     0.70307   0.69244   0.42225   0.00000  Uiso   1.00
O84    O     0.73930   0.94424   0.94133   0.00000  Uiso   1.00
O85    O     0.56722   0.32666   0.00393   0.00000  Uiso   1.00
O86    O     0.59274   0.67073   0.49025   0.00000  Uiso   1.00
N87    N     0.65458   0.84421   0.99237   0.00000  Uiso   1.00
N88    N     0.53195   0.40412   0.03696   0.00000  Uiso   1.00
N89    N     0.55013   0.64928   0.38352   0.00000  Uiso   1.00
N90    N     0.76298   0.87358   0.00750   0.00000  Uiso   1.00
N91    N     0.64036   0.43349   0.05209   0.00000  Uiso   1.00
N92    N     0.65854   0.67865   0.39865   0.00000  Uiso   1.00
C93    C     0.37001   0.93937   0.13629   0.00000  Uiso   1.00
C94    C     0.30379   0.92312   0.10033   0.00000  Uiso   1.00
C95    C     0.26447   0.86545   0.06166   0.00000  Uiso   1.00
C96    C     0.20566   0.86003   0.03296   0.00000  Uiso   1.00
C97    C     0.10571   0.82714   0.97563   0.00000  Uiso   1.00
C98    C     0.42508   0.01062   0.11261   0.00000  Uiso   1.00
C99    C     0.48775   0.02651   0.08428   0.00000  Uiso   1.00
C100   C     0.53104   0.09475   0.06592   0.00000  Uiso   1.00
C101   C     0.61941   0.19772   0.02769   0.00000  Uiso   1.00
C102   C     0.35750   0.94805   0.20812   0.00000  Uiso   1.00
C103   C     0.36337   0.91135   0.26009   0.00000  Uiso   1.00
C104   C     0.34978   0.92693   0.32215   0.00000  Uiso   1.00
C105   C     0.33323   0.93275   0.43221   0.00000  Uiso   1.00
C106   C     0.33547   0.03231   0.15408   0.00000  Uiso   1.00
C107   C     0.28503   0.97361   0.11000   0.00000  Uiso   1.00
C108   C     0.22626   0.96828   0.08135   0.00000  Uiso   1.00
C109   C     0.18687   0.91060   0.04264   0.00000  Uiso   1.00
C110   C     0.40632   0.06110   0.12227   0.00000  Uiso   1.00
C111   C     0.44953   0.12934   0.10396   0.00000  Uiso   1.00
C112   C     0.51225   0.14533   0.07560   0.00000  Uiso   1.00
C113   C     0.33874   0.99854   0.21778   0.00000  Uiso   1.00
C114   C     0.32515   0.01418   0.27977   0.00000  Uiso   1.00
C115   C     0.33099   0.97751   0.33183   0.00000  Uiso   1.00
H116   H     0.38462   0.90007   0.12877   0.00000  Uiso   1.00
H117   H     0.27901   0.82639   0.05419   0.00000  Uiso   1.00
H118   H     0.50225   0.98743   0.07681   0.00000  Uiso   1.00
H119   H     0.37788   0.87229   0.25259   0.00000  Uiso   1.00
H120   H     0.15367   0.76698   0.97575   0.00000  Uiso   1.00
H121   H     0.62439   0.10655   0.02346   0.00000  Uiso   1.00
H122   H     0.36214   0.86375   0.39414   0.00000  Uiso   1.00
H123   H     0.32087   0.07162   0.16161   0.00000  Uiso   1.00
H124   H     0.21176   0.00735   0.08883   0.00000  Uiso   1.00
H125   H     0.43500   0.16839   0.11145   0.00000  Uiso   1.00
H126   H     0.31063   0.05325   0.28723   0.00000  Uiso   1.00
H127   H     0.09908   0.91386   0.00387   0.00000  Uiso   1.00
H128   H     0.56981   0.25343   0.05158   0.00000  Uiso   1.00
H129   H     0.30756   0.01063   0.42225   0.00000  Uiso   1.00
O130   O     0.05576   0.79506   0.94133   0.00000  Uiso   1.00
O131   O     0.67334   0.24056   0.00393   0.00000  Uiso   1.00
O132   O     0.32927   0.92201   0.49025   0.00000  Uiso   1.00
N133   N     0.15579   0.81036   0.99237   0.00000  Uiso   1.00
N134   N     0.59588   0.12784   0.03696   0.00000  Uiso   1.00
N135   N     0.35072   0.90085   0.38352   0.00000  Uiso   1.00
N136   N     0.12642   0.88940   0.00750   0.00000  Uiso   1.00
N137   N     0.56651   0.20687   0.05209   0.00000  Uiso   1.00
N138   N     0.32135   0.97989   0.39865   0.00000  Uiso   1.00
C139   C     0.93937   0.56936   0.63629   0.00000  Uiso   1.00
C140   C     0.92312   0.61934   0.60033   0.00000  Uiso   1.00
C141   C     0.86545   0.60097   0.56166   0.00000  Uiso   1.00
C142   C     0.86003   0.65437   0.53296   0.00000  Uiso   1.00
C143   C     0.82714   0.72144   0.47563   0.00000  Uiso   1.00
C144   C     0.01062   0.58554   0.61261   0.00000  Uiso   1.00
C145   C     0.02651   0.53876   0.58428   0.00000  Uiso   1.00
C146   C     0.09475   0.56371   0.56592   0.00000  Uiso   1.00
C147   C     0.19772   0.57830   0.52769   0.00000  Uiso   1.00
C148   C     0.94805   0.59056   0.70812   0.00000  Uiso   1.00
C149   C     0.91135   0.54799   0.76009   0.00000  Uiso   1.00
C150   C     0.92693   0.57715   0.82215   0.00000  Uiso   1.00
C151   C     0.93275   0.59953   0.93221   0.00000  Uiso   1.00
C152   C     0.03231   0.69684   0.65408   0.00000  Uiso   1.00
C153   C     0.97361   0.68858   0.61000   0.00000  Uiso   1.00
C154   C     0.96828   0.74202   0.58135   0.00000  Uiso   1.00
C155   C     0.91060   0.72374   0.54264   0.00000  Uiso   1.00
C156   C     0.06110   0.65478   0.62227   0.00000  Uiso   1.00
C157   C     0.12934   0.67981   0.60396   0.00000  Uiso   1.00
C158   C     0.14533   0.63308   0.57560   0.00000  Uiso   1.00
C159   C     0.99854   0.65980   0.71778   0.00000  Uiso   1.00
C160   C     0.01418   0.68903   0.77977   0.00000  Uiso   1.00
C161   C     0.97751   0.64652   0.83183   0.00000  Uiso   1.00
H162   H     0.90007   0.51545   0.62877   0.00000  Uiso   1.00
H163   H     0.82639   0.54738   0.55419   0.00000  Uiso   1.00
H164   H     0.98743   0.48518   0.57681   0.00000  Uiso   1.00
H165   H     0.87229   0.49441   0.75259   0.00000  Uiso   1.00
H166   H     0.76698   0.61332   0.47575   0.00000  Uiso   1.00
H167   H     0.10655   0.48216   0.52346   0.00000  Uiso   1.00
H168   H     0.86375   0.50161   0.89414   0.00000  Uiso   1.00
H169   H     0.07162   0.75075   0.66161   0.00000  Uiso   1.00
H170   H     0.00735   0.79560   0.58883   0.00000  Uiso   1.00
H171   H     0.16839   0.73339   0.61145   0.00000  Uiso   1.00
H172   H     0.05325   0.74262   0.78723   0.00000  Uiso   1.00
H173   H     0.91386   0.81478   0.50387   0.00000  Uiso   1.00
H174   H     0.25343   0.68362   0.55158   0.00000  Uiso   1.00
H175   H     0.01063   0.70307   0.92225   0.00000  Uiso   1.00
O176   O     0.79506   0.73930   0.44133   0.00000  Uiso   1.00
O177   O     0.24056   0.56722   0.50393   0.00000  Uiso   1.00
O178   O     0.92201   0.59274   0.99025   0.00000  Uiso   1.00
N179   N     0.81036   0.65458   0.49237   0.00000  Uiso   1.00
N180   N     0.12784   0.53195   0.53696   0.00000  Uiso   1.00
N181   N     0.90085   0.55013   0.88352   0.00000  Uiso   1.00
N182   N     0.88940   0.76298   0.50750   0.00000  Uiso   1.00
N183   N     0.20687   0.64036   0.55209   0.00000  Uiso   1.00
N184   N     0.97989   0.65854   0.89865   0.00000  Uiso   1.00
C185   C     0.43064   0.37001   0.63629   0.00000  Uiso   1.00
C186   C     0.38066   0.30379   0.60033   0.00000  Uiso   1.00
C187   C     0.39903   0.26447   0.56166   0.00000  Uiso   1.00
C188   C     0.34563   0.20566   0.53296   0.00000  Uiso   1.00
C189   C     0.27856   0.10571   0.47563   0.00000  Uiso   1.00
C190   C     0.41446   0.42508   0.61261   0.00000  Uiso   1.00
C191   C     0.46124   0.48775   0.58428   0.00000  Uiso   1.00
C192   C     0.43629   0.53104   0.56592   0.00000  Uiso   1.00
C193   C     0.42170   0.61941   0.52769   0.00000  Uiso   1.00
C194   C     0.40944   0.35750   0.70812   0.00000  Uiso   1.00
C195   C     0.45201   0.36337   0.76009   0.00000  Uiso   1.00
C196   C     0.42285   0.34978   0.82215   0.00000  Uiso   1.00
C197   C     0.40047   0.33323   0.93221   0.00000  Uiso   1.00
C198   C     0.30316   0.33547   0.65408   0.00000  Uiso   1.00
C199   C     0.31142   0.28503   0.61000   0.00000  Uiso   1.00
C200   C     0.25798   0.22626   0.58135   0.00000  Uiso   1.00
C201   C     0.27626   0.18687   0.54264   0.00000  Uiso   1.00
C202   C     0.34522   0.40632   0.62227   0.00000  Uiso   1.00
C203   C     0.32019   0.44953   0.60396   0.00000  Uiso   1.00
C204   C     0.36692   0.51225   0.57560   0.00000  Uiso   1.00
C205   C     0.34020   0.33874   0.71778   0.00000  Uiso   1.00
C206   C     0.31097   0.32515   0.77977   0.00000  Uiso   1.00
C207   C     0.35348   0.33099   0.83183   0.00000  Uiso   1.00
H208   H     0.48455   0.38462   0.62877   0.00000  Uiso   1.00
H209   H     0.45262   0.27901   0.55419   0.00000  Uiso   1.00
H210   H     0.51482   0.50225   0.57681   0.00000  Uiso   1.00
H211   H     0.50559   0.37788   0.75259   0.00000  Uiso   1.00
H212   H     0.38668   0.15367   0.47575   0.00000  Uiso   1.00
H213   H     0.51784   0.62439   0.52346   0.00000  Uiso   1.00
H214   H     0.49839   0.36214   0.89414   0.00000  Uiso   1.00
H215   H     0.24925   0.32087   0.66161   0.00000  Uiso   1.00
H216   H     0.20440   0.21176   0.58883   0.00000  Uiso   1.00
H217   H     0.26661   0.43500   0.61145   0.00000  Uiso   1.00
H218   H     0.25738   0.31063   0.78723   0.00000  Uiso   1.00
H219   H     0.18522   0.09908   0.50387   0.00000  Uiso   1.00
H220   H     0.31638   0.56981   0.55158   0.00000  Uiso   1.00
H221   H     0.29693   0.30756   0.92225   0.00000  Uiso   1.00
O222   O     0.26070   0.05576   0.44133   0.00000  Uiso   1.00
O223   O     0.43278   0.67334   0.50393   0.00000  Uiso   1.00
O224   O     0.40726   0.32927   0.99025   0.00000  Uiso   1.00
N225   N     0.34542   0.15579   0.49237   0.00000  Uiso   1.00
N226   N     0.46805   0.59588   0.53696   0.00000  Uiso   1.00
N227   N     0.44987   0.35072   0.88352   0.00000  Uiso   1.00
N228   N     0.23702   0.12642   0.50750   0.00000  Uiso   1.00
N229   N     0.35964   0.56651   0.55209   0.00000  Uiso   1.00
N230   N     0.34146   0.32135   0.89865   0.00000  Uiso   1.00
C231   C     0.62999   0.06063   0.63629   0.00000  Uiso   1.00
C232   C     0.69621   0.07688   0.60033   0.00000  Uiso   1.00
C233   C     0.73553   0.13455   0.56166   0.00000  Uiso   1.00
C234   C     0.79434   0.13997   0.53296   0.00000  Uiso   1.00
C235   C     0.89429   0.17286   0.47563   0.00000  Uiso   1.00
C236   C     0.57492   0.98938   0.61261   0.00000  Uiso   1.00
C237   C     0.51225   0.97349   0.58428   0.00000  Uiso   1.00
C238   C     0.46896   0.90525   0.56592   0.00000  Uiso   1.00
C239   C     0.38059   0.80228   0.52769   0.00000  Uiso   1.00
C240   C     0.64250   0.05195   0.70812   0.00000  Uiso   1.00
C241   C     0.63663   0.08865   0.76009   0.00000  Uiso   1.00
C242   C     0.65022   0.07307   0.82215   0.00000  Uiso   1.00
C243   C     0.66677   0.06725   0.93221   0.00000  Uiso   1.00
C244   C     0.66453   0.96769   0.65408   0.00000  Uiso   1.00
C245   C     0.71497   0.02639   0.61000   0.00000  Uiso   1.00
C246   C     0.77374   0.03172   0.58135   0.00000  Uiso   1.00
C247   C     0.81313   0.08940   0.54264   0.00000  Uiso   1.00
C248   C     0.59368   0.93890   0.62227   0.00000  Uiso   1.00
C249   C     0.55047   0.87066   0.60396   0.00000  Uiso   1.00
C250   C     0.48775   0.85467   0.57560   0.00000  Uiso   1.00
C251   C     0.66126   0.00146   0.71778   0.00000  Uiso   1.00
C252   C     0.67485   0.98582   0.77977   0.00000  Uiso   1.00
C253   C     0.66901   0.02249   0.83183   0.00000  Uiso   1.00
H254   H     0.61538   0.09993   0.62877   0.00000  Uiso   1.00
H255   H     0.72099   0.17361   0.55419   0.00000  Uiso   1.00
H256   H     0.49775   0.01257   0.57681   0.00000  Uiso   1.00
H257   H     0.62212   0.12771   0.75259   0.00000  Uiso   1.00
H258   H     0.84633   0.23302   0.47575   0.00000  Uiso   1.00
H259   H     0.37561   0.89345   0.52346   0.00000  Uiso   1.00
H260   H     0.63786   0.13625   0.89414   0.00000  Uiso   1.00
H261   H     0.67913   0.92838   0.66161   0.00000  Uiso   1.00
H262   H     0.78824   0.99265   0.58883   0.00000  Uiso   1.00
H263   H     0.56500   0.83161   0.61145   0.00000  Uiso   1.00
H264   H     0.68937   0.94675   0.78723   0.00000  Uiso   1.00
H265   H     0.90092   0.08614   0.50387   0.00000  Uiso   1.00
H266   H     0.43019   0.74657   0.55158   0.00000  Uiso   1.00
H267   H     0.69244   0.98937   0.92225   0.00000  Uiso   1.00
O268   O     0.94424   0.20494   0.44133   0.00000  Uiso   1.00
O269   O     0.32666   0.75944   0.50393   0.00000  Uiso   1.00
O270   O     0.67073   0.07799   0.99025   0.00000  Uiso   1.00
N271   N     0.84421   0.18964   0.49237   0.00000  Uiso   1.00
N272   N     0.40412   0.87216   0.53696   0.00000  Uiso   1.00
N273   N     0.64928   0.09915   0.88352   0.00000  Uiso   1.00
N274   N     0.87358   0.11060   0.50750   0.00000  Uiso   1.00
N275   N     0.43349   0.79313   0.55209   0.00000  Uiso   1.00
N276   N     0.67865   0.02011   0.89865   0.00000  Uiso   1.00
C277   C     0.43064   0.06063   0.86371   0.00000  Uiso   1.00
C278   C     0.38066   0.07688   0.89967   0.00000  Uiso   1.00
C279   C     0.39903   0.13455   0.93834   0.00000  Uiso   1.00
C280   C     0.34563   0.13997   0.96704   0.00000  Uiso   1.00
C281   C     0.27856   0.17286   0.02437   0.00000  Uiso   1.00
C282   C     0.41446   0.98938   0.88739   0.00000  Uiso   1.00
C283   C     0.46124   0.97349   0.91572   0.00000  Uiso   1.00
C284   C     0.43629   0.90525   0.93408   0.00000  Uiso   1.00
C285   C     0.42170   0.80228   0.97231   0.00000  Uiso   1.00
C286   C     0.40944   0.05195   0.79188   0.00000  Uiso   1.00
C287   C     0.45201   0.08865   0.73991   0.00000  Uiso   1.00
C288   C     0.42285   0.07307   0.67785   0.00000  Uiso   1.00
C289   C     0.40047   0.06725   0.56779   0.00000  Uiso   1.00
C290   C     0.30316   0.96769   0.84592   0.00000  Uiso   1.00
C291   C     0.31142   0.02639   0.89000   0.00000  Uiso   1.00
C292   C     0.25798   0.03172   0.91865   0.00000  Uiso   1.00
C293   C     0.27626   0.08940   0.95736   0.00000  Uiso   1.00
C294   C     0.34522   0.93890   0.87773   0.00000  Uiso   1.00
C295   C     0.32019   0.87066   0.89604   0.00000  Uiso   1.00
C296   C     0.36692   0.85467   0.92440   0.00000  Uiso   1.00
C297   C     0.34020   0.00146   0.78222   0.00000  Uiso   1.00
C298   C     0.31097   0.98582   0.72023   0.00000  Uiso   1.00
C299   C     0.35348   0.02249   0.66817   0.00000  Uiso   1.00
H300   H     0.48455   0.09993   0.87123   0.00000  Uiso   1.00
H301   H     0.45262   0.17361   0.94581   0.00000  Uiso   1.00
H302   H     0.51482   0.01257   0.92319   0.00000  Uiso   1.00
H303   H     0.50559   0.12771   0.74741   0.00000  Uiso   1.00
H304   H     0.38668   0.23302   0.02425   0.00000  Uiso   1.00
H305   H     0.51784   0.89345   0.97654   0.00000  Uiso   1.00
H306   H     0.49839   0.13625   0.60586   0.00000  Uiso   1.00
H307   H     0.24925   0.92838   0.83839   0.00000  Uiso   1.00
H308   H     0.20440   0.99265   0.91117   0.00000  Uiso   1.00
H309   H     0.26661   0.83161   0.88855   0.00000  Uiso   1.00
H310   H     0.25738   0.94675   0.71277   0.00000  Uiso   1.00
H311   H     0.18522   0.08614   0.99613   0.00000  Uiso   1.00
H312   H     0.31638   0.74657   0.94842   0.00000  Uiso   1.00
H313   H     0.29693   0.98937   0.57775   0.00000  Uiso   1.00
O314   O     0.26070   0.20494   0.05867   0.00000  Uiso   1.00
O315   O     0.43278   0.75944   0.99607   0.00000  Uiso   1.00
O316   O     0.40726   0.07799   0.50975   0.00000  Uiso   1.00
N317   N     0.34542   0.18964   0.00763   0.00000  Uiso   1.00
N318   N     0.46805   0.87216   0.96304   0.00000  Uiso   1.00
N319   N     0.44987   0.09915   0.61648   0.00000  Uiso   1.00
N320   N     0.23702   0.11060   0.99250   0.00000  Uiso   1.00
N321   N     0.35964   0.79313   0.94791   0.00000  Uiso   1.00
N322   N     0.34146   0.02011   0.60135   0.00000  Uiso   1.00
C323   C     0.62999   0.56936   0.86371   0.00000  Uiso   1.00
C324   C     0.69621   0.61934   0.89967   0.00000  Uiso   1.00
C325   C     0.73553   0.60097   0.93834   0.00000  Uiso   1.00
C326   C     0.79434   0.65437   0.96704   0.00000  Uiso   1.00
C327   C     0.89429   0.72144   0.02437   0.00000  Uiso   1.00
C328   C     0.57492   0.58554   0.88739   0.00000  Uiso   1.00
C329   C     0.51225   0.53876   0.91572   0.00000  Uiso   1.00
C330   C     0.46896   0.56371   0.93408   0.00000  Uiso   1.00
C331   C     0.38059   0.57830   0.97231   0.00000  Uiso   1.00
C332   C     0.64250   0.59056   0.79188   0.00000  Uiso   1.00
C333   C     0.63663   0.54799   0.73991   0.00000  Uiso   1.00
C334   C     0.65022   0.57715   0.67785   0.00000  Uiso   1.00
C335   C     0.66677   0.59953   0.56779   0.00000  Uiso   1.00
C336   C     0.66453   0.69684   0.84592   0.00000  Uiso   1.00
C337   C     0.71497   0.68858   0.89000   0.00000  Uiso   1.00
C338   C     0.77374   0.74202   0.91865   0.00000  Uiso   1.00
C339   C     0.81313   0.72374   0.95736   0.00000  Uiso   1.00
C340   C     0.59368   0.65478   0.87773   0.00000  Uiso   1.00
C341   C     0.55047   0.67981   0.89604   0.00000  Uiso   1.00
C342   C     0.48775   0.63308   0.92440   0.00000  Uiso   1.00
C343   C     0.66126   0.65980   0.78222   0.00000  Uiso   1.00
C344   C     0.67485   0.68903   0.72023   0.00000  Uiso   1.00
C345   C     0.66901   0.64652   0.66817   0.00000  Uiso   1.00
H346   H     0.61538   0.51545   0.87123   0.00000  Uiso   1.00
H347   H     0.72099   0.54738   0.94581   0.00000  Uiso   1.00
H348   H     0.49775   0.48518   0.92319   0.00000  Uiso   1.00
H349   H     0.62212   0.49441   0.74741   0.00000  Uiso   1.00
H350   H     0.84633   0.61332   0.02425   0.00000  Uiso   1.00
H351   H     0.37561   0.48216   0.97654   0.00000  Uiso   1.00
H352   H     0.63786   0.50161   0.60586   0.00000  Uiso   1.00
H353   H     0.67913   0.75075   0.83839   0.00000  Uiso   1.00
H354   H     0.78824   0.79560   0.91117   0.00000  Uiso   1.00
H355   H     0.56500   0.73339   0.88855   0.00000  Uiso   1.00
H356   H     0.68937   0.74262   0.71277   0.00000  Uiso   1.00
H357   H     0.90092   0.81478   0.99613   0.00000  Uiso   1.00
H358   H     0.43019   0.68362   0.94842   0.00000  Uiso   1.00
H359   H     0.69244   0.70307   0.57775   0.00000  Uiso   1.00
O360   O     0.94424   0.73930   0.05867   0.00000  Uiso   1.00
O361   O     0.32666   0.56722   0.99607   0.00000  Uiso   1.00
O362   O     0.67073   0.59274   0.50975   0.00000  Uiso   1.00
N363   N     0.84421   0.65458   0.00763   0.00000  Uiso   1.00
N364   N     0.40412   0.53195   0.96304   0.00000  Uiso   1.00
N365   N     0.64928   0.55013   0.61648   0.00000  Uiso   1.00
N366   N     0.87358   0.76298   0.99250   0.00000  Uiso   1.00
N367   N     0.43349   0.64036   0.94791   0.00000  Uiso   1.00
N368   N     0.67865   0.65854   0.60135   0.00000  Uiso   1.00
C369   C     0.93937   0.37001   0.86371   0.00000  Uiso   1.00
C370   C     0.92312   0.30379   0.89967   0.00000  Uiso   1.00
C371   C     0.86545   0.26447   0.93834   0.00000  Uiso   1.00
C372   C     0.86003   0.20566   0.96704   0.00000  Uiso   1.00
C373   C     0.82714   0.10571   0.02437   0.00000  Uiso   1.00
C374   C     0.01062   0.42508   0.88739   0.00000  Uiso   1.00
C375   C     0.02651   0.48775   0.91572   0.00000  Uiso   1.00
C376   C     0.09475   0.53104   0.93408   0.00000  Uiso   1.00
C377   C     0.19772   0.61941   0.97231   0.00000  Uiso   1.00
C378   C     0.94805   0.35750   0.79188   0.00000  Uiso   1.00
C379   C     0.91135   0.36337   0.73991   0.00000  Uiso   1.00
C380   C     0.92693   0.34978   0.67785   0.00000  Uiso   1.00
C381   C     0.93275   0.33323   0.56779   0.00000  Uiso   1.00
C382   C     0.03231   0.33547   0.84592   0.00000  Uiso   1.00
C383   C     0.97361   0.28503   0.89000   0.00000  Uiso   1.00
C384   C     0.96828   0.22626   0.91865   0.00000  Uiso   1.00
C385   C     0.91060   0.18687   0.95736   0.00000  Uiso   1.00
C386   C     0.06110   0.40632   0.87773   0.00000  Uiso   1.00
C387   C     0.12934   0.44953   0.89604   0.00000  Uiso   1.00
C388   C     0.14533   0.51225   0.92440   0.00000  Uiso   1.00
C389   C     0.99854   0.33874   0.78222   0.00000  Uiso   1.00
C390   C     0.01418   0.32515   0.72023   0.00000  Uiso   1.00
C391   C     0.97751   0.33099   0.66817   0.00000  Uiso   1.00
H392   H     0.90007   0.38462   0.87123   0.00000  Uiso   1.00
H393   H     0.82639   0.27901   0.94581   0.00000  Uiso   1.00
H394   H     0.98743   0.50225   0.92319   0.00000  Uiso   1.00
H395   H     0.87229   0.37788   0.74741   0.00000  Uiso   1.00
H396   H     0.76698   0.15367   0.02425   0.00000  Uiso   1.00
H397   H     0.10655   0.62439   0.97654   0.00000  Uiso   1.00
H398   H     0.86375   0.36214   0.60586   0.00000  Uiso   1.00
H399   H     0.07162   0.32087   0.83839   0.00000  Uiso   1.00
H400   H     0.00735   0.21176   0.91117   0.00000  Uiso   1.00
H401   H     0.16839   0.43500   0.88855   0.00000  Uiso   1.00
H402   H     0.05325   0.31063   0.71277   0.00000  Uiso   1.00
H403   H     0.91386   0.09908   0.99613   0.00000  Uiso   1.00
H404   H     0.25343   0.56981   0.94842   0.00000  Uiso   1.00
H405   H     0.01063   0.30756   0.57775   0.00000  Uiso   1.00
O406   O     0.79506   0.05576   0.05867   0.00000  Uiso   1.00
O407   O     0.24056   0.67334   0.99607   0.00000  Uiso   1.00
O408   O     0.92201   0.32927   0.50975   0.00000  Uiso   1.00
N409   N     0.81036   0.15579   0.00763   0.00000  Uiso   1.00
N410   N     0.12784   0.59588   0.96304   0.00000  Uiso   1.00
N411   N     0.90085   0.35072   0.61648   0.00000  Uiso   1.00
N412   N     0.88940   0.12642   0.99250   0.00000  Uiso   1.00
N413   N     0.20687   0.56651   0.94791   0.00000  Uiso   1.00
N414   N     0.97989   0.32135   0.60135   0.00000  Uiso   1.00
C415   C     0.56936   0.93937   0.36371   0.00000  Uiso   1.00
C416   C     0.61934   0.92312   0.39967   0.00000  Uiso   1.00
C417   C     0.60097   0.86545   0.43834   0.00000  Uiso   1.00
C418   C     0.65437   0.86003   0.46704   0.00000  Uiso   1.00
C419   C     0.72144   0.82714   0.52437   0.00000  Uiso   1.00
C420   C     0.58554   0.01062   0.38739   0.00000  Uiso   1.00
C421   C     0.53876   0.02651   0.41572   0.00000  Uiso   1.00
C422   C     0.56371   0.09475   0.43408   0.00000  Uiso   1.00
C423   C     0.57830   0.19772   0.47231   0.00000  Uiso   1.00
C424   C     0.59056   0.94805   0.29188   0.00000  Uiso   1.00
C425   C     0.54799   0.91135   0.23991   0.00000  Uiso   1.00
C426   C     0.57715   0.92693   0.17785   0.00000  Uiso   1.00
C427   C     0.59953   0.93275   0.06779   0.00000  Uiso   1.00
C428   C     0.69684   0.03231   0.34592   0.00000  Uiso   1.00
C429   C     0.68858   0.97361   0.39000   0.00000  Uiso   1.00
C430   C     0.74202   0.96828   0.41865   0.00000  Uiso   1.00
C431   C     0.72374   0.91060   0.45736   0.00000  Uiso   1.00
C432   C     0.65478   0.06110   0.37773   0.00000  Uiso   1.00
C433   C     0.67981   0.12934   0.39604   0.00000  Uiso   1.00
C434   C     0.63308   0.14533   0.42440   0.00000  Uiso   1.00
C435   C     0.65980   0.99854   0.28222   0.00000  Uiso   1.00
C436   C     0.68903   0.01418   0.22023   0.00000  Uiso   1.00
C437   C     0.64652   0.97751   0.16817   0.00000  Uiso   1.00
H438   H     0.51545   0.90007   0.37123   0.00000  Uiso   1.00
H439   H     0.54738   0.82639   0.44581   0.00000  Uiso   1.00
H440   H     0.48518   0.98743   0.42319   0.00000  Uiso   1.00
H441   H     0.49441   0.87229   0.24741   0.00000  Uiso   1.00
H442   H     0.61332   0.76698   0.52425   0.00000  Uiso   1.00
H443   H     0.48216   0.10655   0.47654   0.00000  Uiso   1.00
H444   H     0.50161   0.86375   0.10586   0.00000  Uiso   1.00
H445   H     0.75075   0.07162   0.33839   0.00000  Uiso   1.00
H446   H     0.79560   0.00735   0.41117   0.00000  Uiso   1.00
H447   H     0.73339   0.16839   0.38855   0.00000  Uiso   1.00
H448   H     0.74262   0.05325   0.21277   0.00000  Uiso   1.00
H449   H     0.81478   0.91386   0.49613   0.00000  Uiso   1.00
H450   H     0.68362   0.25343   0.44842   0.00000  Uiso   1.00
H451   H     0.70307   0.01063   0.07775   0.00000  Uiso   1.00
O452   O     0.73930   0.79506   0.55867   0.00000  Uiso   1.00
O453   O     0.56722   0.24056   0.49607   0.00000  Uiso   1.00
O454   O     0.59274   0.92201   0.00975   0.00000  Uiso   1.00
N455   N     0.65458   0.81036   0.50763   0.00000  Uiso   1.00
N456   N     0.53195   0.12784   0.46304   0.00000  Uiso   1.00
N457   N     0.55013   0.90085   0.11648   0.00000  Uiso   1.00
N458   N     0.76298   0.88940   0.49250   0.00000  Uiso   1.00
N459   N     0.64036   0.20687   0.44791   0.00000  Uiso   1.00
N460   N     0.65854   0.97989   0.10135   0.00000  Uiso   1.00
C461   C     0.37001   0.43064   0.36371   0.00000  Uiso   1.00
C462   C     0.30379   0.38066   0.39967   0.00000  Uiso   1.00
C463   C     0.26447   0.39903   0.43834   0.00000  Uiso   1.00
C464   C     0.20566   0.34563   0.46704   0.00000  Uiso   1.00
C465   C     0.10571   0.27856   0.52437   0.00000  Uiso   1.00
C466   C     0.42508   0.41446   0.38739   0.00000  Uiso   1.00
C467   C     0.48775   0.46124   0.41572   0.00000  Uiso   1.00
C468   C     0.53104   0.43629   0.43408   0.00000  Uiso   1.00
C469   C     0.61941   0.42170   0.47231   0.00000  Uiso   1.00
C470   C     0.35750   0.40944   0.29188   0.00000  Uiso   1.00
C471   C     0.36337   0.45201   0.23991   0.00000  Uiso   1.00
C472   C     0.34978   0.42285   0.17785   0.00000  Uiso   1.00
C473   C     0.33323   0.40047   0.06779   0.00000  Uiso   1.00
C474   C     0.33547   0.30316   0.34592   0.00000  Uiso   1.00
C475   C     0.28503   0.31142   0.39000   0.00000  Uiso   1.00
C476   C     0.22626   0.25798   0.41865   0.00000  Uiso   1.00
C477   C     0.18687   0.27626   0.45736   0.00000  Uiso   1.00
C478   C     0.40632   0.34522   0.37773   0.00000  Uiso   1.00
C479   C     0.44953   0.32019   0.39604   0.00000  Uiso   1.00
C480   C     0.51225   0.36692   0.42440   0.00000  Uiso   1.00
C481   C     0.33874   0.34020   0.28222   0.00000  Uiso   1.00
C482   C     0.32515   0.31097   0.22023   0.00000  Uiso   1.00
C483   C     0.33099   0.35348   0.16817   0.00000  Uiso   1.00
H484   H     0.38462   0.48455   0.37123   0.00000  Uiso   1.00
H485   H     0.27901   0.45262   0.44581   0.00000  Uiso   1.00
H486   H     0.50225   0.51482   0.42319   0.00000  Uiso   1.00
H487   H     0.37788   0.50559   0.24741   0.00000  Uiso   1.00
H488   H     0.15367   0.38668   0.52425   0.00000  Uiso   1.00
H489   H     0.62439   0.51784   0.47654   0.00000  Uiso   1.00
H490   H     0.36214   0.49839   0.10586   0.00000  Uiso   1.00
H491   H     0.32087   0.24925   0.33839   0.00000  Uiso   1.00
H492   H     0.21176   0.20440   0.41117   0.00000  Uiso   1.00
H493   H     0.43500   0.26661   0.38855   0.00000  Uiso   1.00
H494   H     0.31063   0.25738   0.21277   0.00000  Uiso   1.00
H495   H     0.09908   0.18522   0.49613   0.00000  Uiso   1.00
H496   H     0.56981   0.31638   0.44842   0.00000  Uiso   1.00
H497   H     0.30756   0.29693   0.07775   0.00000  Uiso   1.00
O498   O     0.05576   0.26070   0.55867   0.00000  Uiso   1.00
O499   O     0.67334   0.43278   0.49607   0.00000  Uiso   1.00
O500   O     0.32927   0.40726   0.00975   0.00000  Uiso   1.00
N501   N     0.15579   0.34542   0.50763   0.00000  Uiso   1.00
N502   N     0.59588   0.46805   0.46304   0.00000  Uiso   1.00
N503   N     0.35072   0.44987   0.11648   0.00000  Uiso   1.00
N504   N     0.12642   0.23702   0.49250   0.00000  Uiso   1.00
N505   N     0.56651   0.35964   0.44791   0.00000  Uiso   1.00
N506   N     0.32135   0.34146   0.10135   0.00000  Uiso   1.00
C507   C     0.06063   0.62999   0.36371   0.00000  Uiso   1.00
C508   C     0.07688   0.69621   0.39967   0.00000  Uiso   1.00
C509   C     0.13455   0.73553   0.43834   0.00000  Uiso   1.00
C510   C     0.13997   0.79434   0.46704   0.00000  Uiso   1.00
C511   C     0.17286   0.89429   0.52437   0.00000  Uiso   1.00
C512   C     0.98938   0.57492   0.38739   0.00000  Uiso   1.00
C513   C     0.97349   0.51225   0.41572   0.00000  Uiso   1.00
C514   C     0.90525   0.46896   0.43408   0.00000  Uiso   1.00
C515   C     0.80228   0.38059   0.47231   0.00000  Uiso   1.00
C516   C     0.05195   0.64250   0.29188   0.00000  Uiso   1.00
C517   C     0.08865   0.63663   0.23991   0.00000  Uiso   1.00
C518   C     0.07307   0.65022   0.17785   0.00000  Uiso   1.00
C519   C     0.06725   0.66677   0.06779   0.00000  Uiso   1.00
C520   C     0.96769   0.66453   0.34592   0.00000  Uiso   1.00
C521   C     0.02639   0.71497   0.39000   0.00000  Uiso   1.00
C522   C     0.03172   0.77374   0.41865   0.00000  Uiso   1.00
C523   C     0.08940   0.81313   0.45736   0.00000  Uiso   1.00
C524   C     0.93890   0.59368   0.37773   0.00000  Uiso   1.00
C525   C     0.87066   0.55047   0.39604   0.00000  Uiso   1.00
C526   C     0.85467   0.48775   0.42440   0.00000  Uiso   1.00
C527   C     0.00146   0.66126   0.28222   0.00000  Uiso   1.00
C528   C     0.98582   0.67485   0.22023   0.00000  Uiso   1.00
C529   C     0.02249   0.66901   0.16817   0.00000  Uiso   1.00
H530   H     0.09993   0.61538   0.37123   0.00000  Uiso   1.00
H531   H     0.17361   0.72099   0.44581   0.00000  Uiso   1.00
H532   H     0.01257   0.49775   0.42319   0.00000  Uiso   1.00
H533   H     0.12771   0.62212   0.24741   0.00000  Uiso   1.00
H534   H     0.23302   0.84633   0.52425   0.00000  Uiso   1.00
H535   H     0.89345   0.37561   0.47654   0.00000  Uiso   1.00
H536   H     0.13625   0.63786   0.10586   0.00000  Uiso   1.00
H537   H     0.92838   0.67913   0.33839   0.00000  Uiso   1.00
H538   H     0.99265   0.78824   0.41117   0.00000  Uiso   1.00
H539   H     0.83161   0.56500   0.38855   0.00000  Uiso   1.00
H540   H     0.94675   0.68937   0.21277   0.00000  Uiso   1.00
H541   H     0.08614   0.90092   0.49613   0.00000  Uiso   1.00
H542   H     0.74657   0.43019   0.44842   0.00000  Uiso   1.00
H543   H     0.98937   0.69244   0.07775   0.00000  Uiso   1.00
O544   O     0.20494   0.94424   0.55867   0.00000  Uiso   1.00
O545   O     0.75944   0.32666   0.49607   0.00000  Uiso   1.00
O546   O     0.07799   0.67073   0.00975   0.00000  Uiso   1.00
N547   N     0.18964   0.84421   0.50763   0.00000  Uiso   1.00
N548   N     0.87216   0.40412   0.46304   0.00000  Uiso   1.00
N549   N     0.09915   0.64928   0.11648   0.00000  Uiso   1.00
N550   N     0.11060   0.87358   0.49250   0.00000  Uiso   1.00
N551   N     0.79313   0.43349   0.44791   0.00000  Uiso   1.00
N552   N     0.02011   0.67865   0.10135   0.00000  Uiso   1.00
