data_job_05610
_audit_creation_date              2018-12-19
_audit_creation_method            'Materials Studio'
_symmetry_space_group_name_H-M    'P1'
_symmetry_Int_Tables_number       1
_symmetry_cell_setting            triclinic
loop_
_symmetry_equiv_pos_as_xyz
  x,y,z
_cell_length_a                    20.3306
_cell_length_b                    20.3306
_cell_length_c                    12.4373
_cell_angle_alpha                 90.0000
_cell_angle_beta                  90.0000
_cell_angle_gamma                 120.0000
loop_
_atom_site_label
_atom_site_type_symbol
_atom_site_fract_x
_atom_site_fract_y
_atom_site_fract_z
_atom_site_U_iso_or_equiv
_atom_site_adp_type
_atom_site_occupancy
C1     C     0.14967   0.82785   0.36638   0.00000  Uiso   1.00
C2     C     0.19129   0.80533   0.28548   0.00000  Uiso   1.00
C3     C     0.16065   0.76468   0.19138   0.00000  Uiso   1.00
C4     C     0.20799   0.74977   0.12817   0.00000  Uiso   1.00
C5     C     0.26115   0.71098   0.99803   0.00000  Uiso   1.00
C6     C     0.15566   0.79563   0.47430   0.00000  Uiso   1.00
C7     C     0.09507   0.74683   0.53895   0.00000  Uiso   1.00
C8     C     0.11243   0.72377   0.63470   0.00000  Uiso   1.00
C9     C     0.11029   0.66997   0.79774   0.00000  Uiso   1.00
C10    C     0.19699   0.91398   0.37711   0.00000  Uiso   1.00
C11    C     0.17115   0.96471   0.36008   0.00000  Uiso   1.00
C12    C     0.22330   0.04129   0.37404   0.00000  Uiso   1.00
C13    C     0.28534   0.17126   0.38618   0.00000  Uiso   1.00
C14    C     0.28822   0.87366   0.42146   0.00000  Uiso   1.00
C15    C     0.26654   0.83021   0.31540   0.00000  Uiso   1.00
C16    C     0.31394   0.81537   0.25232   0.00000  Uiso   1.00
C17    C     0.28338   0.77471   0.15814   0.00000  Uiso   1.00
C18    C     0.23091   0.82051   0.50422   0.00000  Uiso   1.00
C19    C     0.24836   0.79752   0.59990   0.00000  Uiso   1.00
C20    C     0.18782   0.74870   0.66468   0.00000  Uiso   1.00
C21    C     0.27225   0.93887   0.40703   0.00000  Uiso   1.00
C22    C     0.32445   0.01539   0.42102   0.00000  Uiso   1.00
C23    C     0.29869   0.06622   0.40401   0.00000  Uiso   1.00
H24    H     0.09108   0.80847   0.34309   0.00000  Uiso   1.00
H25    H     0.10241   0.74542   0.16826   0.00000  Uiso   1.00
H26    H     0.03684   0.72759   0.51578   0.00000  Uiso   1.00
H27    H     0.11292   0.94543   0.33693   0.00000  Uiso   1.00
H28    H     0.14815   0.68647   0.98763   0.00000  Uiso   1.00
H29    H     0.00990   0.64889   0.72043   0.00000  Uiso   1.00
H30    H     0.17031   0.10824   0.34329   0.00000  Uiso   1.00
H31    H     0.34681   0.89304   0.44476   0.00000  Uiso   1.00
H32    H     0.37217   0.83463   0.27550   0.00000  Uiso   1.00
H33    H     0.30661   0.81679   0.62303   0.00000  Uiso   1.00
H34    H     0.38268   0.03463   0.44418   0.00000  Uiso   1.00
H35    H     0.36710   0.75887   0.07468   0.00000  Uiso   1.00
H36    H     0.22885   0.72129   0.80748   0.00000  Uiso   1.00
H37    H     0.38927   0.18064   0.43034   0.00000  Uiso   1.00
O38    O     0.26969   0.68270   0.91799   0.00000  Uiso   1.00
O39    O     0.08831   0.63341   0.87940   0.00000  Uiso   1.00
O40    O     0.29877   0.23607   0.38460   0.00000  Uiso   1.00
N41    N     0.19620   0.71154   0.03134   0.00000  Uiso   1.00
N42    N     0.06695   0.67639   0.71645   0.00000  Uiso   1.00
N43    N     0.21692   0.10585   0.36389   0.00000  Uiso   1.00
N44    N     0.31402   0.75050   0.07817   0.00000  Uiso   1.00
N45    N     0.18477   0.71535   0.76329   0.00000  Uiso   1.00
N46    N     0.33473   0.14481   0.41072   0.00000  Uiso   1.00
C47    C     0.17215   0.32182   0.03304   0.00000  Uiso   1.00
C48    C     0.19467   0.38596   0.95215   0.00000  Uiso   1.00
C49    C     0.23532   0.39597   0.85804   0.00000  Uiso   1.00
C50    C     0.25023   0.45821   0.79484   0.00000  Uiso   1.00
C51    C     0.28902   0.55017   0.66470   0.00000  Uiso   1.00
C52    C     0.20437   0.36004   0.14096   0.00000  Uiso   1.00
C53    C     0.25317   0.34824   0.20562   0.00000  Uiso   1.00
C54    C     0.27623   0.38865   0.30137   0.00000  Uiso   1.00
C55    C     0.33003   0.44032   0.46441   0.00000  Uiso   1.00
C56    C     0.08602   0.28301   0.04378   0.00000  Uiso   1.00
C57    C     0.03529   0.20645   0.02675   0.00000  Uiso   1.00
C58    C     0.95871   0.18201   0.04070   0.00000  Uiso   1.00
C59    C     0.82874   0.11408   0.05285   0.00000  Uiso   1.00
C60    C     0.12634   0.41455   0.08813   0.00000  Uiso   1.00
C61    C     0.16979   0.43633   0.98207   0.00000  Uiso   1.00
C62    C     0.18463   0.49857   0.91899   0.00000  Uiso   1.00
C63    C     0.22529   0.50867   0.82481   0.00000  Uiso   1.00
C64    C     0.17949   0.41041   0.17088   0.00000  Uiso   1.00
C65    C     0.20248   0.45084   0.26656   0.00000  Uiso   1.00
C66    C     0.25130   0.43911   0.33134   0.00000  Uiso   1.00
C67    C     0.06113   0.33338   0.07370   0.00000  Uiso   1.00
C68    C     0.98461   0.30905   0.08769   0.00000  Uiso   1.00
C69    C     0.93378   0.23247   0.07068   0.00000  Uiso   1.00
H70    H     0.19153   0.28260   0.00976   0.00000  Uiso   1.00
H71    H     0.25458   0.35698   0.83492   0.00000  Uiso   1.00
H72    H     0.27241   0.30925   0.18245   0.00000  Uiso   1.00
H73    H     0.05457   0.16749   0.00360   0.00000  Uiso   1.00
H74    H     0.31353   0.46167   0.65430   0.00000  Uiso   1.00
H75    H     0.35111   0.36101   0.38710   0.00000  Uiso   1.00
H76    H     0.89176   0.06207   0.00996   0.00000  Uiso   1.00
H77    H     0.10696   0.45377   0.11143   0.00000  Uiso   1.00
H78    H     0.16537   0.53754   0.94216   0.00000  Uiso   1.00
H79    H     0.18321   0.48981   0.28969   0.00000  Uiso   1.00
H80    H     0.96537   0.34805   0.11084   0.00000  Uiso   1.00
H81    H     0.24113   0.60822   0.74134   0.00000  Uiso   1.00
H82    H     0.27871   0.50756   0.47414   0.00000  Uiso   1.00
H83    H     0.81936   0.20862   0.09700   0.00000  Uiso   1.00
O84    O     0.31730   0.58698   0.58466   0.00000  Uiso   1.00
O85    O     0.36659   0.45491   0.54607   0.00000  Uiso   1.00
O86    O     0.76393   0.06271   0.05127   0.00000  Uiso   1.00
N87    N     0.28846   0.48466   0.69800   0.00000  Uiso   1.00
N88    N     0.32361   0.39056   0.38312   0.00000  Uiso   1.00
N89    N     0.89415   0.11107   0.03055   0.00000  Uiso   1.00
N90    N     0.24950   0.56352   0.74484   0.00000  Uiso   1.00
N91    N     0.28465   0.46941   0.42995   0.00000  Uiso   1.00
N92    N     0.85519   0.18992   0.07739   0.00000  Uiso   1.00
C93    C     0.67818   0.85033   0.69971   0.00000  Uiso   1.00
C94    C     0.61404   0.80871   0.61881   0.00000  Uiso   1.00
C95    C     0.60403   0.83935   0.52471   0.00000  Uiso   1.00
C96    C     0.54179   0.79201   0.46150   0.00000  Uiso   1.00
C97    C     0.44983   0.73885   0.33137   0.00000  Uiso   1.00
C98    C     0.63996   0.84434   0.80763   0.00000  Uiso   1.00
C99    C     0.65176   0.90493   0.87229   0.00000  Uiso   1.00
C100   C     0.61135   0.88757   0.96803   0.00000  Uiso   1.00
C101   C     0.55968   0.88971   0.13108   0.00000  Uiso   1.00
C102   C     0.71699   0.80301   0.71045   0.00000  Uiso   1.00
C103   C     0.79355   0.82885   0.69342   0.00000  Uiso   1.00
C104   C     0.81799   0.77670   0.70737   0.00000  Uiso   1.00
C105   C     0.88592   0.71466   0.71951   0.00000  Uiso   1.00
C106   C     0.58545   0.71178   0.75480   0.00000  Uiso   1.00
C107   C     0.56367   0.73346   0.64874   0.00000  Uiso   1.00
C108   C     0.50143   0.68606   0.58565   0.00000  Uiso   1.00
C109   C     0.49133   0.71662   0.49147   0.00000  Uiso   1.00
C110   C     0.58959   0.76909   0.83755   0.00000  Uiso   1.00
C111   C     0.54916   0.75164   0.93323   0.00000  Uiso   1.00
C112   C     0.56089   0.81218   0.99801   0.00000  Uiso   1.00
C113   C     0.66662   0.72775   0.74036   0.00000  Uiso   1.00
C114   C     0.69095   0.67555   0.75436   0.00000  Uiso   1.00
C115   C     0.76753   0.70131   0.73735   0.00000  Uiso   1.00
H116   H     0.71740   0.90892   0.67642   0.00000  Uiso   1.00
H117   H     0.64302   0.89759   0.50159   0.00000  Uiso   1.00
H118   H     0.69075   0.96316   0.84912   0.00000  Uiso   1.00
H119   H     0.83251   0.88708   0.67027   0.00000  Uiso   1.00
H120   H     0.53833   0.85185   0.32097   0.00000  Uiso   1.00
H121   H     0.63899   0.99010   0.05376   0.00000  Uiso   1.00
H122   H     0.93793   0.82969   0.67663   0.00000  Uiso   1.00
H123   H     0.54623   0.65319   0.77809   0.00000  Uiso   1.00
H124   H     0.46246   0.62783   0.60883   0.00000  Uiso   1.00
H125   H     0.51019   0.69339   0.95636   0.00000  Uiso   1.00
H126   H     0.65195   0.61732   0.77751   0.00000  Uiso   1.00
H127   H     0.39178   0.63290   0.40801   0.00000  Uiso   1.00
H128   H     0.49244   0.77115   0.14081   0.00000  Uiso   1.00
H129   H     0.79138   0.61073   0.76367   0.00000  Uiso   1.00
O130   O     0.41302   0.73031   0.25133   0.00000  Uiso   1.00
O131   O     0.54509   0.91169   0.21273   0.00000  Uiso   1.00
O132   O     0.93729   0.70123   0.71794   0.00000  Uiso   1.00
N133   N     0.51534   0.80380   0.36467   0.00000  Uiso   1.00
N134   N     0.60944   0.93305   0.04978   0.00000  Uiso   1.00
N135   N     0.88893   0.78308   0.69722   0.00000  Uiso   1.00
N136   N     0.43648   0.68598   0.41151   0.00000  Uiso   1.00
N137   N     0.53059   0.81523   0.09662   0.00000  Uiso   1.00
N138   N     0.81008   0.66527   0.74406   0.00000  Uiso   1.00
C139   C     0.82785   0.14967   0.63362   0.00000  Uiso   1.00
C140   C     0.80533   0.19129   0.71452   0.00000  Uiso   1.00
C141   C     0.76468   0.16065   0.80862   0.00000  Uiso   1.00
C142   C     0.74977   0.20799   0.87183   0.00000  Uiso   1.00
C143   C     0.71098   0.26115   0.00197   0.00000  Uiso   1.00
C144   C     0.79563   0.15566   0.52570   0.00000  Uiso   1.00
C145   C     0.74683   0.09507   0.46105   0.00000  Uiso   1.00
C146   C     0.72377   0.11243   0.36530   0.00000  Uiso   1.00
C147   C     0.66997   0.11029   0.20226   0.00000  Uiso   1.00
C148   C     0.91398   0.19699   0.62289   0.00000  Uiso   1.00
C149   C     0.96471   0.17115   0.63992   0.00000  Uiso   1.00
C150   C     0.04129   0.22330   0.62596   0.00000  Uiso   1.00
C151   C     0.17126   0.28534   0.61382   0.00000  Uiso   1.00
C152   C     0.87366   0.28822   0.57854   0.00000  Uiso   1.00
C153   C     0.83021   0.26654   0.68460   0.00000  Uiso   1.00
C154   C     0.81537   0.31394   0.74768   0.00000  Uiso   1.00
C155   C     0.77471   0.28338   0.84186   0.00000  Uiso   1.00
C156   C     0.82051   0.23091   0.49578   0.00000  Uiso   1.00
C157   C     0.79752   0.24836   0.40010   0.00000  Uiso   1.00
C158   C     0.74870   0.18782   0.33532   0.00000  Uiso   1.00
C159   C     0.93887   0.27225   0.59297   0.00000  Uiso   1.00
C160   C     0.01539   0.32445   0.57898   0.00000  Uiso   1.00
C161   C     0.06622   0.29869   0.59599   0.00000  Uiso   1.00
H162   H     0.80847   0.09108   0.65691   0.00000  Uiso   1.00
H163   H     0.74542   0.10241   0.83174   0.00000  Uiso   1.00
H164   H     0.72759   0.03684   0.48422   0.00000  Uiso   1.00
H165   H     0.94543   0.11292   0.66307   0.00000  Uiso   1.00
H166   H     0.68647   0.14815   0.01237   0.00000  Uiso   1.00
H167   H     0.64889   0.00990   0.27957   0.00000  Uiso   1.00
H168   H     0.10824   0.17031   0.65671   0.00000  Uiso   1.00
H169   H     0.89304   0.34681   0.55524   0.00000  Uiso   1.00
H170   H     0.83463   0.37217   0.72450   0.00000  Uiso   1.00
H171   H     0.81679   0.30661   0.37697   0.00000  Uiso   1.00
H172   H     0.03463   0.38268   0.55582   0.00000  Uiso   1.00
H173   H     0.75887   0.36710   0.92532   0.00000  Uiso   1.00
H174   H     0.72129   0.22885   0.19252   0.00000  Uiso   1.00
H175   H     0.18064   0.38927   0.56966   0.00000  Uiso   1.00
O176   O     0.68270   0.26969   0.08201   0.00000  Uiso   1.00
O177   O     0.63341   0.08831   0.12060   0.00000  Uiso   1.00
O178   O     0.23607   0.29877   0.61540   0.00000  Uiso   1.00
N179   N     0.71154   0.19620   0.96866   0.00000  Uiso   1.00
N180   N     0.67639   0.06695   0.28355   0.00000  Uiso   1.00
N181   N     0.10585   0.21692   0.63611   0.00000  Uiso   1.00
N182   N     0.75050   0.31402   0.92183   0.00000  Uiso   1.00
N183   N     0.71535   0.18477   0.23671   0.00000  Uiso   1.00
N184   N     0.14481   0.33473   0.58928   0.00000  Uiso   1.00
C185   C     0.32182   0.17215   0.96696   0.00000  Uiso   1.00
C186   C     0.38596   0.19467   0.04785   0.00000  Uiso   1.00
C187   C     0.39597   0.23532   0.14196   0.00000  Uiso   1.00
C188   C     0.45821   0.25023   0.20516   0.00000  Uiso   1.00
C189   C     0.55017   0.28902   0.33530   0.00000  Uiso   1.00
C190   C     0.36004   0.20437   0.85904   0.00000  Uiso   1.00
C191   C     0.34824   0.25317   0.79438   0.00000  Uiso   1.00
C192   C     0.38865   0.27623   0.69863   0.00000  Uiso   1.00
C193   C     0.44032   0.33003   0.53559   0.00000  Uiso   1.00
C194   C     0.28301   0.08602   0.95622   0.00000  Uiso   1.00
C195   C     0.20645   0.03529   0.97325   0.00000  Uiso   1.00
C196   C     0.18201   0.95871   0.95930   0.00000  Uiso   1.00
C197   C     0.11408   0.82874   0.94715   0.00000  Uiso   1.00
C198   C     0.41455   0.12634   0.91187   0.00000  Uiso   1.00
C199   C     0.43633   0.16979   0.01793   0.00000  Uiso   1.00
C200   C     0.49857   0.18463   0.08101   0.00000  Uiso   1.00
C201   C     0.50867   0.22529   0.17519   0.00000  Uiso   1.00
C202   C     0.41041   0.17949   0.82912   0.00000  Uiso   1.00
C203   C     0.45084   0.20248   0.73344   0.00000  Uiso   1.00
C204   C     0.43911   0.25130   0.66866   0.00000  Uiso   1.00
C205   C     0.33338   0.06113   0.92630   0.00000  Uiso   1.00
C206   C     0.30905   0.98461   0.91231   0.00000  Uiso   1.00
C207   C     0.23247   0.93378   0.92932   0.00000  Uiso   1.00
H208   H     0.28260   0.19153   0.99024   0.00000  Uiso   1.00
H209   H     0.35698   0.25458   0.16508   0.00000  Uiso   1.00
H210   H     0.30925   0.27241   0.81755   0.00000  Uiso   1.00
H211   H     0.16749   0.05457   0.99640   0.00000  Uiso   1.00
H212   H     0.46167   0.31353   0.34570   0.00000  Uiso   1.00
H213   H     0.36101   0.35111   0.61290   0.00000  Uiso   1.00
H214   H     0.06207   0.89176   0.99004   0.00000  Uiso   1.00
H215   H     0.45377   0.10696   0.88857   0.00000  Uiso   1.00
H216   H     0.53754   0.16537   0.05784   0.00000  Uiso   1.00
H217   H     0.48981   0.18321   0.71031   0.00000  Uiso   1.00
H218   H     0.34805   0.96537   0.88916   0.00000  Uiso   1.00
H219   H     0.60822   0.24113   0.25866   0.00000  Uiso   1.00
H220   H     0.50756   0.27871   0.52586   0.00000  Uiso   1.00
H221   H     0.20862   0.81936   0.90300   0.00000  Uiso   1.00
O222   O     0.58698   0.31730   0.41534   0.00000  Uiso   1.00
O223   O     0.45491   0.36659   0.45393   0.00000  Uiso   1.00
O224   O     0.06271   0.76393   0.94873   0.00000  Uiso   1.00
N225   N     0.48466   0.28846   0.30200   0.00000  Uiso   1.00
N226   N     0.39056   0.32361   0.61688   0.00000  Uiso   1.00
N227   N     0.11107   0.89415   0.96945   0.00000  Uiso   1.00
N228   N     0.56352   0.24950   0.25516   0.00000  Uiso   1.00
N229   N     0.46941   0.28465   0.57005   0.00000  Uiso   1.00
N230   N     0.18992   0.85519   0.92261   0.00000  Uiso   1.00
C231   C     0.85033   0.67818   0.30029   0.00000  Uiso   1.00
C232   C     0.80871   0.61404   0.38119   0.00000  Uiso   1.00
C233   C     0.83935   0.60403   0.47529   0.00000  Uiso   1.00
C234   C     0.79201   0.54179   0.53850   0.00000  Uiso   1.00
C235   C     0.73885   0.44983   0.66863   0.00000  Uiso   1.00
C236   C     0.84434   0.63996   0.19237   0.00000  Uiso   1.00
C237   C     0.90493   0.65176   0.12771   0.00000  Uiso   1.00
C238   C     0.88757   0.61135   0.03197   0.00000  Uiso   1.00
C239   C     0.88971   0.55968   0.86892   0.00000  Uiso   1.00
C240   C     0.80301   0.71699   0.28955   0.00000  Uiso   1.00
C241   C     0.82885   0.79355   0.30658   0.00000  Uiso   1.00
C242   C     0.77670   0.81799   0.29263   0.00000  Uiso   1.00
C243   C     0.71466   0.88592   0.28049   0.00000  Uiso   1.00
C244   C     0.71178   0.58545   0.24520   0.00000  Uiso   1.00
C245   C     0.73346   0.56367   0.35126   0.00000  Uiso   1.00
C246   C     0.68606   0.50143   0.41435   0.00000  Uiso   1.00
C247   C     0.71662   0.49133   0.50853   0.00000  Uiso   1.00
C248   C     0.76909   0.58959   0.16245   0.00000  Uiso   1.00
C249   C     0.75164   0.54916   0.06677   0.00000  Uiso   1.00
C250   C     0.81218   0.56089   0.00199   0.00000  Uiso   1.00
C251   C     0.72775   0.66662   0.25964   0.00000  Uiso   1.00
C252   C     0.67555   0.69095   0.24564   0.00000  Uiso   1.00
C253   C     0.70131   0.76753   0.26265   0.00000  Uiso   1.00
H254   H     0.90892   0.71740   0.32358   0.00000  Uiso   1.00
H255   H     0.89759   0.64302   0.49841   0.00000  Uiso   1.00
H256   H     0.96316   0.69075   0.15088   0.00000  Uiso   1.00
H257   H     0.88708   0.83251   0.32973   0.00000  Uiso   1.00
H258   H     0.85185   0.53833   0.67903   0.00000  Uiso   1.00
H259   H     0.99010   0.63899   0.94624   0.00000  Uiso   1.00
H260   H     0.82969   0.93793   0.32337   0.00000  Uiso   1.00
H261   H     0.65319   0.54623   0.22191   0.00000  Uiso   1.00
H262   H     0.62783   0.46246   0.39117   0.00000  Uiso   1.00
H263   H     0.69339   0.51019   0.04364   0.00000  Uiso   1.00
H264   H     0.61732   0.65195   0.22249   0.00000  Uiso   1.00
H265   H     0.63290   0.39178   0.59199   0.00000  Uiso   1.00
H266   H     0.77115   0.49244   0.85919   0.00000  Uiso   1.00
H267   H     0.61073   0.79138   0.23633   0.00000  Uiso   1.00
O268   O     0.73031   0.41302   0.74867   0.00000  Uiso   1.00
O269   O     0.91169   0.54509   0.78727   0.00000  Uiso   1.00
O270   O     0.70123   0.93729   0.28206   0.00000  Uiso   1.00
N271   N     0.80380   0.51534   0.63533   0.00000  Uiso   1.00
N272   N     0.93305   0.60944   0.95022   0.00000  Uiso   1.00
N273   N     0.78308   0.88893   0.30278   0.00000  Uiso   1.00
N274   N     0.68598   0.43648   0.58849   0.00000  Uiso   1.00
N275   N     0.81523   0.53059   0.90338   0.00000  Uiso   1.00
N276   N     0.66527   0.81008   0.25594   0.00000  Uiso   1.00
