data_job_03198
_audit_creation_date              2018-12-19
_audit_creation_method            'Materials Studio'
_symmetry_space_group_name_H-M    'P1'
_symmetry_Int_Tables_number       1
_symmetry_cell_setting            triclinic
loop_
_symmetry_equiv_pos_as_xyz
  x,y,z
_cell_length_a                    16.0950
_cell_length_b                    12.3948
_cell_length_c                    30.4841
_cell_angle_alpha                 90.0000
_cell_angle_beta                  107.0864
_cell_angle_gamma                 90.0000
loop_
_atom_site_label
_atom_site_type_symbol
_atom_site_fract_x
_atom_site_fract_y
_atom_site_fract_z
_atom_site_U_iso_or_equiv
_atom_site_adp_type
_atom_site_occupancy
C1     C     0.03386   0.11966   0.66698   0.00000  Uiso   1.00
C2     C     0.13046   0.14444   0.68685   0.00000  Uiso   1.00
C3     C     0.17798   0.13778   0.73282   0.00000  Uiso   1.00
C4     C     0.26563   0.16378   0.74405   0.00000  Uiso   1.00
C5     C     0.40977   0.19742   0.77999   0.00000  Uiso   1.00
C6     C     0.02717   0.03330   0.63048   0.00000  Uiso   1.00
C7     C     0.98783   0.93319   0.62906   0.00000  Uiso   1.00
C8     C     0.98853   0.86564   0.59283   0.00000  Uiso   1.00
C9     C     0.97225   0.72676   0.54125   0.00000  Uiso   1.00
C10    C     0.99271   0.22098   0.64127   0.00000  Uiso   1.00
C11    C     0.92437   0.27868   0.64892   0.00000  Uiso   1.00
C12    C     0.89604   0.36913   0.62178   0.00000  Uiso   1.00
C13    C     0.82624   0.52166   0.58695   0.00000  Uiso   1.00
C14    C     0.10503   0.17768   0.60518   0.00000  Uiso   1.00
C15    C     0.16912   0.17596   0.65327   0.00000  Uiso   1.00
C16    C     0.25673   0.20198   0.66444   0.00000  Uiso   1.00
C17    C     0.30436   0.19536   0.71042   0.00000  Uiso   1.00
C18    C     0.06583   0.06481   0.59691   0.00000  Uiso   1.00
C19    C     0.06658   0.99739   0.56068   0.00000  Uiso   1.00
C20    C     0.02726   0.89721   0.55920   0.00000  Uiso   1.00
C21    C     0.03137   0.25250   0.60770   0.00000  Uiso   1.00
C22    C     0.00312   0.34288   0.58054   0.00000  Uiso   1.00
C23    C     0.93476   0.40070   0.58814   0.00000  Uiso   1.00
H24    H     0.00376   0.09511   0.69312   0.00000  Uiso   1.00
H25    H     0.14804   0.11338   0.75879   0.00000  Uiso   1.00
H26    H     0.95792   0.90883   0.65504   0.00000  Uiso   1.00
H27    H     0.89447   0.25426   0.67490   0.00000  Uiso   1.00
H28    H     0.32506   0.14749   0.81679   0.00000  Uiso   1.00
H29    H     0.92415   0.71620   0.59802   0.00000  Uiso   1.00
H30    H     0.79036   0.44461   0.63990   0.00000  Uiso   1.00
H31    H     0.13513   0.20222   0.57904   0.00000  Uiso   1.00
H32    H     0.28662   0.22637   0.63845   0.00000  Uiso   1.00
H33    H     0.09650   0.02181   0.53470   0.00000  Uiso   1.00
H34    H     0.03306   0.36725   0.55457   0.00000  Uiso   1.00
H35    H     0.43754   0.23919   0.71912   0.00000  Uiso   1.00
H36    H     0.03662   0.80790   0.50035   0.00000  Uiso   1.00
H37    H     0.90284   0.53631   0.54223   0.00000  Uiso   1.00
O38    O     0.47859   0.20726   0.80909   0.00000  Uiso   1.00
O39    O     0.95260   0.64144   0.52207   0.00000  Uiso   1.00
O40    O     0.77708   0.59709   0.57702   0.00000  Uiso   1.00
N41    N     0.33074   0.16578   0.78565   0.00000  Uiso   1.00
N42    N     0.95592   0.76254   0.58112   0.00000  Uiso   1.00
N43    N     0.83082   0.44353   0.62026   0.00000  Uiso   1.00
N44    N     0.39126   0.21512   0.73309   0.00000  Uiso   1.00
N45    N     0.01645   0.81189   0.52856   0.00000  Uiso   1.00
N46    N     0.89135   0.49287   0.56771   0.00000  Uiso   1.00
C47    C     0.53386   0.61966   0.66698   0.00000  Uiso   1.00
C48    C     0.63046   0.64444   0.68685   0.00000  Uiso   1.00
C49    C     0.67798   0.63778   0.73282   0.00000  Uiso   1.00
C50    C     0.76563   0.66378   0.74405   0.00000  Uiso   1.00
C51    C     0.90977   0.69742   0.77999   0.00000  Uiso   1.00
C52    C     0.52717   0.53330   0.63048   0.00000  Uiso   1.00
C53    C     0.48783   0.43319   0.62906   0.00000  Uiso   1.00
C54    C     0.48853   0.36564   0.59283   0.00000  Uiso   1.00
C55    C     0.47225   0.22676   0.54125   0.00000  Uiso   1.00
C56    C     0.49271   0.72098   0.64127   0.00000  Uiso   1.00
C57    C     0.42437   0.77868   0.64892   0.00000  Uiso   1.00
C58    C     0.39604   0.86913   0.62178   0.00000  Uiso   1.00
C59    C     0.32624   0.02166   0.58695   0.00000  Uiso   1.00
C60    C     0.60503   0.67768   0.60518   0.00000  Uiso   1.00
C61    C     0.66912   0.67596   0.65327   0.00000  Uiso   1.00
C62    C     0.75673   0.70198   0.66444   0.00000  Uiso   1.00
C63    C     0.80436   0.69536   0.71042   0.00000  Uiso   1.00
C64    C     0.56583   0.56481   0.59691   0.00000  Uiso   1.00
C65    C     0.56658   0.49739   0.56068   0.00000  Uiso   1.00
C66    C     0.52726   0.39721   0.55920   0.00000  Uiso   1.00
C67    C     0.53137   0.75250   0.60770   0.00000  Uiso   1.00
C68    C     0.50312   0.84288   0.58054   0.00000  Uiso   1.00
C69    C     0.43476   0.90070   0.58814   0.00000  Uiso   1.00
H70    H     0.50376   0.59511   0.69312   0.00000  Uiso   1.00
H71    H     0.64804   0.61338   0.75879   0.00000  Uiso   1.00
H72    H     0.45792   0.40883   0.65504   0.00000  Uiso   1.00
H73    H     0.39447   0.75426   0.67490   0.00000  Uiso   1.00
H74    H     0.82506   0.64749   0.81679   0.00000  Uiso   1.00
H75    H     0.42415   0.21620   0.59802   0.00000  Uiso   1.00
H76    H     0.29036   0.94461   0.63990   0.00000  Uiso   1.00
H77    H     0.63513   0.70222   0.57904   0.00000  Uiso   1.00
H78    H     0.78662   0.72637   0.63845   0.00000  Uiso   1.00
H79    H     0.59650   0.52181   0.53470   0.00000  Uiso   1.00
H80    H     0.53306   0.86725   0.55457   0.00000  Uiso   1.00
H81    H     0.93754   0.73919   0.71912   0.00000  Uiso   1.00
H82    H     0.53662   0.30790   0.50035   0.00000  Uiso   1.00
H83    H     0.40284   0.03631   0.54223   0.00000  Uiso   1.00
O84    O     0.97859   0.70726   0.80909   0.00000  Uiso   1.00
O85    O     0.45260   0.14144   0.52207   0.00000  Uiso   1.00
O86    O     0.27708   0.09709   0.57702   0.00000  Uiso   1.00
N87    N     0.83074   0.66578   0.78565   0.00000  Uiso   1.00
N88    N     0.45592   0.26254   0.58112   0.00000  Uiso   1.00
N89    N     0.33082   0.94353   0.62026   0.00000  Uiso   1.00
N90    N     0.89126   0.71512   0.73309   0.00000  Uiso   1.00
N91    N     0.51645   0.31189   0.52856   0.00000  Uiso   1.00
N92    N     0.39135   0.99287   0.56771   0.00000  Uiso   1.00
C93    C     0.96614   0.11966   0.83302   0.00000  Uiso   1.00
C94    C     0.86954   0.14444   0.81315   0.00000  Uiso   1.00
C95    C     0.82202   0.13778   0.76718   0.00000  Uiso   1.00
C96    C     0.73437   0.16378   0.75595   0.00000  Uiso   1.00
C97    C     0.59023   0.19742   0.72001   0.00000  Uiso   1.00
C98    C     0.97283   0.03330   0.86952   0.00000  Uiso   1.00
C99    C     0.01217   0.93319   0.87094   0.00000  Uiso   1.00
C100   C     0.01147   0.86564   0.90717   0.00000  Uiso   1.00
C101   C     0.02775   0.72676   0.95875   0.00000  Uiso   1.00
C102   C     0.00729   0.22098   0.85873   0.00000  Uiso   1.00
C103   C     0.07563   0.27868   0.85108   0.00000  Uiso   1.00
C104   C     0.10396   0.36913   0.87822   0.00000  Uiso   1.00
C105   C     0.17376   0.52166   0.91305   0.00000  Uiso   1.00
C106   C     0.89497   0.17768   0.89482   0.00000  Uiso   1.00
C107   C     0.83088   0.17596   0.84673   0.00000  Uiso   1.00
C108   C     0.74327   0.20198   0.83556   0.00000  Uiso   1.00
C109   C     0.69564   0.19536   0.78958   0.00000  Uiso   1.00
C110   C     0.93417   0.06481   0.90309   0.00000  Uiso   1.00
C111   C     0.93342   0.99739   0.93932   0.00000  Uiso   1.00
C112   C     0.97274   0.89721   0.94080   0.00000  Uiso   1.00
C113   C     0.96863   0.25250   0.89230   0.00000  Uiso   1.00
C114   C     0.99688   0.34288   0.91946   0.00000  Uiso   1.00
C115   C     0.06524   0.40070   0.91186   0.00000  Uiso   1.00
H116   H     0.99624   0.09511   0.80688   0.00000  Uiso   1.00
H117   H     0.85196   0.11338   0.74121   0.00000  Uiso   1.00
H118   H     0.04208   0.90883   0.84496   0.00000  Uiso   1.00
H119   H     0.10553   0.25426   0.82510   0.00000  Uiso   1.00
H120   H     0.67494   0.14749   0.68321   0.00000  Uiso   1.00
H121   H     0.07585   0.71620   0.90198   0.00000  Uiso   1.00
H122   H     0.20964   0.44461   0.86010   0.00000  Uiso   1.00
H123   H     0.86487   0.20222   0.92096   0.00000  Uiso   1.00
H124   H     0.71338   0.22637   0.86155   0.00000  Uiso   1.00
H125   H     0.90350   0.02181   0.96530   0.00000  Uiso   1.00
H126   H     0.96694   0.36725   0.94543   0.00000  Uiso   1.00
H127   H     0.56246   0.23919   0.78088   0.00000  Uiso   1.00
H128   H     0.96338   0.80790   0.99965   0.00000  Uiso   1.00
H129   H     0.09716   0.53631   0.95777   0.00000  Uiso   1.00
O130   O     0.52141   0.20726   0.69091   0.00000  Uiso   1.00
O131   O     0.04740   0.64144   0.97793   0.00000  Uiso   1.00
O132   O     0.22292   0.59709   0.92298   0.00000  Uiso   1.00
N133   N     0.66926   0.16578   0.71435   0.00000  Uiso   1.00
N134   N     0.04408   0.76254   0.91888   0.00000  Uiso   1.00
N135   N     0.16918   0.44353   0.87974   0.00000  Uiso   1.00
N136   N     0.60874   0.21512   0.76691   0.00000  Uiso   1.00
N137   N     0.98355   0.81189   0.97144   0.00000  Uiso   1.00
N138   N     0.10865   0.49287   0.93229   0.00000  Uiso   1.00
C139   C     0.46614   0.61966   0.83302   0.00000  Uiso   1.00
C140   C     0.36954   0.64444   0.81315   0.00000  Uiso   1.00
C141   C     0.32202   0.63778   0.76718   0.00000  Uiso   1.00
C142   C     0.23437   0.66378   0.75595   0.00000  Uiso   1.00
C143   C     0.09023   0.69742   0.72001   0.00000  Uiso   1.00
C144   C     0.47283   0.53330   0.86952   0.00000  Uiso   1.00
C145   C     0.51217   0.43319   0.87094   0.00000  Uiso   1.00
C146   C     0.51147   0.36564   0.90717   0.00000  Uiso   1.00
C147   C     0.52775   0.22676   0.95875   0.00000  Uiso   1.00
C148   C     0.50729   0.72098   0.85873   0.00000  Uiso   1.00
C149   C     0.57563   0.77868   0.85108   0.00000  Uiso   1.00
C150   C     0.60396   0.86913   0.87822   0.00000  Uiso   1.00
C151   C     0.67376   0.02166   0.91305   0.00000  Uiso   1.00
C152   C     0.39497   0.67768   0.89482   0.00000  Uiso   1.00
C153   C     0.33088   0.67596   0.84673   0.00000  Uiso   1.00
C154   C     0.24327   0.70198   0.83556   0.00000  Uiso   1.00
C155   C     0.19564   0.69536   0.78958   0.00000  Uiso   1.00
C156   C     0.43417   0.56481   0.90309   0.00000  Uiso   1.00
C157   C     0.43342   0.49739   0.93932   0.00000  Uiso   1.00
C158   C     0.47274   0.39721   0.94080   0.00000  Uiso   1.00
C159   C     0.46863   0.75250   0.89230   0.00000  Uiso   1.00
C160   C     0.49688   0.84288   0.91946   0.00000  Uiso   1.00
C161   C     0.56524   0.90070   0.91186   0.00000  Uiso   1.00
H162   H     0.49624   0.59511   0.80688   0.00000  Uiso   1.00
H163   H     0.35196   0.61338   0.74121   0.00000  Uiso   1.00
H164   H     0.54208   0.40883   0.84496   0.00000  Uiso   1.00
H165   H     0.60553   0.75426   0.82510   0.00000  Uiso   1.00
H166   H     0.17494   0.64749   0.68321   0.00000  Uiso   1.00
H167   H     0.57585   0.21620   0.90198   0.00000  Uiso   1.00
H168   H     0.70964   0.94461   0.86010   0.00000  Uiso   1.00
H169   H     0.36487   0.70222   0.92096   0.00000  Uiso   1.00
H170   H     0.21338   0.72637   0.86155   0.00000  Uiso   1.00
H171   H     0.40350   0.52181   0.96530   0.00000  Uiso   1.00
H172   H     0.46694   0.86725   0.94543   0.00000  Uiso   1.00
H173   H     0.06246   0.73919   0.78088   0.00000  Uiso   1.00
H174   H     0.46338   0.30790   0.99965   0.00000  Uiso   1.00
H175   H     0.59716   0.03631   0.95777   0.00000  Uiso   1.00
O176   O     0.02141   0.70726   0.69091   0.00000  Uiso   1.00
O177   O     0.54740   0.14144   0.97793   0.00000  Uiso   1.00
O178   O     0.72292   0.09709   0.92298   0.00000  Uiso   1.00
N179   N     0.16926   0.66578   0.71435   0.00000  Uiso   1.00
N180   N     0.54408   0.26254   0.91888   0.00000  Uiso   1.00
N181   N     0.66918   0.94353   0.87974   0.00000  Uiso   1.00
N182   N     0.10874   0.71512   0.76691   0.00000  Uiso   1.00
N183   N     0.48355   0.31189   0.97144   0.00000  Uiso   1.00
N184   N     0.60865   0.99287   0.93229   0.00000  Uiso   1.00
C185   C     0.96614   0.88034   0.33302   0.00000  Uiso   1.00
C186   C     0.86954   0.85556   0.31315   0.00000  Uiso   1.00
C187   C     0.82202   0.86222   0.26718   0.00000  Uiso   1.00
C188   C     0.73437   0.83622   0.25595   0.00000  Uiso   1.00
C189   C     0.59023   0.80258   0.22001   0.00000  Uiso   1.00
C190   C     0.97283   0.96670   0.36952   0.00000  Uiso   1.00
C191   C     0.01217   0.06681   0.37094   0.00000  Uiso   1.00
C192   C     0.01147   0.13436   0.40717   0.00000  Uiso   1.00
C193   C     0.02775   0.27324   0.45875   0.00000  Uiso   1.00
C194   C     0.00729   0.77902   0.35873   0.00000  Uiso   1.00
C195   C     0.07563   0.72132   0.35108   0.00000  Uiso   1.00
C196   C     0.10396   0.63087   0.37822   0.00000  Uiso   1.00
C197   C     0.17376   0.47834   0.41305   0.00000  Uiso   1.00
C198   C     0.89497   0.82232   0.39482   0.00000  Uiso   1.00
C199   C     0.83088   0.82404   0.34673   0.00000  Uiso   1.00
C200   C     0.74327   0.79802   0.33556   0.00000  Uiso   1.00
C201   C     0.69564   0.80464   0.28958   0.00000  Uiso   1.00
C202   C     0.93417   0.93519   0.40309   0.00000  Uiso   1.00
C203   C     0.93342   0.00261   0.43932   0.00000  Uiso   1.00
C204   C     0.97274   0.10279   0.44080   0.00000  Uiso   1.00
C205   C     0.96863   0.74750   0.39230   0.00000  Uiso   1.00
C206   C     0.99688   0.65712   0.41946   0.00000  Uiso   1.00
C207   C     0.06524   0.59930   0.41186   0.00000  Uiso   1.00
H208   H     0.99624   0.90489   0.30688   0.00000  Uiso   1.00
H209   H     0.85196   0.88662   0.24121   0.00000  Uiso   1.00
H210   H     0.04208   0.09117   0.34496   0.00000  Uiso   1.00
H211   H     0.10553   0.74574   0.32510   0.00000  Uiso   1.00
H212   H     0.67494   0.85251   0.18321   0.00000  Uiso   1.00
H213   H     0.07585   0.28380   0.40198   0.00000  Uiso   1.00
H214   H     0.20964   0.55539   0.36010   0.00000  Uiso   1.00
H215   H     0.86487   0.79778   0.42096   0.00000  Uiso   1.00
H216   H     0.71338   0.77363   0.36155   0.00000  Uiso   1.00
H217   H     0.90350   0.97819   0.46530   0.00000  Uiso   1.00
H218   H     0.96694   0.63275   0.44543   0.00000  Uiso   1.00
H219   H     0.56246   0.76081   0.28088   0.00000  Uiso   1.00
H220   H     0.96338   0.19210   0.49965   0.00000  Uiso   1.00
H221   H     0.09716   0.46369   0.45777   0.00000  Uiso   1.00
O222   O     0.52141   0.79274   0.19091   0.00000  Uiso   1.00
O223   O     0.04740   0.35856   0.47793   0.00000  Uiso   1.00
O224   O     0.22292   0.40291   0.42298   0.00000  Uiso   1.00
N225   N     0.66926   0.83422   0.21435   0.00000  Uiso   1.00
N226   N     0.04408   0.23746   0.41888   0.00000  Uiso   1.00
N227   N     0.16918   0.55647   0.37974   0.00000  Uiso   1.00
N228   N     0.60874   0.78488   0.26691   0.00000  Uiso   1.00
N229   N     0.98355   0.18811   0.47144   0.00000  Uiso   1.00
N230   N     0.10865   0.50713   0.43229   0.00000  Uiso   1.00
C231   C     0.46614   0.38034   0.33302   0.00000  Uiso   1.00
C232   C     0.36954   0.35556   0.31315   0.00000  Uiso   1.00
C233   C     0.32202   0.36222   0.26718   0.00000  Uiso   1.00
C234   C     0.23437   0.33622   0.25595   0.00000  Uiso   1.00
C235   C     0.09023   0.30258   0.22001   0.00000  Uiso   1.00
C236   C     0.47283   0.46670   0.36952   0.00000  Uiso   1.00
C237   C     0.51217   0.56681   0.37094   0.00000  Uiso   1.00
C238   C     0.51147   0.63436   0.40717   0.00000  Uiso   1.00
C239   C     0.52775   0.77324   0.45875   0.00000  Uiso   1.00
C240   C     0.50729   0.27902   0.35873   0.00000  Uiso   1.00
C241   C     0.57563   0.22132   0.35108   0.00000  Uiso   1.00
C242   C     0.60396   0.13087   0.37822   0.00000  Uiso   1.00
C243   C     0.67376   0.97834   0.41305   0.00000  Uiso   1.00
C244   C     0.39497   0.32232   0.39482   0.00000  Uiso   1.00
C245   C     0.33088   0.32404   0.34673   0.00000  Uiso   1.00
C246   C     0.24327   0.29802   0.33556   0.00000  Uiso   1.00
C247   C     0.19564   0.30464   0.28958   0.00000  Uiso   1.00
C248   C     0.43417   0.43519   0.40309   0.00000  Uiso   1.00
C249   C     0.43342   0.50261   0.43932   0.00000  Uiso   1.00
C250   C     0.47274   0.60279   0.44080   0.00000  Uiso   1.00
C251   C     0.46863   0.24750   0.39230   0.00000  Uiso   1.00
C252   C     0.49688   0.15712   0.41946   0.00000  Uiso   1.00
C253   C     0.56524   0.09930   0.41186   0.00000  Uiso   1.00
H254   H     0.49624   0.40489   0.30688   0.00000  Uiso   1.00
H255   H     0.35196   0.38662   0.24121   0.00000  Uiso   1.00
H256   H     0.54208   0.59117   0.34496   0.00000  Uiso   1.00
H257   H     0.60553   0.24574   0.32510   0.00000  Uiso   1.00
H258   H     0.17494   0.35251   0.18321   0.00000  Uiso   1.00
H259   H     0.57585   0.78380   0.40198   0.00000  Uiso   1.00
H260   H     0.70964   0.05539   0.36010   0.00000  Uiso   1.00
H261   H     0.36487   0.29778   0.42096   0.00000  Uiso   1.00
H262   H     0.21338   0.27363   0.36155   0.00000  Uiso   1.00
H263   H     0.40350   0.47819   0.46530   0.00000  Uiso   1.00
H264   H     0.46694   0.13275   0.44543   0.00000  Uiso   1.00
H265   H     0.06246   0.26081   0.28088   0.00000  Uiso   1.00
H266   H     0.46338   0.69210   0.49965   0.00000  Uiso   1.00
H267   H     0.59716   0.96369   0.45777   0.00000  Uiso   1.00
O268   O     0.02141   0.29274   0.19091   0.00000  Uiso   1.00
O269   O     0.54740   0.85856   0.47793   0.00000  Uiso   1.00
O270   O     0.72292   0.90291   0.42298   0.00000  Uiso   1.00
N271   N     0.16926   0.33422   0.21435   0.00000  Uiso   1.00
N272   N     0.54408   0.73746   0.41888   0.00000  Uiso   1.00
N273   N     0.66918   0.05647   0.37974   0.00000  Uiso   1.00
N274   N     0.10874   0.28488   0.26691   0.00000  Uiso   1.00
N275   N     0.48355   0.68811   0.47144   0.00000  Uiso   1.00
N276   N     0.60865   0.00713   0.43229   0.00000  Uiso   1.00
C277   C     0.03386   0.88034   0.16698   0.00000  Uiso   1.00
C278   C     0.13046   0.85556   0.18685   0.00000  Uiso   1.00
C279   C     0.17798   0.86222   0.23282   0.00000  Uiso   1.00
C280   C     0.26563   0.83622   0.24405   0.00000  Uiso   1.00
C281   C     0.40977   0.80258   0.27999   0.00000  Uiso   1.00
C282   C     0.02717   0.96670   0.13048   0.00000  Uiso   1.00
C283   C     0.98783   0.06681   0.12906   0.00000  Uiso   1.00
C284   C     0.98853   0.13436   0.09283   0.00000  Uiso   1.00
C285   C     0.97225   0.27324   0.04125   0.00000  Uiso   1.00
C286   C     0.99271   0.77902   0.14127   0.00000  Uiso   1.00
C287   C     0.92437   0.72132   0.14892   0.00000  Uiso   1.00
C288   C     0.89604   0.63087   0.12178   0.00000  Uiso   1.00
C289   C     0.82624   0.47834   0.08695   0.00000  Uiso   1.00
C290   C     0.10503   0.82232   0.10518   0.00000  Uiso   1.00
C291   C     0.16912   0.82404   0.15327   0.00000  Uiso   1.00
C292   C     0.25673   0.79802   0.16444   0.00000  Uiso   1.00
C293   C     0.30436   0.80464   0.21042   0.00000  Uiso   1.00
C294   C     0.06583   0.93519   0.09691   0.00000  Uiso   1.00
C295   C     0.06658   0.00261   0.06068   0.00000  Uiso   1.00
C296   C     0.02726   0.10279   0.05920   0.00000  Uiso   1.00
C297   C     0.03137   0.74750   0.10770   0.00000  Uiso   1.00
C298   C     0.00312   0.65712   0.08054   0.00000  Uiso   1.00
C299   C     0.93476   0.59930   0.08814   0.00000  Uiso   1.00
H300   H     0.00376   0.90489   0.19312   0.00000  Uiso   1.00
H301   H     0.14804   0.88662   0.25879   0.00000  Uiso   1.00
H302   H     0.95792   0.09117   0.15504   0.00000  Uiso   1.00
H303   H     0.89447   0.74574   0.17490   0.00000  Uiso   1.00
H304   H     0.32506   0.85251   0.31679   0.00000  Uiso   1.00
H305   H     0.92415   0.28380   0.09802   0.00000  Uiso   1.00
H306   H     0.79036   0.55539   0.13990   0.00000  Uiso   1.00
H307   H     0.13513   0.79778   0.07904   0.00000  Uiso   1.00
H308   H     0.28662   0.77363   0.13845   0.00000  Uiso   1.00
H309   H     0.09650   0.97819   0.03470   0.00000  Uiso   1.00
H310   H     0.03306   0.63275   0.05457   0.00000  Uiso   1.00
H311   H     0.43754   0.76081   0.21912   0.00000  Uiso   1.00
H312   H     0.03662   0.19210   0.00035   0.00000  Uiso   1.00
H313   H     0.90284   0.46369   0.04223   0.00000  Uiso   1.00
O314   O     0.47859   0.79274   0.30909   0.00000  Uiso   1.00
O315   O     0.95260   0.35856   0.02207   0.00000  Uiso   1.00
O316   O     0.77708   0.40291   0.07702   0.00000  Uiso   1.00
N317   N     0.33074   0.83422   0.28565   0.00000  Uiso   1.00
N318   N     0.95592   0.23746   0.08112   0.00000  Uiso   1.00
N319   N     0.83082   0.55647   0.12026   0.00000  Uiso   1.00
N320   N     0.39126   0.78488   0.23309   0.00000  Uiso   1.00
N321   N     0.01645   0.18811   0.02856   0.00000  Uiso   1.00
N322   N     0.89135   0.50713   0.06771   0.00000  Uiso   1.00
C323   C     0.53386   0.38034   0.16698   0.00000  Uiso   1.00
C324   C     0.63046   0.35556   0.18685   0.00000  Uiso   1.00
C325   C     0.67798   0.36222   0.23282   0.00000  Uiso   1.00
C326   C     0.76563   0.33622   0.24405   0.00000  Uiso   1.00
C327   C     0.90977   0.30258   0.27999   0.00000  Uiso   1.00
C328   C     0.52717   0.46670   0.13048   0.00000  Uiso   1.00
C329   C     0.48783   0.56681   0.12906   0.00000  Uiso   1.00
C330   C     0.48853   0.63436   0.09283   0.00000  Uiso   1.00
C331   C     0.47225   0.77324   0.04125   0.00000  Uiso   1.00
C332   C     0.49271   0.27902   0.14127   0.00000  Uiso   1.00
C333   C     0.42437   0.22132   0.14892   0.00000  Uiso   1.00
C334   C     0.39604   0.13087   0.12178   0.00000  Uiso   1.00
C335   C     0.32624   0.97834   0.08695   0.00000  Uiso   1.00
C336   C     0.60503   0.32232   0.10518   0.00000  Uiso   1.00
C337   C     0.66912   0.32404   0.15327   0.00000  Uiso   1.00
C338   C     0.75673   0.29802   0.16444   0.00000  Uiso   1.00
C339   C     0.80436   0.30464   0.21042   0.00000  Uiso   1.00
C340   C     0.56583   0.43519   0.09691   0.00000  Uiso   1.00
C341   C     0.56658   0.50261   0.06068   0.00000  Uiso   1.00
C342   C     0.52726   0.60279   0.05920   0.00000  Uiso   1.00
C343   C     0.53137   0.24750   0.10770   0.00000  Uiso   1.00
C344   C     0.50312   0.15712   0.08054   0.00000  Uiso   1.00
C345   C     0.43476   0.09930   0.08814   0.00000  Uiso   1.00
H346   H     0.50376   0.40489   0.19312   0.00000  Uiso   1.00
H347   H     0.64804   0.38662   0.25879   0.00000  Uiso   1.00
H348   H     0.45792   0.59117   0.15504   0.00000  Uiso   1.00
H349   H     0.39447   0.24574   0.17490   0.00000  Uiso   1.00
H350   H     0.82506   0.35251   0.31679   0.00000  Uiso   1.00
H351   H     0.42415   0.78380   0.09802   0.00000  Uiso   1.00
H352   H     0.29036   0.05539   0.13990   0.00000  Uiso   1.00
H353   H     0.63513   0.29778   0.07904   0.00000  Uiso   1.00
H354   H     0.78662   0.27363   0.13845   0.00000  Uiso   1.00
H355   H     0.59650   0.47819   0.03470   0.00000  Uiso   1.00
H356   H     0.53306   0.13275   0.05457   0.00000  Uiso   1.00
H357   H     0.93754   0.26081   0.21912   0.00000  Uiso   1.00
H358   H     0.53662   0.69210   0.00035   0.00000  Uiso   1.00
H359   H     0.40284   0.96369   0.04223   0.00000  Uiso   1.00
O360   O     0.97859   0.29274   0.30909   0.00000  Uiso   1.00
O361   O     0.45260   0.85856   0.02207   0.00000  Uiso   1.00
O362   O     0.27708   0.90291   0.07702   0.00000  Uiso   1.00
N363   N     0.83074   0.33422   0.28565   0.00000  Uiso   1.00
N364   N     0.45592   0.73746   0.08112   0.00000  Uiso   1.00
N365   N     0.33082   0.05647   0.12026   0.00000  Uiso   1.00
N366   N     0.89126   0.28488   0.23309   0.00000  Uiso   1.00
N367   N     0.51645   0.68811   0.02856   0.00000  Uiso   1.00
N368   N     0.39135   0.00713   0.06771   0.00000  Uiso   1.00
