data_job_06678
_audit_creation_date              2018-12-19
_audit_creation_method            'Materials Studio'
_symmetry_space_group_name_H-M    'P1'
_symmetry_Int_Tables_number       1
_symmetry_cell_setting            triclinic
loop_
_symmetry_equiv_pos_as_xyz
  x,y,z
_cell_length_a                    20.0317
_cell_length_b                    22.1359
_cell_length_c                    23.6751
_cell_angle_alpha                 76.9396
_cell_angle_beta                  66.9198
_cell_angle_gamma                 95.8134
loop_
_atom_site_label
_atom_site_type_symbol
_atom_site_fract_x
_atom_site_fract_y
_atom_site_fract_z
_atom_site_U_iso_or_equiv
_atom_site_adp_type
_atom_site_occupancy
C1     C     0.73459   0.03578   0.87796   0.00000  Uiso   1.00
C2     C     0.80573   0.01411   0.84378   0.00000  Uiso   1.00
C3     C     0.83255   0.00926   0.78167   0.00000  Uiso   1.00
C4     C     0.89861   0.98849   0.75915   0.00000  Uiso   1.00
C5     C     0.00330   0.95715   0.70027   0.00000  Uiso   1.00
C6     C     0.68817   0.98226   0.93950   0.00000  Uiso   1.00
C7     C     0.61615   0.95064   0.95787   0.00000  Uiso   1.00
C8     C     0.58325   0.90307   0.01593   0.00000  Uiso   1.00
C9     C     0.50540   0.82230   0.10567   0.00000  Uiso   1.00
C10    C     0.75758   0.09161   0.89890   0.00000  Uiso   1.00
C11    C     0.74392   0.15193   0.88314   0.00000  Uiso   1.00
C12    C     0.76945   0.19642   0.90704   0.00000  Uiso   1.00
C13    C     0.79938   0.28543   0.93373   0.00000  Uiso   1.00
C14    C     0.80421   0.00752   0.94842   0.00000  Uiso   1.00
C15    C     0.84354   0.99876   0.88205   0.00000  Uiso   1.00
C16    C     0.90958   0.97800   0.85962   0.00000  Uiso   1.00
C17    C     0.93650   0.97312   0.79749   0.00000  Uiso   1.00
C18    C     0.72598   0.96691   0.97777   0.00000  Uiso   1.00
C19    C     0.69318   0.91937   0.03582   0.00000  Uiso   1.00
C20    C     0.62113   0.88769   0.05427   0.00000  Uiso   1.00
C21    C     0.79540   0.07626   0.93716   0.00000  Uiso   1.00
C22    C     0.82095   0.12066   0.96109   0.00000  Uiso   1.00
C23    C     0.80733   0.18104   0.94537   0.00000  Uiso   1.00
H24    H     0.70515   0.04773   0.84817   0.00000  Uiso   1.00
H25    H     0.80327   0.02114   0.75207   0.00000  Uiso   1.00
H26    H     0.58690   0.96253   0.92825   0.00000  Uiso   1.00
H27    H     0.71465   0.16379   0.85353   0.00000  Uiso   1.00
H28    H     0.92872   0.98487   0.66241   0.00000  Uiso   1.00
H29    H     0.47248   0.86131   0.03389   0.00000  Uiso   1.00
H30    H     0.74187   0.28569   0.87634   0.00000  Uiso   1.00
H31    H     0.83365   0.99557   0.97821   0.00000  Uiso   1.00
H32    H     0.93883   0.96612   0.88925   0.00000  Uiso   1.00
H33    H     0.72246   0.90751   0.06542   0.00000  Uiso   1.00
H34    H     0.85021   0.10877   0.99070   0.00000  Uiso   1.00
H35    H     0.03874   0.94021   0.77375   0.00000  Uiso   1.00
H36    H     0.58250   0.81665   0.14523   0.00000  Uiso   1.00
H37    H     0.85189   0.24104   0.98768   0.00000  Uiso   1.00
O38    O     0.05059   0.94409   0.65722   0.00000  Uiso   1.00
O39    O     0.45202   0.78199   0.14459   0.00000  Uiso   1.00
O40    O     0.80545   0.33877   0.93788   0.00000  Uiso   1.00
N41    N     0.94018   0.97841   0.70082   0.00000  Uiso   1.00
N42    N     0.51363   0.86288   0.04813   0.00000  Uiso   1.00
N43    N     0.76547   0.25964   0.90084   0.00000  Uiso   1.00
N44    N     0.99939   0.95438   0.76073   0.00000  Uiso   1.00
N45    N     0.57284   0.83885   0.10804   0.00000  Uiso   1.00
N46    N     0.82468   0.23561   0.96075   0.00000  Uiso   1.00
C47    C     0.42678   0.14138   0.61061   0.00000  Uiso   1.00
C48    C     0.36679   0.08296   0.62906   0.00000  Uiso   1.00
C49    C     0.35784   0.05129   0.58734   0.00000  Uiso   1.00
C50    C     0.29955   0.99884   0.61360   0.00000  Uiso   1.00
C51    C     0.21362   0.91119   0.63226   0.00000  Uiso   1.00
C52    C     0.38597   0.19207   0.63309   0.00000  Uiso   1.00
C53    C     0.39315   0.25214   0.59476   0.00000  Uiso   1.00
C54    C     0.35101   0.29155   0.62442   0.00000  Uiso   1.00
C55    C     0.29489   0.37332   0.64934   0.00000  Uiso   1.00
C56    C     0.46755   0.12387   0.65249   0.00000  Uiso   1.00
C57    C     0.54333   0.12662   0.63046   0.00000  Uiso   1.00
C58    C     0.56988   0.10863   0.67645   0.00000  Uiso   1.00
C59    C     0.64043   0.08451   0.73149   0.00000  Uiso   1.00
C60    C     0.33919   0.10455   0.73144   0.00000  Uiso   1.00
C61    C     0.31922   0.06296   0.69469   0.00000  Uiso   1.00
C62    C     0.26093   0.01054   0.72102   0.00000  Uiso   1.00
C63    C     0.25189   0.97880   0.67935   0.00000  Uiso   1.00
C64    C     0.33840   0.17207   0.69872   0.00000  Uiso   1.00
C65    C     0.29624   0.21140   0.72844   0.00000  Uiso   1.00
C66    C     0.30335   0.27151   0.69016   0.00000  Uiso   1.00
C67    C     0.41998   0.10387   0.71812   0.00000  Uiso   1.00
C68    C     0.44642   0.08587   0.76415   0.00000  Uiso   1.00
C69    C     0.52222   0.08859   0.74220   0.00000  Uiso   1.00
H70    H     0.46382   0.15695   0.55952   0.00000  Uiso   1.00
H71    H     0.39466   0.06678   0.53655   0.00000  Uiso   1.00
H72    H     0.42997   0.26761   0.54397   0.00000  Uiso   1.00
H73    H     0.58012   0.14210   0.57967   0.00000  Uiso   1.00
H74    H     0.29700   0.95801   0.54002   0.00000  Uiso   1.00
H75    H     0.37146   0.38147   0.55568   0.00000  Uiso   1.00
H76    H     0.68809   0.11681   0.63095   0.00000  Uiso   1.00
H77    H     0.30215   0.08898   0.78254   0.00000  Uiso   1.00
H78    H     0.22413   0.99508   0.77182   0.00000  Uiso   1.00
H79    H     0.25944   0.19591   0.77924   0.00000  Uiso   1.00
H80    H     0.40959   0.07040   0.81493   0.00000  Uiso   1.00
H81    H     0.15858   0.89981   0.73097   0.00000  Uiso   1.00
H82    H     0.23305   0.32327   0.74663   0.00000  Uiso   1.00
H83    H     0.54968   0.05862   0.82191   0.00000  Uiso   1.00
O84    O     0.17936   0.86837   0.62441   0.00000  Uiso   1.00
O85    O     0.27707   0.42394   0.64495   0.00000  Uiso   1.00
O86    O     0.69248   0.07672   0.74371   0.00000  Uiso   1.00
N87    N     0.27514   0.95719   0.58644   0.00000  Uiso   1.00
N88    N     0.34475   0.35310   0.60107   0.00000  Uiso   1.00
N89    N     0.64078   0.10568   0.67145   0.00000  Uiso   1.00
N90    N     0.20066   0.92587   0.68919   0.00000  Uiso   1.00
N91    N     0.27027   0.32178   0.70382   0.00000  Uiso   1.00
N92    N     0.56630   0.07437   0.77420   0.00000  Uiso   1.00
C93    C     0.06480   0.62189   0.17947   0.00000  Uiso   1.00
C94    C     0.03670   0.60565   0.13232   0.00000  Uiso   1.00
C95    C     0.04067   0.55072   0.11331   0.00000  Uiso   1.00
C96    C     0.01185   0.54479   0.06974   0.00000  Uiso   1.00
C97    C     0.97306   0.51239   0.00010   0.00000  Uiso   1.00
C98    C     0.11933   0.68568   0.14390   0.00000  Uiso   1.00
C99    C     0.19278   0.69805   0.13464   0.00000  Uiso   1.00
C100   C     0.23352   0.75950   0.10083   0.00000  Uiso   1.00
C101   C     0.32301   0.85136   0.04922   0.00000  Uiso   1.00
C102   C     0.99846   0.63405   0.23232   0.00000  Uiso   1.00
C103   C     0.97028   0.60302   0.29741   0.00000  Uiso   1.00
C104   C     0.90926   0.62101   0.33804   0.00000  Uiso   1.00
C105   C     0.81107   0.63271   0.42370   0.00000  Uiso   1.00
C106   C     0.00654   0.70903   0.13589   0.00000  Uiso   1.00
C107   C     0.00506   0.65298   0.10865   0.00000  Uiso   1.00
C108   C     0.97622   0.64713   0.06509   0.00000  Uiso   1.00
C109   C     0.98015   0.59221   0.04602   0.00000  Uiso   1.00
C110   C     0.08769   0.73301   0.12023   0.00000  Uiso   1.00
C111   C     0.12833   0.79446   0.08643   0.00000  Uiso   1.00
C112   C     0.20182   0.80691   0.07711   0.00000  Uiso   1.00
C113   C     0.96681   0.68138   0.20865   0.00000  Uiso   1.00
C114   C     0.90583   0.69943   0.24919   0.00000  Uiso   1.00
C115   C     0.87756   0.66843   0.31432   0.00000  Uiso   1.00
H116   H     0.08944   0.58504   0.19790   0.00000  Uiso   1.00
H117   H     0.06517   0.51411   0.13164   0.00000  Uiso   1.00
H118   H     0.21725   0.66141   0.15297   0.00000  Uiso   1.00
H119   H     0.99478   0.56640   0.31571   0.00000  Uiso   1.00
H120   H     0.02433   0.45635   0.04771   0.00000  Uiso   1.00
H121   H     0.34500   0.76695   0.09272   0.00000  Uiso   1.00
H122   H     0.87588   0.56659   0.43588   0.00000  Uiso   1.00
H123   H     0.98191   0.74588   0.11746   0.00000  Uiso   1.00
H124   H     0.95174   0.68377   0.04678   0.00000  Uiso   1.00
H125   H     0.10382   0.83107   0.06812   0.00000  Uiso   1.00
H126   H     0.88136   0.73606   0.23085   0.00000  Uiso   1.00
H127   H     0.93227   0.59405   0.97884   0.00000  Uiso   1.00
H128   H     0.25294   0.90466   0.02385   0.00000  Uiso   1.00
H129   H     0.78382   0.70430   0.36701   0.00000  Uiso   1.00
O130   O     0.96042   0.48145   0.96822   0.00000  Uiso   1.00
O131   O     0.38111   0.88895   0.02728   0.00000  Uiso   1.00
O132   O     0.76564   0.62608   0.47749   0.00000  Uiso   1.00
N133   N     0.00679   0.49727   0.04121   0.00000  Uiso   1.00
N134   N     0.30660   0.78767   0.08329   0.00000  Uiso   1.00
N135   N     0.86803   0.60036   0.40411   0.00000  Uiso   1.00
N136   N     0.95725   0.57137   0.00415   0.00000  Uiso   1.00
N137   N     0.25706   0.86177   0.04623   0.00000  Uiso   1.00
N138   N     0.81849   0.67446   0.36705   0.00000  Uiso   1.00
C139   C     0.24070   0.08213   0.18710   0.00000  Uiso   1.00
C140   C     0.31040   0.08909   0.12630   0.00000  Uiso   1.00
C141   C     0.32528   0.04459   0.09256   0.00000  Uiso   1.00
C142   C     0.39215   0.05990   0.03811   0.00000  Uiso   1.00
C143   C     0.49273   0.06194   0.94672   0.00000  Uiso   1.00
C144   C     0.20747   0.13943   0.17244   0.00000  Uiso   1.00
C145   C     0.13580   0.13723   0.17750   0.00000  Uiso   1.00
C146   C     0.11602   0.19491   0.16190   0.00000  Uiso   1.00
C147   C     0.05678   0.27509   0.14219   0.00000  Uiso   1.00
C148   C     0.26749   0.09074   0.23740   0.00000  Uiso   1.00
C149   C     0.24627   0.04763   0.29710   0.00000  Uiso   1.00
C150   C     0.27700   0.06433   0.33619   0.00000  Uiso   1.00
C151   C     0.31095   0.06892   0.41734   0.00000  Uiso   1.00
C152   C     0.33300   0.18846   0.15039   0.00000  Uiso   1.00
C153   C     0.36053   0.14685   0.10636   0.00000  Uiso   1.00
C154   C     0.42740   0.16223   0.05195   0.00000  Uiso   1.00
C155   C     0.44237   0.11775   0.01814   0.00000  Uiso   1.00
C156   C     0.25760   0.19718   0.15250   0.00000  Uiso   1.00
C157   C     0.23792   0.25487   0.13689   0.00000  Uiso   1.00
C158   C     0.16624   0.25277   0.14193   0.00000  Uiso   1.00
C159   C     0.31762   0.14850   0.21746   0.00000  Uiso   1.00
C160   C     0.34839   0.16527   0.25648   0.00000  Uiso   1.00
C161   C     0.32722   0.12219   0.31622   0.00000  Uiso   1.00
H162   H     0.20167   0.03717   0.20262   0.00000  Uiso   1.00
H163   H     0.28646   0.99990   0.10800   0.00000  Uiso   1.00
H164   H     0.09702   0.09253   0.19294   0.00000  Uiso   1.00
H165   H     0.20747   0.00294   0.31251   0.00000  Uiso   1.00
H166   H     0.40257   0.98406   0.99430   0.00000  Uiso   1.00
H167   H     0.00310   0.17938   0.17341   0.00000  Uiso   1.00
H168   H     0.23601   0.99046   0.42554   0.00000  Uiso   1.00
H169   H     0.37203   0.23343   0.13487   0.00000  Uiso   1.00
H170   H     0.46618   0.20693   0.03654   0.00000  Uiso   1.00
H171   H     0.27673   0.29956   0.12147   0.00000  Uiso   1.00
H172   H     0.38718   0.20997   0.24104   0.00000  Uiso   1.00
H173   H     0.54843   0.15209   0.93629   0.00000  Uiso   1.00
H174   H     0.14895   0.34741   0.11540   0.00000  Uiso   1.00
H175   H     0.38187   0.15849   0.36753   0.00000  Uiso   1.00
O176   O     0.53435   0.04711   0.90181   0.00000  Uiso   1.00
O177   O     0.01025   0.30336   0.13682   0.00000  Uiso   1.00
O178   O     0.31583   0.05550   0.46760   0.00000  Uiso   1.00
N179   N     0.42399   0.02724   0.99415   0.00000  Uiso   1.00
N180   N     0.05050   0.20985   0.16160   0.00000  Uiso   1.00
N181   N     0.26824   0.03323   0.39733   0.00000  Uiso   1.00
N182   N     0.50247   0.11765   0.96293   0.00000  Uiso   1.00
N183   N     0.12899   0.30027   0.13038   0.00000  Uiso   1.00
N184   N     0.34673   0.12365   0.36611   0.00000  Uiso   1.00
C185   C     0.84831   0.53399   0.90198   0.00000  Uiso   1.00
C186   C     0.82716   0.51737   0.85124   0.00000  Uiso   1.00
C187   C     0.85187   0.47230   0.82022   0.00000  Uiso   1.00
C188   C     0.82608   0.46412   0.77533   0.00000  Uiso   1.00
C189   C     0.80061   0.43287   0.69860   0.00000  Uiso   1.00
C190   C     0.77544   0.52441   0.96081   0.00000  Uiso   1.00
C191   C     0.75669   0.48527   0.02192   0.00000  Uiso   1.00
C192   C     0.68737   0.48303   0.06927   0.00000  Uiso   1.00
C193   C     0.58164   0.46275   0.16265   0.00000  Uiso   1.00
C194   C     0.88083   0.60516   0.87706   0.00000  Uiso   1.00
C195   C     0.95068   0.63392   0.86777   0.00000  Uiso   1.00
C196   C     0.97008   0.69968   0.84462   0.00000  Uiso   1.00
C197   C     0.02798   0.80477   0.80797   0.00000  Uiso   1.00
C198   C     0.75857   0.59962   0.87742   0.00000  Uiso   1.00
C199   C     0.77841   0.55302   0.83790   0.00000  Uiso   1.00
C200   C     0.75258   0.54491   0.79304   0.00000  Uiso   1.00
C201   C     0.77725   0.49984   0.76196   0.00000  Uiso   1.00
C202   C     0.72670   0.56006   0.94747   0.00000  Uiso   1.00
C203   C     0.65739   0.55788   0.99474   0.00000  Uiso   1.00
C204   C     0.63853   0.51875   0.05590   0.00000  Uiso   1.00
C205   C     0.83209   0.64081   0.86372   0.00000  Uiso   1.00
C206   C     0.85138   0.70654   0.84059   0.00000  Uiso   1.00
C207   C     0.92124   0.73539   0.83125   0.00000  Uiso   1.00
H208   H     0.88626   0.50624   0.91237   0.00000  Uiso   1.00
H209   H     0.88959   0.44471   0.83056   0.00000  Uiso   1.00
H210   H     0.79442   0.45769   0.03223   0.00000  Uiso   1.00
H211   H     0.98838   0.60632   0.87809   0.00000  Uiso   1.00
H212   H     0.87176   0.39221   0.73400   0.00000  Uiso   1.00
H213   H     0.67111   0.41959   0.15922   0.00000  Uiso   1.00
H214   H     0.08011   0.73301   0.83421   0.00000  Uiso   1.00
H215   H     0.72061   0.62738   0.86703   0.00000  Uiso   1.00
H216   H     0.71485   0.57250   0.78273   0.00000  Uiso   1.00
H217   H     0.61969   0.58548   0.98440   0.00000  Uiso   1.00
H218   H     0.81365   0.73411   0.83027   0.00000  Uiso   1.00
H219   H     0.72993   0.49593   0.69518   0.00000  Uiso   1.00
H220   H     0.52928   0.52331   0.12041   0.00000  Uiso   1.00
H221   H     0.93829   0.83672   0.79539   0.00000  Uiso   1.00
O222   O     0.80002   0.40577   0.65996   0.00000  Uiso   1.00
O223   O     0.53679   0.44171   0.21785   0.00000  Uiso   1.00
O224   O     0.07339   0.85289   0.79143   0.00000  Uiso   1.00
N225   N     0.83918   0.42416   0.73642   0.00000  Uiso   1.00
N226   N     0.65158   0.44975   0.13398   0.00000  Uiso   1.00
N227   N     0.03396   0.74277   0.83013   0.00000  Uiso   1.00
N228   N     0.76287   0.47997   0.71553   0.00000  Uiso   1.00
N229   N     0.57527   0.50556   0.11309   0.00000  Uiso   1.00
N230   N     0.95764   0.79858   0.80925   0.00000  Uiso   1.00
C231   C     0.43247   0.65375   0.59787   0.00000  Uiso   1.00
C232   C     0.46481   0.59446   0.59481   0.00000  Uiso   1.00
C233   C     0.46545   0.55835   0.55378   0.00000  Uiso   1.00
C234   C     0.49767   0.50587   0.55841   0.00000  Uiso   1.00
C235   C     0.54328   0.41623   0.54693   0.00000  Uiso   1.00
C236   C     0.49541   0.70622   0.58727   0.00000  Uiso   1.00
C237   C     0.52177   0.76408   0.53991   0.00000  Uiso   1.00
C238   C     0.57974   0.80568   0.53820   0.00000  Uiso   1.00
C239   C     0.67282   0.88957   0.51505   0.00000  Uiso   1.00
C240   C     0.37563   0.64070   0.66715   0.00000  Uiso   1.00
C241   C     0.30127   0.64348   0.68695   0.00000  Uiso   1.00
C242   C     0.25839   0.62993   0.75248   0.00000  Uiso   1.00
C243   C     0.16549   0.61207   0.85335   0.00000  Uiso   1.00
C244   C     0.48854   0.62476   0.67905   0.00000  Uiso   1.00
C245   C     0.49526   0.57872   0.63890   0.00000  Uiso   1.00
C246   C     0.52748   0.52628   0.64360   0.00000  Uiso   1.00
C247   C     0.52817   0.49010   0.60258   0.00000  Uiso   1.00
C248   C     0.52586   0.69048   0.63136   0.00000  Uiso   1.00
C249   C     0.58380   0.73201   0.62973   0.00000  Uiso   1.00
C250   C     0.61025   0.78991   0.58237   0.00000  Uiso   1.00
C251   C     0.40607   0.62495   0.71124   0.00000  Uiso   1.00
C252   C     0.36330   0.61140   0.77676   0.00000  Uiso   1.00
C253   C     0.28890   0.61416   0.79666   0.00000  Uiso   1.00
H254   H     0.40877   0.66601   0.56354   0.00000  Uiso   1.00
H255   H     0.44189   0.57055   0.51966   0.00000  Uiso   1.00
H256   H     0.49819   0.77625   0.50580   0.00000  Uiso   1.00
H257   H     0.27773   0.65566   0.65281   0.00000  Uiso   1.00
H258   H     0.49206   0.45780   0.49044   0.00000  Uiso   1.00
H259   H     0.61076   0.89153   0.46123   0.00000  Uiso   1.00
H260   H     0.14587   0.63724   0.77123   0.00000  Uiso   1.00
H261   H     0.51225   0.61250   0.71338   0.00000  Uiso   1.00
H262   H     0.55104   0.51411   0.67772   0.00000  Uiso   1.00
H263   H     0.60735   0.71981   0.66386   0.00000  Uiso   1.00
H264   H     0.38688   0.59922   0.81087   0.00000  Uiso   1.00
H265   H     0.58066   0.41199   0.61873   0.00000  Uiso   1.00
H266   H     0.69936   0.84573   0.58952   0.00000  Uiso   1.00
H267   H     0.23447   0.59143   0.89952   0.00000  Uiso   1.00
O268   O     0.56004   0.37114   0.52841   0.00000  Uiso   1.00
O269   O     0.71576   0.94019   0.49010   0.00000  Uiso   1.00
O270   O     0.10583   0.60657   0.89681   0.00000  Uiso   1.00
N271   N     0.50758   0.46051   0.52553   0.00000  Uiso   1.00
N272   N     0.61856   0.86602   0.49822   0.00000  Uiso   1.00
N273   N     0.18393   0.62830   0.78804   0.00000  Uiso   1.00
N274   N     0.55525   0.43586   0.59457   0.00000  Uiso   1.00
N275   N     0.66623   0.84137   0.56725   0.00000  Uiso   1.00
N276   N     0.23160   0.60365   0.85707   0.00000  Uiso   1.00
C277   C     0.32568   0.87003   0.84394   0.00000  Uiso   1.00
C278   C     0.25424   0.89256   0.87521   0.00000  Uiso   1.00
C279   C     0.24980   0.95078   0.88750   0.00000  Uiso   1.00
C280   C     0.17923   0.96238   0.91643   0.00000  Uiso   1.00
C281   C     0.07800   0.00423   0.96251   0.00000  Uiso   1.00
C282   C     0.32302   0.85309   0.78580   0.00000  Uiso   1.00
C283   C     0.37641   0.87812   0.72291   0.00000  Uiso   1.00
C284   C     0.36374   0.85650   0.67658   0.00000  Uiso   1.00
C285   C     0.36932   0.83703   0.58385   0.00000  Uiso   1.00
C286   C     0.31931   0.80762   0.89106   0.00000  Uiso   1.00
C287   C     0.36959   0.79441   0.91667   0.00000  Uiso   1.00
C288   C     0.35380   0.73449   0.95895   0.00000  Uiso   1.00
C289   C     0.35362   0.64443   0.02965   0.00000  Uiso   1.00
C290   C     0.20824   0.78711   0.87348   0.00000  Uiso   1.00
C291   C     0.19046   0.84752   0.89125   0.00000  Uiso   1.00
C292   C     0.11987   0.85904   0.92017   0.00000  Uiso   1.00
C293   C     0.11533   0.91726   0.93250   0.00000  Uiso   1.00
C294   C     0.25923   0.80805   0.80183   0.00000  Uiso   1.00
C295   C     0.24648   0.78638   0.75559   0.00000  Uiso   1.00
C296   C     0.29984   0.81138   0.69265   0.00000  Uiso   1.00
C297   C     0.25552   0.76258   0.90710   0.00000  Uiso   1.00
C298   C     0.23966   0.70267   0.94935   0.00000  Uiso   1.00
C299   C     0.28990   0.68937   0.97502   0.00000  Uiso   1.00
H300   H     0.37534   0.90509   0.83145   0.00000  Uiso   1.00
H301   H     0.29918   0.98562   0.87507   0.00000  Uiso   1.00
H302   H     0.42577   0.91297   0.71051   0.00000  Uiso   1.00
H303   H     0.41895   0.82927   0.90424   0.00000  Uiso   1.00
H304   H     0.18661   0.05505   0.93048   0.00000  Uiso   1.00
H305   H     0.45355   0.90185   0.58351   0.00000  Uiso   1.00
H306   H     0.43916   0.72535   0.99202   0.00000  Uiso   1.00
H307   H     0.15858   0.75204   0.88596   0.00000  Uiso   1.00
H308   H     0.07052   0.82417   0.93258   0.00000  Uiso   1.00
H309   H     0.19711   0.75153   0.76802   0.00000  Uiso   1.00
H310   H     0.19029   0.66783   0.96175   0.00000  Uiso   1.00
H311   H     0.00102   0.92402   0.97716   0.00000  Uiso   1.00
H312   H     0.26796   0.77081   0.63018   0.00000  Uiso   1.00
H313   H     0.25357   0.59432   0.03870   0.00000  Uiso   1.00
O314   O     0.03979   0.03975   0.98348   0.00000  Uiso   1.00
O315   O     0.39002   0.83875   0.52827   0.00000  Uiso   1.00
O316   O     0.37114   0.60719   0.06423   0.00000  Uiso   1.00
N317   N     0.15501   0.01431   0.93508   0.00000  Uiso   1.00
N318   N     0.40458   0.87108   0.61068   0.00000  Uiso   1.00
N319   N     0.39114   0.70607   0.99259   0.00000  Uiso   1.00
N320   N     0.05515   0.94380   0.96020   0.00000  Uiso   1.00
N321   N     0.30472   0.80057   0.63580   0.00000  Uiso   1.00
N322   N     0.29128   0.63556   0.01771   0.00000  Uiso   1.00
C323   C     0.64074   0.69151   0.18448   0.00000  Uiso   1.00
C324   C     0.64759   0.73517   0.22426   0.00000  Uiso   1.00
C325   C     0.58958   0.75600   0.26508   0.00000  Uiso   1.00
C326   C     0.60729   0.79572   0.29719   0.00000  Uiso   1.00
C327   C     0.60679   0.86073   0.36027   0.00000  Uiso   1.00
C328   C     0.67330   0.63514   0.20347   0.00000  Uiso   1.00
C329   C     0.63692   0.57187   0.22680   0.00000  Uiso   1.00
C330   C     0.67629   0.52739   0.24140   0.00000  Uiso   1.00
C331   C     0.71573   0.43709   0.27215   0.00000  Uiso   1.00
C332   C     0.69358   0.72718   0.11506   0.00000  Uiso   1.00
C333   C     0.67426   0.74128   0.06406   0.00000  Uiso   1.00
C334   C     0.73070   0.77428   0.00422   0.00000  Uiso   1.00
C335   C     0.80162   0.82689   0.89771   0.00000  Uiso   1.00
C336   C     0.77534   0.72504   0.16892   0.00000  Uiso   1.00
C337   C     0.72069   0.75338   0.21581   0.00000  Uiso   1.00
C338   C     0.73849   0.79309   0.24786   0.00000  Uiso   1.00
C339   C     0.68053   0.81397   0.28872   0.00000  Uiso   1.00
C340   C     0.74640   0.65335   0.19501   0.00000  Uiso   1.00
C341   C     0.78583   0.60896   0.20958   0.00000  Uiso   1.00
C342   C     0.74953   0.54563   0.23293   0.00000  Uiso   1.00
C343   C     0.76668   0.74540   0.10661   0.00000  Uiso   1.00
C344   C     0.82317   0.77837   0.04684   0.00000  Uiso   1.00
C345   C     0.80393   0.79252   0.99575   0.00000  Uiso   1.00
H346   H     0.58383   0.67733   0.19106   0.00000  Uiso   1.00
H347   H     0.53301   0.74189   0.27161   0.00000  Uiso   1.00
H348   H     0.58035   0.55779   0.23333   0.00000  Uiso   1.00
H349   H     0.61768   0.72718   0.07062   0.00000  Uiso   1.00
H350   H     0.50891   0.82148   0.35721   0.00000  Uiso   1.00
H351   H     0.60874   0.43329   0.27646   0.00000  Uiso   1.00
H352   H     0.68744   0.79048   0.93335   0.00000  Uiso   1.00
H353   H     0.83225   0.73921   0.16234   0.00000  Uiso   1.00
H354   H     0.79507   0.80717   0.24131   0.00000  Uiso   1.00
H355   H     0.84241   0.62307   0.20303   0.00000  Uiso   1.00
H356   H     0.87973   0.79246   0.04031   0.00000  Uiso   1.00
H357   H     0.72161   0.87446   0.33262   0.00000  Uiso   1.00
H358   H     0.82143   0.48627   0.25187   0.00000  Uiso   1.00
H359   H     0.90014   0.84346   0.90875   0.00000  Uiso   1.00
O360   O     0.58631   0.89154   0.39740   0.00000  Uiso   1.00
O361   O     0.71728   0.38225   0.29145   0.00000  Uiso   1.00
O362   O     0.82054   0.85088   0.84129   0.00000  Uiso   1.00
N363   N     0.56408   0.82463   0.34057   0.00000  Uiso   1.00
N364   N     0.65740   0.46170   0.26509   0.00000  Uiso   1.00
N365   N     0.73099   0.79563   0.94430   0.00000  Uiso   1.00
N366   N     0.67852   0.85314   0.32734   0.00000  Uiso   1.00
N367   N     0.77185   0.49021   0.25186   0.00000  Uiso   1.00
N368   N     0.84544   0.82414   0.93107   0.00000  Uiso   1.00
C369   C     0.07446   0.28715   0.69159   0.00000  Uiso   1.00
C370   C     0.07054   0.25790   0.75793   0.00000  Uiso   1.00
C371   C     0.08500   0.29117   0.79645   0.00000  Uiso   1.00
C372   C     0.07836   0.25570   0.85554   0.00000  Uiso   1.00
C373   C     0.07534   0.22038   0.95555   0.00000  Uiso   1.00
C374   C     0.99842   0.26282   0.69531   0.00000  Uiso   1.00
C375   C     0.95224   0.30024   0.68118   0.00000  Uiso   1.00
C376   C     0.88488   0.26890   0.68755   0.00000  Uiso   1.00
C377   C     0.76991   0.24122   0.69029   0.00000  Uiso   1.00
C378   C     0.12872   0.25701   0.64650   0.00000  Uiso   1.00
C379   C     0.19209   0.28953   0.59131   0.00000  Uiso   1.00
C380   C     0.23443   0.25331   0.55658   0.00000  Uiso   1.00
C381   C     0.32177   0.21660   0.48354   0.00000  Uiso   1.00
C382   C     0.03696   0.16498   0.72801   0.00000  Uiso   1.00
C383   C     0.05017   0.19154   0.77771   0.00000  Uiso   1.00
C384   C     0.04352   0.15601   0.83675   0.00000  Uiso   1.00
C385   C     0.05796   0.18923   0.87536   0.00000  Uiso   1.00
C386   C     0.97805   0.19647   0.71509   0.00000  Uiso   1.00
C387   C     0.91075   0.16507   0.72148   0.00000  Uiso   1.00
C388   C     0.86448   0.20243   0.70736   0.00000  Uiso   1.00
C389   C     0.10835   0.19065   0.66628   0.00000  Uiso   1.00
C390   C     0.15060   0.15437   0.63162   0.00000  Uiso   1.00
C391   C     0.21403   0.18683   0.57639   0.00000  Uiso   1.00
H392   H     0.09031   0.33881   0.67619   0.00000  Uiso   1.00
H393   H     0.10075   0.34253   0.78113   0.00000  Uiso   1.00
H394   H     0.96802   0.35158   0.66587   0.00000  Uiso   1.00
H395   H     0.20783   0.34088   0.57602   0.00000  Uiso   1.00
H396   H     0.10332   0.31739   0.90621   0.00000  Uiso   1.00
H397   H     0.82345   0.33648   0.66315   0.00000  Uiso   1.00
H398   H     0.32914   0.31392   0.47369   0.00000  Uiso   1.00
H399   H     0.02110   0.11332   0.74341   0.00000  Uiso   1.00
H400   H     0.02775   0.10466   0.85205   0.00000  Uiso   1.00
H401   H     0.89501   0.11372   0.73678   0.00000  Uiso   1.00
H402   H     0.13482   0.10302   0.64694   0.00000  Uiso   1.00
H403   H     0.04407   0.12433   0.96377   0.00000  Uiso   1.00
H404   H     0.76419   0.14343   0.72071   0.00000  Uiso   1.00
H405   H     0.26989   0.12086   0.53125   0.00000  Uiso   1.00
O406   O     0.07929   0.21923   0.00525   0.00000  Uiso   1.00
O407   O     0.71212   0.24429   0.68635   0.00000  Uiso   1.00
O408   O     0.37557   0.21468   0.43779   0.00000  Uiso   1.00
N409   N     0.08848   0.27314   0.90484   0.00000  Uiso   1.00
N410   N     0.82681   0.29099   0.67761   0.00000  Uiso   1.00
N411   N     0.29958   0.26990   0.50047   0.00000  Uiso   1.00
N412   N     0.05660   0.16925   0.93582   0.00000  Uiso   1.00
N413   N     0.79492   0.18711   0.70858   0.00000  Uiso   1.00
N414   N     0.26769   0.16601   0.53144   0.00000  Uiso   1.00
C415   C     0.85335   0.82591   0.65158   0.00000  Uiso   1.00
C416   C     0.78172   0.80506   0.71333   0.00000  Uiso   1.00
C417   C     0.74912   0.84385   0.75006   0.00000  Uiso   1.00
C418   C     0.68365   0.81574   0.80491   0.00000  Uiso   1.00
C419   C     0.57727   0.79319   0.89816   0.00000  Uiso   1.00
C420   C     0.90477   0.78314   0.66276   0.00000  Uiso   1.00
C421   C     0.97563   0.80350   0.65695   0.00000  Uiso   1.00
C422   C     0.01374   0.75694   0.66921   0.00000  Uiso   1.00
C423   C     0.09841   0.70035   0.68391   0.00000  Uiso   1.00
C424   C     0.83361   0.80803   0.60064   0.00000  Uiso   1.00
C425   C     0.84465   0.84932   0.54259   0.00000  Uiso   1.00
C426   C     0.82286   0.82371   0.50255   0.00000  Uiso   1.00
C427   C     0.79704   0.80578   0.42079   0.00000  Uiso   1.00
C428   C     0.79505   0.70699   0.68367   0.00000  Uiso   1.00
C429   C     0.75006   0.74047   0.73077   0.00000  Uiso   1.00
C430   C     0.68462   0.71229   0.78557   0.00000  Uiso   1.00
C431   C     0.65193   0.75104   0.82237   0.00000  Uiso   1.00
C432   C     0.87311   0.71855   0.68019   0.00000  Uiso   1.00
C433   C     0.91112   0.67194   0.69246   0.00000  Uiso   1.00
C434   C     0.98202   0.69223   0.68668   0.00000  Uiso   1.00
C435   C     0.80194   0.74344   0.61807   0.00000  Uiso   1.00
C436   C     0.78014   0.71776   0.57811   0.00000  Uiso   1.00
C437   C     0.79114   0.75900   0.52001   0.00000  Uiso   1.00
H438   H     0.87800   0.87619   0.63800   0.00000  Uiso   1.00
H439   H     0.77365   0.89384   0.73655   0.00000  Uiso   1.00
H440   H     0.00012   0.85349   0.64345   0.00000  Uiso   1.00
H441   H     0.86915   0.89930   0.52912   0.00000  Uiso   1.00
H442   H     0.64400   0.88491   0.85352   0.00000  Uiso   1.00
H443   H     0.12153   0.79984   0.65719   0.00000  Uiso   1.00
H444   H     0.84537   0.89644   0.41608   0.00000  Uiso   1.00
H445   H     0.77040   0.65670   0.69724   0.00000  Uiso   1.00
H446   H     0.66013   0.66230   0.79905   0.00000  Uiso   1.00
H447   H     0.88660   0.62196   0.70595   0.00000  Uiso   1.00
H448   H     0.75564   0.66777   0.59161   0.00000  Uiso   1.00
H449   H     0.55186   0.69699   0.90424   0.00000  Uiso   1.00
H450   H     0.02940   0.61192   0.70791   0.00000  Uiso   1.00
H451   H     0.75324   0.70852   0.46681   0.00000  Uiso   1.00
O452   O     0.52735   0.79859   0.94479   0.00000  Uiso   1.00
O453   O     0.15386   0.68699   0.68720   0.00000  Uiso   1.00
O454   O     0.79154   0.81373   0.37088   0.00000  Uiso   1.00
N455   N     0.63744   0.83992   0.85148   0.00000  Uiso   1.00
N456   N     0.08390   0.76038   0.66793   0.00000  Uiso   1.00
N457   N     0.82573   0.85070   0.44251   0.00000  Uiso   1.00
N458   N     0.58786   0.73880   0.87877   0.00000  Uiso   1.00
N459   N     0.03432   0.65926   0.69522   0.00000  Uiso   1.00
N460   N     0.77616   0.74958   0.46980   0.00000  Uiso   1.00
C461   C     0.24481   0.38919   0.93557   0.00000  Uiso   1.00
C462   C     0.31476   0.43620   0.92085   0.00000  Uiso   1.00
C463   C     0.32719   0.46395   0.96385   0.00000  Uiso   1.00
C464   C     0.39477   0.50574   0.94107   0.00000  Uiso   1.00
C465   C     0.49528   0.57670   0.92786   0.00000  Uiso   1.00
C466   C     0.21623   0.41807   0.88684   0.00000  Uiso   1.00
C467   C     0.14583   0.43055   0.90125   0.00000  Uiso   1.00
C468   C     0.13047   0.45707   0.84985   0.00000  Uiso   1.00
C469   C     0.07801   0.49983   0.78384   0.00000  Uiso   1.00
C470   C     0.27052   0.33037   0.91890   0.00000  Uiso   1.00
C471   C     0.24574   0.26912   0.96025   0.00000  Uiso   1.00
C472   C     0.27607   0.22180   0.93583   0.00000  Uiso   1.00
C473   C     0.30789   0.12841   0.91959   0.00000  Uiso   1.00
C474   C     0.34271   0.41408   0.81865   0.00000  Uiso   1.00
C475   C     0.36793   0.44972   0.85734   0.00000  Uiso   1.00
C476   C     0.43551   0.49148   0.83449   0.00000  Uiso   1.00
C477   C     0.44804   0.51928   0.87745   0.00000  Uiso   1.00
C478   C     0.26941   0.43158   0.82334   0.00000  Uiso   1.00
C479   C     0.25415   0.45808   0.77190   0.00000  Uiso   1.00
C480   C     0.18374   0.47061   0.78622   0.00000  Uiso   1.00
C481   C     0.32370   0.34389   0.85539   0.00000  Uiso   1.00
C482   C     0.35407   0.29665   0.83089   0.00000  Uiso   1.00
C483   C     0.32934   0.23534   0.87221   0.00000  Uiso   1.00
H484   H     0.20340   0.37867   0.98501   0.00000  Uiso   1.00
H485   H     0.28602   0.45348   0.01299   0.00000  Uiso   1.00
H486   H     0.10469   0.42008   0.95040   0.00000  Uiso   1.00
H487   H     0.20459   0.25868   0.00939   0.00000  Uiso   1.00
H488   H     0.40106   0.54239   0.01599   0.00000  Uiso   1.00
H489   H     0.01870   0.47195   0.88403   0.00000  Uiso   1.00
H490   H     0.22935   0.13160   0.00842   0.00000  Uiso   1.00
H491   H     0.38411   0.42460   0.76921   0.00000  Uiso   1.00
H492   H     0.47665   0.50193   0.78534   0.00000  Uiso   1.00
H493   H     0.29532   0.46853   0.72276   0.00000  Uiso   1.00
H494   H     0.39522   0.30713   0.78175   0.00000  Uiso   1.00
H495   H     0.55578   0.58172   0.83123   0.00000  Uiso   1.00
H496   H     0.17342   0.51128   0.69926   0.00000  Uiso   1.00
H497   H     0.38408   0.17093   0.82366   0.00000  Uiso   1.00
O498   O     0.53602   0.61211   0.93811   0.00000  Uiso   1.00
O499   O     0.03438   0.51969   0.76498   0.00000  Uiso   1.00
O500   O     0.31076   0.07316   0.92818   0.00000  Uiso   1.00
N501   N     0.42478   0.54103   0.97030   0.00000  Uiso   1.00
N502   N     0.06730   0.47518   0.84692   0.00000  Uiso   1.00
N503   N     0.26423   0.15698   0.96321   0.00000  Uiso   1.00
N504   N     0.50803   0.56219   0.87088   0.00000  Uiso   1.00
N505   N     0.15056   0.49634   0.74750   0.00000  Uiso   1.00
N506   N     0.34748   0.17814   0.86379   0.00000  Uiso   1.00
C507   C     0.65200   0.20229   0.29837   0.00000  Uiso   1.00
C508   C     0.60249   0.24836   0.31983   0.00000  Uiso   1.00
C509   C     0.59173   0.27058   0.37241   0.00000  Uiso   1.00
C510   C     0.54426   0.31245   0.38401   0.00000  Uiso   1.00
C511   C     0.47275   0.38108   0.42338   0.00000  Uiso   1.00
C512   C     0.60218   0.14670   0.29642   0.00000  Uiso   1.00
C513   C     0.59117   0.08343   0.32931   0.00000  Uiso   1.00
C514   C     0.54344   0.03972   0.32120   0.00000  Uiso   1.00
C515   C     0.47149   0.95051   0.32418   0.00000  Uiso   1.00
C516   C     0.70665   0.23570   0.22889   0.00000  Uiso   1.00
C517   C     0.78348   0.24727   0.20501   0.00000  Uiso   1.00
C518   C     0.82371   0.27848   0.14004   0.00000  Uiso   1.00
C519   C     0.91396   0.32746   0.03818   0.00000  Uiso   1.00
C520   C     0.58684   0.23715   0.22545   0.00000  Uiso   1.00
C521   C     0.56710   0.26730   0.28022   0.00000  Uiso   1.00
C522   C     0.51964   0.30915   0.29174   0.00000  Uiso   1.00
C523   C     0.50880   0.33142   0.34434   0.00000  Uiso   1.00
C524   C     0.56679   0.16563   0.25682   0.00000  Uiso   1.00
C525   C     0.51907   0.12200   0.24865   0.00000  Uiso   1.00
C526   C     0.50799   0.05869   0.28152   0.00000  Uiso   1.00
C527   C     0.67126   0.25464   0.18929   0.00000  Uiso   1.00
C528   C     0.71138   0.28584   0.12434   0.00000  Uiso   1.00
C529   C     0.78825   0.29745   0.10036   0.00000  Uiso   1.00
H530   H     0.67955   0.18755   0.32920   0.00000  Uiso   1.00
H531   H     0.61913   0.25591   0.40305   0.00000  Uiso   1.00
H532   H     0.61857   0.06879   0.35995   0.00000  Uiso   1.00
H533   H     0.81085   0.23261   0.23567   0.00000  Uiso   1.00
H534   H     0.53650   0.34003   0.46748   0.00000  Uiso   1.00
H535   H     0.53535   0.94549   0.37659   0.00000  Uiso   1.00
H536   H     0.94080   0.29091   0.11451   0.00000  Uiso   1.00
H537   H     0.55928   0.25189   0.19462   0.00000  Uiso   1.00
H538   H     0.49225   0.32379   0.26109   0.00000  Uiso   1.00
H539   H     0.49170   0.13667   0.21799   0.00000  Uiso   1.00
H540   H     0.68397   0.30048   0.09371   0.00000  Uiso   1.00
H541   H     0.43353   0.39512   0.35226   0.00000  Uiso   1.00
H542   H     0.43238   0.00057   0.26137   0.00000  Uiso   1.00
H543   H     0.83783   0.34601   0.99929   0.00000  Uiso   1.00
O544   O     0.44307   0.41370   0.45603   0.00000  Uiso   1.00
O545   O     0.44158   0.89606   0.33678   0.00000  Uiso   1.00
O546   O     0.97352   0.34926   0.99294   0.00000  Uiso   1.00
N547   N     0.52148   0.34314   0.43123   0.00000  Uiso   1.00
N548   N     0.52039   0.97426   0.34626   0.00000  Uiso   1.00
N549   N     0.89946   0.29720   0.10124   0.00000  Uiso   1.00
N550   N     0.46607   0.37279   0.36923   0.00000  Uiso   1.00
N551   N     0.46498   0.00391   0.28426   0.00000  Uiso   1.00
N552   N     0.84405   0.32684   0.03924   0.00000  Uiso   1.00
