data_job_06102
_audit_creation_date              2018-12-19
_audit_creation_method            'Materials Studio'
_symmetry_space_group_name_H-M    'P1'
_symmetry_Int_Tables_number       1
_symmetry_cell_setting            triclinic
loop_
_symmetry_equiv_pos_as_xyz
  x,y,z
_cell_length_a                    7.6909
_cell_length_b                    23.3453
_cell_length_c                    24.2929
_cell_angle_alpha                 117.7650
_cell_angle_beta                  83.2231
_cell_angle_gamma                 91.0983
loop_
_atom_site_label
_atom_site_type_symbol
_atom_site_fract_x
_atom_site_fract_y
_atom_site_fract_z
_atom_site_U_iso_or_equiv
_atom_site_adp_type
_atom_site_occupancy
C1     C     0.98342   0.72525   0.05278   0.00000  Uiso   1.00
C2     C     0.90675   0.76423   0.02486   0.00000  Uiso   1.00
C3     C     0.00069   0.80142   0.00174   0.00000  Uiso   1.00
C4     C     0.90645   0.83341   0.97819   0.00000  Uiso   1.00
C5     C     0.81502   0.89473   0.93493   0.00000  Uiso   1.00
C6     C     0.88430   0.74944   0.11829   0.00000  Uiso   1.00
C7     C     0.95937   0.77419   0.17372   0.00000  Uiso   1.00
C8     C     0.84623   0.79372   0.22881   0.00000  Uiso   1.00
C9     C     0.71996   0.83203   0.33059   0.00000  Uiso   1.00
C10    C     0.93003   0.65570   0.01470   0.00000  Uiso   1.00
C11    C     0.04354   0.60163   0.98304   0.00000  Uiso   1.00
C12    C     0.96889   0.54225   0.95092   0.00000  Uiso   1.00
C13    C     0.91362   0.43502   0.89186   0.00000  Uiso   1.00
C14    C     0.64901   0.71592   0.05206   0.00000  Uiso   1.00
C15    C     0.72511   0.75916   0.02447   0.00000  Uiso   1.00
C16    C     0.63070   0.79110   0.00094   0.00000  Uiso   1.00
C17    C     0.72448   0.82834   0.97779   0.00000  Uiso   1.00
C18    C     0.70267   0.74437   0.11790   0.00000  Uiso   1.00
C19    C     0.58939   0.76387   0.17292   0.00000  Uiso   1.00
C20    C     0.66426   0.78865   0.22841   0.00000  Uiso   1.00
C21    C     0.74839   0.65063   0.01430   0.00000  Uiso   1.00
C22    C     0.67355   0.59132   0.98223   0.00000  Uiso   1.00
C23    C     0.78692   0.53717   0.95053   0.00000  Uiso   1.00
H24    H     0.12483   0.72919   0.05309   0.00000  Uiso   1.00
H25    H     0.14125   0.80533   0.00206   0.00000  Uiso   1.00
H26    H     0.09994   0.77809   0.17401   0.00000  Uiso   1.00
H27    H     0.18409   0.60557   0.98336   0.00000  Uiso   1.00
H28    H     0.07935   0.88753   0.94533   0.00000  Uiso   1.00
H29    H     0.99224   0.83008   0.30789   0.00000  Uiso   1.00
H30    H     0.16970   0.46628   0.90586   0.00000  Uiso   1.00
H31    H     0.50759   0.71198   0.05175   0.00000  Uiso   1.00
H32    H     0.49014   0.78717   0.00064   0.00000  Uiso   1.00
H33    H     0.44883   0.75994   0.17259   0.00000  Uiso   1.00
H34    H     0.53298   0.58742   0.98194   0.00000  Uiso   1.00
H35    H     0.55088   0.87280   0.94418   0.00000  Uiso   1.00
H36    H     0.46378   0.81534   0.30674   0.00000  Uiso   1.00
H37    H     0.64123   0.45155   0.90471   0.00000  Uiso   1.00
O38    O     0.81477   0.92996   0.91118   0.00000  Uiso   1.00
O39    O     0.70050   0.85457   0.38684   0.00000  Uiso   1.00
O40    O     0.93331   0.37728   0.85939   0.00000  Uiso   1.00
N41    N     0.95737   0.87373   0.95206   0.00000  Uiso   1.00
N42    N     0.87594   0.82003   0.29104   0.00000  Uiso   1.00
N43    N     0.04183   0.47991   0.91519   0.00000  Uiso   1.00
N44    N     0.67301   0.86580   0.95144   0.00000  Uiso   1.00
N45    N     0.59158   0.81210   0.29042   0.00000  Uiso   1.00
N46    N     0.75747   0.47198   0.91457   0.00000  Uiso   1.00
C47    C     0.03385   0.96642   0.66766   0.00000  Uiso   1.00
C48    C     0.93041   0.98807   0.73214   0.00000  Uiso   1.00
C49    C     0.99981   0.01558   0.78875   0.00000  Uiso   1.00
C50    C     0.88342   0.03206   0.84258   0.00000  Uiso   1.00
C51    C     0.75009   0.06728   0.94311   0.00000  Uiso   1.00
C52    C     0.99634   0.89515   0.62876   0.00000  Uiso   1.00
C53    C     0.12118   0.84453   0.59845   0.00000  Uiso   1.00
C54    C     0.06029   0.78279   0.56526   0.00000  Uiso   1.00
C55    C     0.02933   0.67375   0.50527   0.00000  Uiso   1.00
C56    C     0.94858   0.00255   0.63860   0.00000  Uiso   1.00
C57    C     0.03326   0.04223   0.61654   0.00000  Uiso   1.00
C58    C     0.93216   0.07089   0.59162   0.00000  Uiso   1.00
C59    C     0.82704   0.12861   0.54690   0.00000  Uiso   1.00
C60    C     0.70374   0.94675   0.66259   0.00000  Uiso   1.00
C61    C     0.75111   0.97739   0.72938   0.00000  Uiso   1.00
C62    C     0.63458   0.99383   0.78314   0.00000  Uiso   1.00
C63    C     0.70379   0.02136   0.83982   0.00000  Uiso   1.00
C64    C     0.81705   0.88447   0.62601   0.00000  Uiso   1.00
C65    C     0.75595   0.82278   0.59285   0.00000  Uiso   1.00
C66    C     0.88066   0.77209   0.56250   0.00000  Uiso   1.00
C67    C     0.76927   0.99187   0.63584   0.00000  Uiso   1.00
C68    C     0.66802   0.02048   0.61094   0.00000  Uiso   1.00
C69    C     0.75253   0.06019   0.58886   0.00000  Uiso   1.00
H70    H     0.17345   0.97472   0.66980   0.00000  Uiso   1.00
H71    H     0.13858   0.02383   0.79086   0.00000  Uiso   1.00
H72    H     0.25993   0.85281   0.60059   0.00000  Uiso   1.00
H73    H     0.17201   0.05048   0.61868   0.00000  Uiso   1.00
H74    H     0.02086   0.07355   0.92386   0.00000  Uiso   1.00
H75    H     0.27673   0.71294   0.52265   0.00000  Uiso   1.00
H76    H     0.09136   0.12976   0.56080   0.00000  Uiso   1.00
H77    H     0.56414   0.93844   0.66044   0.00000  Uiso   1.00
H78    H     0.49583   0.98556   0.78099   0.00000  Uiso   1.00
H79    H     0.61719   0.81454   0.59072   0.00000  Uiso   1.00
H80    H     0.52928   0.01220   0.60882   0.00000  Uiso   1.00
H81    H     0.49918   0.04248   0.91585   0.00000  Uiso   1.00
H82    H     0.75506   0.68188   0.51464   0.00000  Uiso   1.00
H83    H     0.56968   0.09869   0.55279   0.00000  Uiso   1.00
O84    O     0.72609   0.08964   0.99932   0.00000  Uiso   1.00
O85    O     0.06179   0.61655   0.47294   0.00000  Uiso   1.00
O86    O     0.81858   0.16341   0.52300   0.00000  Uiso   1.00
N87    N     0.90745   0.05978   0.90543   0.00000  Uiso   1.00
N88    N     0.14668   0.72264   0.53033   0.00000  Uiso   1.00
N89    N     0.97338   0.11231   0.56598   0.00000  Uiso   1.00
N90    N     0.62674   0.04306   0.90112   0.00000  Uiso   1.00
N91    N     0.86597   0.70592   0.52602   0.00000  Uiso   1.00
N92    N     0.69267   0.09559   0.56168   0.00000  Uiso   1.00
C93    C     0.69356   0.34907   0.29498   0.00000  Uiso   1.00
C94    C     0.65094   0.27862   0.25470   0.00000  Uiso   1.00
C95    C     0.77116   0.22641   0.22594   0.00000  Uiso   1.00
C96    C     0.70603   0.16579   0.19107   0.00000  Uiso   1.00
C97    C     0.66707   0.05763   0.12940   0.00000  Uiso   1.00
C98    C     0.62327   0.38703   0.26491   0.00000  Uiso   1.00
C99    C     0.72024   0.42598   0.24474   0.00000  Uiso   1.00
C100   C     0.63180   0.45662   0.21847   0.00000  Uiso   1.00
C101   C     0.54987   0.51681   0.17270   0.00000  Uiso   1.00
C102   C     0.58069   0.37140   0.35793   0.00000  Uiso   1.00
C103   C     0.64185   0.39722   0.41596   0.00000  Uiso   1.00
C104   C     0.51755   0.41471   0.46801   0.00000  Uiso   1.00
C105   C     0.36951   0.45062   0.56665   0.00000  Uiso   1.00
C106   C     0.36408   0.33424   0.28421   0.00000  Uiso   1.00
C107   C     0.47197   0.27057   0.24886   0.00000  Uiso   1.00
C108   C     0.40663   0.21000   0.21403   0.00000  Uiso   1.00
C109   C     0.52674   0.15772   0.18521   0.00000  Uiso   1.00
C110   C     0.44431   0.37898   0.25907   0.00000  Uiso   1.00
C111   C     0.35570   0.40957   0.23283   0.00000  Uiso   1.00
C112   C     0.45251   0.44855   0.21262   0.00000  Uiso   1.00
C113   C     0.40173   0.36334   0.35208   0.00000  Uiso   1.00
C114   C     0.27731   0.38080   0.40405   0.00000  Uiso   1.00
C115   C     0.33826   0.40664   0.46215   0.00000  Uiso   1.00
H116   H     0.83289   0.35534   0.29953   0.00000  Uiso   1.00
H117   H     0.90966   0.23267   0.23047   0.00000  Uiso   1.00
H118   H     0.85873   0.43221   0.24927   0.00000  Uiso   1.00
H119   H     0.78035   0.40344   0.42047   0.00000  Uiso   1.00
H120   H     0.91585   0.09311   0.15130   0.00000  Uiso   1.00
H121   H     0.80845   0.51387   0.19098   0.00000  Uiso   1.00
H122   H     0.64318   0.45322   0.55198   0.00000  Uiso   1.00
H123   H     0.22474   0.32797   0.27966   0.00000  Uiso   1.00
H124   H     0.26813   0.20379   0.20951   0.00000  Uiso   1.00
H125   H     0.21721   0.40333   0.22832   0.00000  Uiso   1.00
H126   H     0.13883   0.37456   0.39951   0.00000  Uiso   1.00
H127   H     0.39516   0.06967   0.13430   0.00000  Uiso   1.00
H128   H     0.28777   0.49043   0.17397   0.00000  Uiso   1.00
H129   H     0.12249   0.42977   0.53497   0.00000  Uiso   1.00
O130   O     0.69503   0.00020   0.09700   0.00000  Uiso   1.00
O131   O     0.55413   0.55222   0.14906   0.00000  Uiso   1.00
O132   O     0.33729   0.47265   0.62267   0.00000  Uiso   1.00
N133   N     0.78734   0.10463   0.15694   0.00000  Uiso   1.00
N134   N     0.68694   0.49801   0.19402   0.00000  Uiso   1.00
N135   N     0.53242   0.44132   0.53153   0.00000  Uiso   1.00
N136   N     0.50717   0.09202   0.14779   0.00000  Uiso   1.00
N137   N     0.40677   0.48540   0.18487   0.00000  Uiso   1.00
N138   N     0.25224   0.42871   0.52237   0.00000  Uiso   1.00
C139   C     0.01658   0.27475   0.94722   0.00000  Uiso   1.00
C140   C     0.09325   0.23577   0.97514   0.00000  Uiso   1.00
C141   C     0.99931   0.19858   0.99825   0.00000  Uiso   1.00
C142   C     0.09355   0.16659   0.02181   0.00000  Uiso   1.00
C143   C     0.18498   0.10527   0.06507   0.00000  Uiso   1.00
C144   C     0.11570   0.25056   0.88171   0.00000  Uiso   1.00
C145   C     0.04063   0.22581   0.82628   0.00000  Uiso   1.00
C146   C     0.15377   0.20628   0.77119   0.00000  Uiso   1.00
C147   C     0.28004   0.16797   0.66941   0.00000  Uiso   1.00
C148   C     0.06997   0.34430   0.98530   0.00000  Uiso   1.00
C149   C     0.95646   0.39837   0.01696   0.00000  Uiso   1.00
C150   C     0.03111   0.45775   0.04908   0.00000  Uiso   1.00
C151   C     0.08638   0.56498   0.10814   0.00000  Uiso   1.00
C152   C     0.35099   0.28408   0.94794   0.00000  Uiso   1.00
C153   C     0.27489   0.24084   0.97553   0.00000  Uiso   1.00
C154   C     0.36930   0.20890   0.99906   0.00000  Uiso   1.00
C155   C     0.27552   0.17166   0.02221   0.00000  Uiso   1.00
C156   C     0.29733   0.25563   0.88210   0.00000  Uiso   1.00
C157   C     0.41061   0.23613   0.82708   0.00000  Uiso   1.00
C158   C     0.33574   0.21135   0.77159   0.00000  Uiso   1.00
C159   C     0.25161   0.34936   0.98570   0.00000  Uiso   1.00
C160   C     0.32645   0.40868   0.01777   0.00000  Uiso   1.00
C161   C     0.21308   0.46282   0.04947   0.00000  Uiso   1.00
H162   H     0.87517   0.27081   0.94691   0.00000  Uiso   1.00
H163   H     0.85875   0.19467   0.99794   0.00000  Uiso   1.00
H164   H     0.90006   0.22190   0.82599   0.00000  Uiso   1.00
H165   H     0.81591   0.39443   0.01664   0.00000  Uiso   1.00
H166   H     0.92065   0.11247   0.05467   0.00000  Uiso   1.00
H167   H     0.00775   0.16992   0.69211   0.00000  Uiso   1.00
H168   H     0.83030   0.53372   0.09414   0.00000  Uiso   1.00
H169   H     0.49241   0.28802   0.94825   0.00000  Uiso   1.00
H170   H     0.50986   0.21282   0.99936   0.00000  Uiso   1.00
H171   H     0.55117   0.24006   0.82741   0.00000  Uiso   1.00
H172   H     0.46701   0.41258   0.01806   0.00000  Uiso   1.00
H173   H     0.44912   0.12720   0.05582   0.00000  Uiso   1.00
H174   H     0.53622   0.18466   0.69326   0.00000  Uiso   1.00
H175   H     0.35877   0.54845   0.09529   0.00000  Uiso   1.00
O176   O     0.18523   0.07004   0.08882   0.00000  Uiso   1.00
O177   O     0.29950   0.14543   0.61316   0.00000  Uiso   1.00
O178   O     0.06669   0.62272   0.14061   0.00000  Uiso   1.00
N179   N     0.04263   0.12627   0.04794   0.00000  Uiso   1.00
N180   N     0.12406   0.17997   0.70896   0.00000  Uiso   1.00
N181   N     0.95817   0.52009   0.08481   0.00000  Uiso   1.00
N182   N     0.32699   0.13419   0.04856   0.00000  Uiso   1.00
N183   N     0.40843   0.18790   0.70958   0.00000  Uiso   1.00
N184   N     0.24253   0.52802   0.08543   0.00000  Uiso   1.00
C185   C     0.96615   0.03358   0.33234   0.00000  Uiso   1.00
C186   C     0.06959   0.01193   0.26786   0.00000  Uiso   1.00
C187   C     0.00019   0.98442   0.21125   0.00000  Uiso   1.00
C188   C     0.11658   0.96794   0.15742   0.00000  Uiso   1.00
C189   C     0.24991   0.93272   0.05689   0.00000  Uiso   1.00
C190   C     0.00366   0.10485   0.37124   0.00000  Uiso   1.00
C191   C     0.87882   0.15547   0.40155   0.00000  Uiso   1.00
C192   C     0.93971   0.21721   0.43474   0.00000  Uiso   1.00
C193   C     0.97067   0.32625   0.49473   0.00000  Uiso   1.00
C194   C     0.05142   0.99745   0.36140   0.00000  Uiso   1.00
C195   C     0.96674   0.95777   0.38346   0.00000  Uiso   1.00
C196   C     0.06784   0.92911   0.40838   0.00000  Uiso   1.00
C197   C     0.17296   0.87139   0.45310   0.00000  Uiso   1.00
C198   C     0.29626   0.05325   0.33741   0.00000  Uiso   1.00
C199   C     0.24889   0.02261   0.27062   0.00000  Uiso   1.00
C200   C     0.36542   0.00617   0.21686   0.00000  Uiso   1.00
C201   C     0.29621   0.97864   0.16018   0.00000  Uiso   1.00
C202   C     0.18295   0.11553   0.37399   0.00000  Uiso   1.00
C203   C     0.24405   0.17722   0.40715   0.00000  Uiso   1.00
C204   C     0.11934   0.22791   0.43750   0.00000  Uiso   1.00
C205   C     0.23073   0.00813   0.36416   0.00000  Uiso   1.00
C206   C     0.33197   0.97952   0.38906   0.00000  Uiso   1.00
C207   C     0.24747   0.93981   0.41114   0.00000  Uiso   1.00
H208   H     0.82655   0.02527   0.33020   0.00000  Uiso   1.00
H209   H     0.86142   0.97617   0.20914   0.00000  Uiso   1.00
H210   H     0.74007   0.14719   0.39941   0.00000  Uiso   1.00
H211   H     0.82799   0.94952   0.38132   0.00000  Uiso   1.00
H212   H     0.97914   0.92645   0.07614   0.00000  Uiso   1.00
H213   H     0.72327   0.28705   0.47735   0.00000  Uiso   1.00
H214   H     0.90864   0.87024   0.43920   0.00000  Uiso   1.00
H215   H     0.43586   0.06156   0.33956   0.00000  Uiso   1.00
H216   H     0.50417   0.01444   0.21901   0.00000  Uiso   1.00
H217   H     0.38281   0.18546   0.40928   0.00000  Uiso   1.00
H218   H     0.47072   0.98780   0.39118   0.00000  Uiso   1.00
H219   H     0.50082   0.95752   0.08415   0.00000  Uiso   1.00
H220   H     0.24494   0.31812   0.48536   0.00000  Uiso   1.00
H221   H     0.43032   0.90131   0.44721   0.00000  Uiso   1.00
O222   O     0.27391   0.91036   0.00067   0.00000  Uiso   1.00
O223   O     0.93821   0.38345   0.52706   0.00000  Uiso   1.00
O224   O     0.18142   0.83659   0.47700   0.00000  Uiso   1.00
N225   N     0.09255   0.94022   0.09457   0.00000  Uiso   1.00
N226   N     0.85332   0.27736   0.46967   0.00000  Uiso   1.00
N227   N     0.02662   0.88769   0.43402   0.00000  Uiso   1.00
N228   N     0.37326   0.95694   0.09887   0.00000  Uiso   1.00
N229   N     0.13403   0.29408   0.47397   0.00000  Uiso   1.00
N230   N     0.30733   0.90440   0.43832   0.00000  Uiso   1.00
C231   C     0.30644   0.65093   0.70502   0.00000  Uiso   1.00
C232   C     0.34906   0.72138   0.74529   0.00000  Uiso   1.00
C233   C     0.22884   0.77359   0.77406   0.00000  Uiso   1.00
C234   C     0.29397   0.83421   0.80893   0.00000  Uiso   1.00
C235   C     0.33293   0.94237   0.87060   0.00000  Uiso   1.00
C236   C     0.37673   0.61297   0.73509   0.00000  Uiso   1.00
C237   C     0.27976   0.57402   0.75526   0.00000  Uiso   1.00
C238   C     0.36820   0.54338   0.78153   0.00000  Uiso   1.00
C239   C     0.45013   0.48319   0.82730   0.00000  Uiso   1.00
C240   C     0.41931   0.62860   0.64207   0.00000  Uiso   1.00
C241   C     0.35815   0.60278   0.58404   0.00000  Uiso   1.00
C242   C     0.48245   0.58529   0.53199   0.00000  Uiso   1.00
C243   C     0.63049   0.54938   0.43335   0.00000  Uiso   1.00
C244   C     0.63592   0.66576   0.71578   0.00000  Uiso   1.00
C245   C     0.52803   0.72943   0.75114   0.00000  Uiso   1.00
C246   C     0.59337   0.79000   0.78597   0.00000  Uiso   1.00
C247   C     0.47326   0.84228   0.81478   0.00000  Uiso   1.00
C248   C     0.55569   0.62102   0.74093   0.00000  Uiso   1.00
C249   C     0.64430   0.59043   0.76717   0.00000  Uiso   1.00
C250   C     0.54749   0.55145   0.78738   0.00000  Uiso   1.00
C251   C     0.59827   0.63666   0.64792   0.00000  Uiso   1.00
C252   C     0.72269   0.61920   0.59595   0.00000  Uiso   1.00
C253   C     0.66173   0.59336   0.53785   0.00000  Uiso   1.00
H254   H     0.16711   0.64465   0.70047   0.00000  Uiso   1.00
H255   H     0.09034   0.76733   0.76953   0.00000  Uiso   1.00
H256   H     0.14127   0.56779   0.75073   0.00000  Uiso   1.00
H257   H     0.21965   0.59655   0.57953   0.00000  Uiso   1.00
H258   H     0.08415   0.90689   0.84869   0.00000  Uiso   1.00
H259   H     0.19155   0.48613   0.80902   0.00000  Uiso   1.00
H260   H     0.35682   0.54678   0.44802   0.00000  Uiso   1.00
H261   H     0.77526   0.67203   0.72034   0.00000  Uiso   1.00
H262   H     0.73187   0.79621   0.79049   0.00000  Uiso   1.00
H263   H     0.78279   0.59667   0.77168   0.00000  Uiso   1.00
H264   H     0.86117   0.62544   0.60049   0.00000  Uiso   1.00
H265   H     0.60484   0.93033   0.86570   0.00000  Uiso   1.00
H266   H     0.71223   0.50957   0.82603   0.00000  Uiso   1.00
H267   H     0.87751   0.57022   0.46503   0.00000  Uiso   1.00
O268   O     0.30497   0.99980   0.90300   0.00000  Uiso   1.00
O269   O     0.44587   0.44777   0.85094   0.00000  Uiso   1.00
O270   O     0.66271   0.52735   0.37733   0.00000  Uiso   1.00
N271   N     0.21266   0.89536   0.84306   0.00000  Uiso   1.00
N272   N     0.31306   0.50199   0.80598   0.00000  Uiso   1.00
N273   N     0.46758   0.55868   0.46847   0.00000  Uiso   1.00
N274   N     0.49283   0.90798   0.85221   0.00000  Uiso   1.00
N275   N     0.59323   0.51460   0.81513   0.00000  Uiso   1.00
N276   N     0.74776   0.57129   0.47762   0.00000  Uiso   1.00
