data_job_06869
_audit_creation_date              2018-12-19
_audit_creation_method            'Materials Studio'
_symmetry_space_group_name_H-M    'P1'
_symmetry_Int_Tables_number       1
_symmetry_cell_setting            triclinic
loop_
_symmetry_equiv_pos_as_xyz
  x,y,z
_cell_length_a                    20.3232
_cell_length_b                    21.0005
_cell_length_c                    22.0469
_cell_angle_alpha                 81.5222
_cell_angle_beta                  65.7634
_cell_angle_gamma                 112.2970
loop_
_atom_site_label
_atom_site_type_symbol
_atom_site_fract_x
_atom_site_fract_y
_atom_site_fract_z
_atom_site_U_iso_or_equiv
_atom_site_adp_type
_atom_site_occupancy
C1     C     0.22334   0.15423   0.55687   0.00000  Uiso   1.00
C2     C     0.15498   0.07470   0.58564   0.00000  Uiso   1.00
C3     C     0.15585   0.02451   0.55123   0.00000  Uiso   1.00
C4     C     0.08736   0.95443   0.58643   0.00000  Uiso   1.00
C5     C     0.99137   0.83386   0.62086   0.00000  Uiso   1.00
C6     C     0.18261   0.20202   0.55659   0.00000  Uiso   1.00
C7     C     0.20672   0.25889   0.49775   0.00000  Uiso   1.00
C8     C     0.16148   0.29599   0.50849   0.00000  Uiso   1.00
C9     C     0.10843   0.37313   0.49783   0.00000  Uiso   1.00
C10    C     0.24801   0.16186   0.61316   0.00000  Uiso   1.00
C11    C     0.32711   0.18497   0.60189   0.00000  Uiso   1.00
C12    C     0.33694   0.18828   0.66026   0.00000  Uiso   1.00
C13    C     0.38543   0.20305   0.73743   0.00000  Uiso   1.00
C14    C     0.10015   0.11904   0.68057   0.00000  Uiso   1.00
C15    C     0.08807   0.05559   0.65283   0.00000  Uiso   1.00
C16    C     0.01956   0.98557   0.68809   0.00000  Uiso   1.00
C17    C     0.02033   0.93528   0.65374   0.00000  Uiso   1.00
C18    C     0.11570   0.18291   0.62377   0.00000  Uiso   1.00
C19    C     0.07042   0.21995   0.63460   0.00000  Uiso   1.00
C20    C     0.09445   0.27684   0.57580   0.00000  Uiso   1.00
C21    C     0.18109   0.14274   0.68035   0.00000  Uiso   1.00
C22    C     0.19081   0.14602   0.73875   0.00000  Uiso   1.00
C23    C     0.26991   0.16913   0.72757   0.00000  Uiso   1.00
H24    H     0.27543   0.16912   0.50456   0.00000  Uiso   1.00
H25    H     0.20764   0.03932   0.49923   0.00000  Uiso   1.00
H26    H     0.25851   0.27367   0.44576   0.00000  Uiso   1.00
H27    H     0.37887   0.19976   0.54989   0.00000  Uiso   1.00
H28    H     0.10296   0.88700   0.52294   0.00000  Uiso   1.00
H29    H     0.21023   0.38115   0.41020   0.00000  Uiso   1.00
H30    H     0.46405   0.22529   0.62977   0.00000  Uiso   1.00
H31    H     0.04805   0.10416   0.73288   0.00000  Uiso   1.00
H32    H     0.96778   0.97079   0.74008   0.00000  Uiso   1.00
H33    H     0.01865   0.20514   0.68661   0.00000  Uiso   1.00
H34    H     0.13901   0.13123   0.79073   0.00000  Uiso   1.00
H35    H     0.90828   0.83137   0.71842   0.00000  Uiso   1.00
H36    H     0.01555   0.32553   0.60568   0.00000  Uiso   1.00
H37    H     0.26937   0.16967   0.82525   0.00000  Uiso   1.00
O38    O     0.95691   0.77263   0.62129   0.00000  Uiso   1.00
O39    O     0.09765   0.42095   0.47338   0.00000  Uiso   1.00
O40    O     0.43065   0.21646   0.76144   0.00000  Uiso   1.00
N41    N     0.06817   0.89221   0.56797   0.00000  Uiso   1.00
N42    N     0.16845   0.35420   0.46256   0.00000  Uiso   1.00
N43    N     0.40575   0.20851   0.66783   0.00000  Uiso   1.00
N44    N     0.96341   0.86227   0.67315   0.00000  Uiso   1.00
N45    N     0.06369   0.32427   0.56774   0.00000  Uiso   1.00
N46    N     0.30100   0.17857   0.77301   0.00000  Uiso   1.00
C47    C     0.36317   0.38504   0.15634   0.00000  Uiso   1.00
C48    C     0.38327   0.42119   0.08120   0.00000  Uiso   1.00
C49    C     0.43782   0.49495   0.03842   0.00000  Uiso   1.00
C50    C     0.44767   0.51725   0.97135   0.00000  Uiso   1.00
C51    C     0.48542   0.58095   0.85825   0.00000  Uiso   1.00
C52    C     0.26966   0.34975   0.20374   0.00000  Uiso   1.00
C53    C     0.22870   0.36344   0.26398   0.00000  Uiso   1.00
C54    C     0.14291   0.32559   0.30007   0.00000  Uiso   1.00
C55    C     0.00427   0.27834   0.37724   0.00000  Uiso   1.00
C56    C     0.38208   0.32145   0.15459   0.00000  Uiso   1.00
C57    C     0.43563   0.31133   0.17352   0.00000  Uiso   1.00
C58    C     0.44447   0.24964   0.16824   0.00000  Uiso   1.00
C59    C     0.48039   0.15845   0.16910   0.00000  Uiso   1.00
C60    C     0.28364   0.29348   0.11331   0.00000  Uiso   1.00
C61    C     0.34007   0.37146   0.05784   0.00000  Uiso   1.00
C62    C     0.34984   0.39365   0.99081   0.00000  Uiso   1.00
C63    C     0.40440   0.46743   0.94793   0.00000  Uiso   1.00
C64    C     0.22646   0.30002   0.18037   0.00000  Uiso   1.00
C65    C     0.14071   0.26214   0.21638   0.00000  Uiso   1.00
C66    C     0.09963   0.27577   0.27666   0.00000  Uiso   1.00
C67    C     0.33888   0.27172   0.13122   0.00000  Uiso   1.00
C68    C     0.34764   0.21003   0.12591   0.00000  Uiso   1.00
C69    C     0.40119   0.19982   0.14483   0.00000  Uiso   1.00
H70    H     0.39680   0.42376   0.17453   0.00000  Uiso   1.00
H71    H     0.47124   0.53342   0.05652   0.00000  Uiso   1.00
H72    H     0.26214   0.40192   0.28206   0.00000  Uiso   1.00
H73    H     0.46904   0.34982   0.19160   0.00000  Uiso   1.00
H74    H     0.53470   0.63308   0.91539   0.00000  Uiso   1.00
H75    H     0.09381   0.35579   0.39095   0.00000  Uiso   1.00
H76    H     0.53010   0.24592   0.20022   0.00000  Uiso   1.00
H77    H     0.25001   0.25476   0.09512   0.00000  Uiso   1.00
H78    H     0.31640   0.35515   0.97274   0.00000  Uiso   1.00
H79    H     0.10730   0.22365   0.19828   0.00000  Uiso   1.00
H80    H     0.31420   0.17156   0.10783   0.00000  Uiso   1.00
H81    H     0.40902   0.48839   0.84739   0.00000  Uiso   1.00
H82    H     0.96813   0.21109   0.32296   0.00000  Uiso   1.00
H83    H     0.40442   0.10124   0.13222   0.00000  Uiso   1.00
O84    O     0.51816   0.62983   0.80233   0.00000  Uiso   1.00
O85    O     0.93974   0.26602   0.42626   0.00000  Uiso   1.00
O86    O     0.51214   0.12189   0.17602   0.00000  Uiso   1.00
N87    N     0.49602   0.58524   0.91617   0.00000  Uiso   1.00
N88    N     0.08382   0.32600   0.36079   0.00000  Uiso   1.00
N89    N     0.49169   0.22328   0.18249   0.00000  Uiso   1.00
N90    N     0.42840   0.50739   0.87958   0.00000  Uiso   1.00
N91    N     0.01620   0.24815   0.32420   0.00000  Uiso   1.00
N92    N     0.42407   0.14543   0.14590   0.00000  Uiso   1.00
C93    C     0.54570   0.64055   0.33927   0.00000  Uiso   1.00
C94    C     0.57739   0.67585   0.38423   0.00000  Uiso   1.00
C95    C     0.57002   0.63827   0.44600   0.00000  Uiso   1.00
C96    C     0.60306   0.68059   0.47937   0.00000  Uiso   1.00
C97    C     0.64630   0.72367   0.55338   0.00000  Uiso   1.00
C98    C     0.48854   0.66915   0.33481   0.00000  Uiso   1.00
C99    C     0.40648   0.62592   0.35501   0.00000  Uiso   1.00
C100   C     0.36473   0.66261   0.34676   0.00000  Uiso   1.00
C101   C     0.27005   0.69528   0.34399   0.00000  Uiso   1.00
C102   C     0.62035   0.67398   0.26411   0.00000  Uiso   1.00
C103   C     0.64911   0.63481   0.22487   0.00000  Uiso   1.00
C104   C     0.71833   0.67556   0.15709   0.00000  Uiso   1.00
C105   C     0.82830   0.71572   0.04455   0.00000  Uiso   1.00
C106   C     0.61749   0.78256   0.28869   0.00000  Uiso   1.00
C107   C     0.61638   0.75298   0.35676   0.00000  Uiso   1.00
C108   C     0.64944   0.79538   0.39004   0.00000  Uiso   1.00
C109   C     0.64213   0.75786   0.45185   0.00000  Uiso   1.00
C110   C     0.52753   0.74628   0.30733   0.00000  Uiso   1.00
C111   C     0.48590   0.78304   0.29905   0.00000  Uiso   1.00
C112   C     0.40379   0.73988   0.31924   0.00000  Uiso   1.00
C113   C     0.65935   0.75111   0.23664   0.00000  Uiso   1.00
C114   C     0.72853   0.79192   0.16890   0.00000  Uiso   1.00
C115   C     0.75739   0.75283   0.12956   0.00000  Uiso   1.00
H116   H     0.51534   0.58050   0.36066   0.00000  Uiso   1.00
H117   H     0.53983   0.57858   0.46725   0.00000  Uiso   1.00
H118   H     0.37632   0.56624   0.37627   0.00000  Uiso   1.00
H119   H     0.61892   0.57512   0.24615   0.00000  Uiso   1.00
H120   H     0.58416   0.61045   0.57333   0.00000  Uiso   1.00
H121   H     0.23939   0.58443   0.38145   0.00000  Uiso   1.00
H122   H     0.75095   0.60317   0.10706   0.00000  Uiso   1.00
H123   H     0.64784   0.84261   0.26730   0.00000  Uiso   1.00
H124   H     0.67961   0.85507   0.36876   0.00000  Uiso   1.00
H125   H     0.51609   0.84272   0.27778   0.00000  Uiso   1.00
H126   H     0.75869   0.85161   0.14766   0.00000  Uiso   1.00
H127   H     0.69761   0.83486   0.49339   0.00000  Uiso   1.00
H128   H     0.35283   0.80884   0.30152   0.00000  Uiso   1.00
H129   H     0.86439   0.82758   0.02713   0.00000  Uiso   1.00
O130   O     0.65937   0.72612   0.60180   0.00000  Uiso   1.00
O131   O     0.20705   0.69198   0.35006   0.00000  Uiso   1.00
O132   O     0.87820   0.71657   0.99008   0.00000  Uiso   1.00
N133   N     0.60652   0.66156   0.54058   0.00000  Uiso   1.00
N134   N     0.28417   0.63723   0.36120   0.00000  Uiso   1.00
N135   N     0.76242   0.65475   0.10466   0.00000  Uiso   1.00
N136   N     0.66756   0.78231   0.49757   0.00000  Uiso   1.00
N137   N     0.34521   0.75798   0.31819   0.00000  Uiso   1.00
N138   N     0.82347   0.77550   0.06165   0.00000  Uiso   1.00
C139   C     0.58661   0.08915   0.67378   0.00000  Uiso   1.00
C140   C     0.58569   0.13605   0.61465   0.00000  Uiso   1.00
C141   C     0.54184   0.10946   0.58135   0.00000  Uiso   1.00
C142   C     0.54913   0.16133   0.52850   0.00000  Uiso   1.00
C143   C     0.54016   0.22264   0.43958   0.00000  Uiso   1.00
C144   C     0.55932   0.11547   0.73598   0.00000  Uiso   1.00
C145   C     0.49329   0.07155   0.80469   0.00000  Uiso   1.00
C146   C     0.47838   0.10609   0.85398   0.00000  Uiso   1.00
C147   C     0.42849   0.13544   0.95344   0.00000  Uiso   1.00
C148   C     0.67714   0.11146   0.64698   0.00000  Uiso   1.00
C149   C     0.71018   0.06418   0.64087   0.00000  Uiso   1.00
C150   C     0.79448   0.09535   0.61524   0.00000  Uiso   1.00
C151   C     0.92753   0.11848   0.57651   0.00000  Uiso   1.00
C152   C     0.67755   0.22857   0.63914   0.00000  Uiso   1.00
C153   C     0.63509   0.21178   0.59584   0.00000  Uiso   1.00
C154   C     0.64245   0.26371   0.54303   0.00000  Uiso   1.00
C155   C     0.59861   0.23719   0.50965   0.00000  Uiso   1.00
C156   C     0.60871   0.19119   0.71717   0.00000  Uiso   1.00
C157   C     0.59390   0.22581   0.76637   0.00000  Uiso   1.00
C158   C     0.52787   0.18196   0.83514   0.00000  Uiso   1.00
C159   C     0.72654   0.18719   0.62816   0.00000  Uiso   1.00
C160   C     0.81080   0.21844   0.60255   0.00000  Uiso   1.00
C161   C     0.84396   0.17122   0.59640   0.00000  Uiso   1.00
H162   H     0.54815   0.03019   0.68843   0.00000  Uiso   1.00
H163   H     0.50361   0.05084   0.59593   0.00000  Uiso   1.00
H164   H     0.45508   0.01295   0.81924   0.00000  Uiso   1.00
H165   H     0.67194   0.00558   0.65544   0.00000  Uiso   1.00
H166   H     0.47599   0.10714   0.48509   0.00000  Uiso   1.00
H167   H     0.37367   0.02723   0.95596   0.00000  Uiso   1.00
H168   H     0.83096   0.01170   0.61056   0.00000  Uiso   1.00
H169   H     0.71601   0.28753   0.62450   0.00000  Uiso   1.00
H170   H     0.68068   0.32231   0.52848   0.00000  Uiso   1.00
H171   H     0.63214   0.28441   0.75179   0.00000  Uiso   1.00
H172   H     0.84900   0.27705   0.58799   0.00000  Uiso   1.00
H173   H     0.61970   0.32748   0.43035   0.00000  Uiso   1.00
H174   H     0.51738   0.24756   0.90122   0.00000  Uiso   1.00
H175   H     0.97467   0.23203   0.55582   0.00000  Uiso   1.00
O176   O     0.52155   0.23555   0.39573   0.00000  Uiso   1.00
O177   O     0.38732   0.13070   0.01349   0.00000  Uiso   1.00
O178   O     0.98727   0.11032   0.56033   0.00000  Uiso   1.00
N179   N     0.51467   0.15423   0.48538   0.00000  Uiso   1.00
N180   N     0.41900   0.07951   0.92561   0.00000  Uiso   1.00
N181   N     0.84653   0.06499   0.60270   0.00000  Uiso   1.00
N182   N     0.59200   0.27278   0.45592   0.00000  Uiso   1.00
N183   N     0.49633   0.19807   0.89615   0.00000  Uiso   1.00
N184   N     0.92386   0.18355   0.57324   0.00000  Uiso   1.00
C185   C     0.09922   0.68367   0.85903   0.00000  Uiso   1.00
C186   C     0.01924   0.61003   0.90078   0.00000  Uiso   1.00
C187   C     0.99557   0.55704   0.96238   0.00000  Uiso   1.00
C188   C     0.92006   0.49337   0.99257   0.00000  Uiso   1.00
C189   C     0.80346   0.38059   0.06204   0.00000  Uiso   1.00
C190   C     0.07343   0.74281   0.85488   0.00000  Uiso   1.00
C191   C     0.09532   0.80147   0.87789   0.00000  Uiso   1.00
C192   C     0.06543   0.84958   0.86943   0.00000  Uiso   1.00
C193   C     0.03300   0.94298   0.86759   0.00000  Uiso   1.00
C194   C     0.14195   0.68527   0.78311   0.00000  Uiso   1.00
C195   C     0.22146   0.69556   0.74575   0.00000  Uiso   1.00
C196   C     0.24927   0.69525   0.67685   0.00000  Uiso   1.00
C197   C     0.32323   0.69931   0.56357   0.00000  Uiso   1.00
C198   C     0.00723   0.66483   0.80310   0.00000  Uiso   1.00
C199   C     0.96928   0.59979   0.87040   0.00000  Uiso   1.00
C200   C     0.89379   0.53619   0.90050   0.00000  Uiso   1.00
C201   C     0.87001   0.48311   0.96213   0.00000  Uiso   1.00
C202   C     0.02347   0.73258   0.82450   0.00000  Uiso   1.00
C203   C     0.99355   0.78062   0.81600   0.00000  Uiso   1.00
C204   C     0.01538   0.83933   0.83899   0.00000  Uiso   1.00
C205   C     0.09198   0.67503   0.75272   0.00000  Uiso   1.00
C206   C     0.11968   0.67471   0.68386   0.00000  Uiso   1.00
C207   C     0.19922   0.68500   0.64641   0.00000  Uiso   1.00
H208   H     0.13812   0.69164   0.88269   0.00000  Uiso   1.00
H209   H     0.03425   0.56498   0.98588   0.00000  Uiso   1.00
H210   H     0.13399   0.80938   0.90139   0.00000  Uiso   1.00
H211   H     0.26010   0.70348   0.76928   0.00000  Uiso   1.00
H212   H     0.89704   0.42005   0.08691   0.00000  Uiso   1.00
H213   H     0.10737   0.93538   0.90873   0.00000  Uiso   1.00
H214   H     0.37332   0.71209   0.63014   0.00000  Uiso   1.00
H215   H     0.96833   0.65686   0.77944   0.00000  Uiso   1.00
H216   H     0.85514   0.52828   0.87697   0.00000  Uiso   1.00
H217   H     0.95489   0.77268   0.79248   0.00000  Uiso   1.00
H218   H     0.08100   0.66679   0.66037   0.00000  Uiso   1.00
H219   H     0.75167   0.39027   0.99852   0.00000  Uiso   1.00
H220   H     0.96201   0.90561   0.82034   0.00000  Uiso   1.00
H221   H     0.22795   0.68231   0.54175   0.00000  Uiso   1.00
O222   O     0.75294   0.32122   0.10875   0.00000  Uiso   1.00
O223   O     0.02891   0.99732   0.87497   0.00000  Uiso   1.00
O224   O     0.37782   0.70436   0.50948   0.00000  Uiso   1.00
N225   N     0.87837   0.43068   0.05272   0.00000  Uiso   1.00
N226   N     0.07501   0.91248   0.88614   0.00000  Uiso   1.00
N227   N     0.32365   0.70374   0.62568   0.00000  Uiso   1.00
N228   N     0.80014   0.41465   0.00515   0.00000  Uiso   1.00
N229   N     0.99679   0.89645   0.83857   0.00000  Uiso   1.00
N230   N     0.24543   0.68771   0.57811   0.00000  Uiso   1.00
C231   C     0.31918   0.80074   0.07131   0.00000  Uiso   1.00
C232   C     0.37359   0.84160   0.09910   0.00000  Uiso   1.00
C233   C     0.45653   0.86208   0.07133   0.00000  Uiso   1.00
C234   C     0.49536   0.89908   0.10430   0.00000  Uiso   1.00
C235   C     0.58634   0.96013   0.13852   0.00000  Uiso   1.00
C236   C     0.28429   0.84907   0.05431   0.00000  Uiso   1.00
C237   C     0.29213   0.87582   0.98888   0.00000  Uiso   1.00
C238   C     0.25578   0.91910   0.98415   0.00000  Uiso   1.00
C239   C     0.20806   0.99170   0.94884   0.00000  Uiso   1.00
C240   C     0.24587   0.73165   0.13449   0.00000  Uiso   1.00
C241   C     0.22139   0.65968   0.13647   0.00000  Uiso   1.00
C242   C     0.15268   0.60411   0.19924   0.00000  Uiso   1.00
C243   C     0.04532   0.49440   0.28842   0.00000  Uiso   1.00
C244   C     0.24066   0.83004   0.17926   0.00000  Uiso   1.00
C245   C     0.33094   0.85751   0.15773   0.00000  Uiso   1.00
C246   C     0.36965   0.89449   0.19076   0.00000  Uiso   1.00
C247   C     0.45264   0.91502   0.16305   0.00000  Uiso   1.00
C248   C     0.24164   0.86498   0.11294   0.00000  Uiso   1.00
C249   C     0.20526   0.90823   0.10831   0.00000  Uiso   1.00
C250   C     0.21305   0.93504   0.04289   0.00000  Uiso   1.00
C251   C     0.20322   0.74756   0.19312   0.00000  Uiso   1.00
C252   C     0.13453   0.69209   0.25590   0.00000  Uiso   1.00
C253   C     0.10996   0.62005   0.25798   0.00000  Uiso   1.00
H254   H     0.35238   0.78836   0.02566   0.00000  Uiso   1.00
H255   H     0.48951   0.84976   0.02595   0.00000  Uiso   1.00
H256   H     0.32513   0.86349   0.94352   0.00000  Uiso   1.00
H257   H     0.25441   0.64739   0.09108   0.00000  Uiso   1.00
H258   H     0.62274   0.92488   0.05211   0.00000  Uiso   1.00
H259   H     0.27612   0.95381   0.87831   0.00000  Uiso   1.00
H260   H     0.12699   0.49811   0.18948   0.00000  Uiso   1.00
H261   H     0.20746   0.84242   0.22491   0.00000  Uiso   1.00
H262   H     0.33663   0.90679   0.23614   0.00000  Uiso   1.00
H263   H     0.17226   0.92052   0.15370   0.00000  Uiso   1.00
H264   H     0.10154   0.70442   0.30127   0.00000  Uiso   1.00
H265   H     0.49866   0.97117   0.22271   0.00000  Uiso   1.00
H266   H     0.15204   0.00010   0.04890   0.00000  Uiso   1.00
H267   H     0.00291   0.54440   0.36007   0.00000  Uiso   1.00
O268   O     0.64830   0.98942   0.14118   0.00000  Uiso   1.00
O269   O     0.19353   0.02735   0.91316   0.00000  Uiso   1.00
O270   O     0.99788   0.42949   0.32141   0.00000  Uiso   1.00
N271   N     0.57581   0.92693   0.09073   0.00000  Uiso   1.00
N272   N     0.25175   0.95398   0.92823   0.00000  Uiso   1.00
N273   N     0.11231   0.52794   0.21914   0.00000  Uiso   1.00
N274   N     0.50904   0.95184   0.18252   0.00000  Uiso   1.00
N275   N     0.18498   0.97889   0.02002   0.00000  Uiso   1.00
N276   N     0.04554   0.55285   0.31094   0.00000  Uiso   1.00
C277   C     0.87275   0.92811   0.48334   0.00000  Uiso   1.00
C278   C     0.96136   0.99154   0.43811   0.00000  Uiso   1.00
C279   C     0.01125   0.02689   0.46384   0.00000  Uiso   1.00
C280   C     0.09047   0.08365   0.41381   0.00000  Uiso   1.00
C281   C     0.22378   0.17897   0.35470   0.00000  Uiso   1.00
C282   C     0.87177   0.86532   0.45603   0.00000  Uiso   1.00
C283   C     0.84631   0.79455   0.49684   0.00000  Uiso   1.00
C284   C     0.85010   0.74506   0.46190   0.00000  Uiso   1.00
C285   C     0.84425   0.64441   0.43064   0.00000  Uiso   1.00
C286   C     0.82076   0.95347   0.46362   0.00000  Uiso   1.00
C287   C     0.75239   0.95680   0.51081   0.00000  Uiso   1.00
C288   C     0.71321   0.98151   0.48226   0.00000  Uiso   1.00
C289   C     0.62816   0.01773   0.46277   0.00000  Uiso   1.00
C290   C     0.92474   0.96605   0.34873   0.00000  Uiso   1.00
C291   C     0.98960   0.01214   0.36500   0.00000  Uiso   1.00
C292   C     0.06876   0.06887   0.31492   0.00000  Uiso   1.00
C293   C     0.11875   0.10430   0.34057   0.00000  Uiso   1.00
C294   C     0.90000   0.88593   0.38293   0.00000  Uiso   1.00
C295   C     0.90383   0.83652   0.34792   0.00000  Uiso   1.00
C296   C     0.87839   0.76570   0.38866   0.00000  Uiso   1.00
C297   C     0.84899   0.97408   0.39051   0.00000  Uiso   1.00
C298   C     0.80991   0.99878   0.36188   0.00000  Uiso   1.00
C299   C     0.74150   0.00215   0.40901   0.00000  Uiso   1.00
H300   H     0.85077   0.91207   0.54026   0.00000  Uiso   1.00
H301   H     0.98938   0.01092   0.52042   0.00000  Uiso   1.00
H302   H     0.82446   0.77862   0.55342   0.00000  Uiso   1.00
H303   H     0.73056   0.94085   0.56738   0.00000  Uiso   1.00
H304   H     0.15551   0.12959   0.46619   0.00000  Uiso   1.00
H305   H     0.80774   0.63976   0.53577   0.00000  Uiso   1.00
H306   H     0.60972   0.98185   0.56521   0.00000  Uiso   1.00
H307   H     0.94672   0.98209   0.29181   0.00000  Uiso   1.00
H308   H     0.09060   0.08480   0.25834   0.00000  Uiso   1.00
H309   H     0.92568   0.85249   0.29134   0.00000  Uiso   1.00
H310   H     0.83177   0.01472   0.30530   0.00000  Uiso   1.00
H311   H     0.23766   0.18955   0.25348   0.00000  Uiso   1.00
H312   H     0.88989   0.69971   0.32306   0.00000  Uiso   1.00
H313   H     0.69188   0.04181   0.35250   0.00000  Uiso   1.00
O314   O     0.28951   0.22585   0.34230   0.00000  Uiso   1.00
O315   O     0.83324   0.58321   0.43359   0.00000  Uiso   1.00
O316   O     0.57345   0.03202   0.47222   0.00000  Uiso   1.00
N317   N     0.15509   0.12962   0.42072   0.00000  Uiso   1.00
N318   N     0.82997   0.67165   0.48577   0.00000  Uiso   1.00
N319   N     0.64482   0.99146   0.51330   0.00000  Uiso   1.00
N320   N     0.19930   0.16188   0.30626   0.00000  Uiso   1.00
N321   N     0.87417   0.70392   0.37131   0.00000  Uiso   1.00
N322   N     0.68903   0.02373   0.39884   0.00000  Uiso   1.00
C323   C     0.63427   0.80000   0.89806   0.00000  Uiso   1.00
C324   C     0.58484   0.74609   0.97471   0.00000  Uiso   1.00
C325   C     0.50134   0.71886   0.02170   0.00000  Uiso   1.00
C326   C     0.46759   0.67008   0.08949   0.00000  Uiso   1.00
C327   C     0.38352   0.58952   0.20545   0.00000  Uiso   1.00
C328   C     0.67258   0.76230   0.85184   0.00000  Uiso   1.00
C329   C     0.66285   0.74872   0.79551   0.00000  Uiso   1.00
C330   C     0.70297   0.71359   0.75987   0.00000  Uiso   1.00
C331   C     0.75516   0.65824   0.68503   0.00000  Uiso   1.00
C332   C     0.70607   0.86540   0.89289   0.00000  Uiso   1.00
C333   C     0.72451   0.93850   0.87106   0.00000  Uiso   1.00
C334   C     0.79284   0.99017   0.86997   0.00000  Uiso   1.00
C335   C     0.89703   0.09489   0.85887   0.00000  Uiso   1.00
C336   C     0.72283   0.76179   0.93491   0.00000  Uiso   1.00
C337   C     0.63295   0.72534   0.99472   0.00000  Uiso   1.00
C338   C     0.59932   0.67659   0.06246   0.00000  Uiso   1.00
C339   C     0.51578   0.64929   0.10954   0.00000  Uiso   1.00
C340   C     0.72068   0.74155   0.87185   0.00000  Uiso   1.00
C341   C     0.76083   0.70644   0.83628   0.00000  Uiso   1.00
C342   C     0.75116   0.69280   0.77991   0.00000  Uiso   1.00
C343   C     0.75418   0.84465   0.91291   0.00000  Uiso   1.00
C344   C     0.82250   0.89622   0.91183   0.00000  Uiso   1.00
C345   C     0.84104   0.96938   0.89001   0.00000  Uiso   1.00
H346   H     0.59682   0.81615   0.88248   0.00000  Uiso   1.00
H347   H     0.46413   0.73493   0.00619   0.00000  Uiso   1.00
H348   H     0.62562   0.76479   0.78003   0.00000  Uiso   1.00
H349   H     0.68727   0.95453   0.85558   0.00000  Uiso   1.00
H350   H     0.33822   0.63571   0.15216   0.00000  Uiso   1.00
H351   H     0.67876   0.69869   0.67528   0.00000  Uiso   1.00
H352   H     0.80877   0.09881   0.83458   0.00000  Uiso   1.00
H353   H     0.76029   0.74563   0.95049   0.00000  Uiso   1.00
H354   H     0.63657   0.66054   0.07794   0.00000  Uiso   1.00
H355   H     0.79806   0.69039   0.85178   0.00000  Uiso   1.00
H356   H     0.85971   0.88014   0.92733   0.00000  Uiso   1.00
H357   H     0.47818   0.57533   0.21039   0.00000  Uiso   1.00
H358   H     0.81872   0.63831   0.73351   0.00000  Uiso   1.00
H359   H     0.94873   0.03843   0.89282   0.00000  Uiso   1.00
O360   O     0.32386   0.55080   0.26388   0.00000  Uiso   1.00
O361   O     0.77064   0.63343   0.63822   0.00000  Uiso   1.00
O362   O     0.94121   0.15838   0.84723   0.00000  Uiso   1.00
N363   N     0.38815   0.63319   0.14838   0.00000  Uiso   1.00
N364   N     0.70652   0.69206   0.70253   0.00000  Uiso   1.00
N365   N     0.82808   0.06614   0.85145   0.00000  Uiso   1.00
N366   N     0.46346   0.60070   0.17971   0.00000  Uiso   1.00
N367   N     0.78183   0.65957   0.73387   0.00000  Uiso   1.00
N368   N     0.90339   0.03365   0.88278   0.00000  Uiso   1.00
C369   C     0.40295   0.54437   0.72110   0.00000  Uiso   1.00
C370   C     0.35875   0.51825   0.68075   0.00000  Uiso   1.00
C371   C     0.36792   0.56284   0.62149   0.00000  Uiso   1.00
C372   C     0.32203   0.52837   0.59225   0.00000  Uiso   1.00
C373   C     0.26151   0.49941   0.52516   0.00000  Uiso   1.00
C374   C     0.44791   0.50039   0.72080   0.00000  Uiso   1.00
C375   C     0.53204   0.52997   0.69522   0.00000  Uiso   1.00
C376   C     0.56121   0.48046   0.69971   0.00000  Uiso   1.00
C377   C     0.63910   0.42377   0.69484   0.00000  Uiso   1.00
C378   C     0.33519   0.51819   0.79840   0.00000  Uiso   1.00
C379   C     0.32455   0.56273   0.83807   0.00000  Uiso   1.00
C380   C     0.25883   0.52820   0.90790   0.00000  Uiso   1.00
C381   C     0.16170   0.49915   0.02352   0.00000  Uiso   1.00
C382   C     0.30517   0.40386   0.77458   0.00000  Uiso   1.00
C383   C     0.30565   0.44193   0.70979   0.00000  Uiso   1.00
C384   C     0.25973   0.40738   0.68065   0.00000  Uiso   1.00
C385   C     0.26882   0.45191   0.62135   0.00000  Uiso   1.00
C386   C     0.39481   0.42407   0.74984   0.00000  Uiso   1.00
C387   C     0.42385   0.37450   0.75438   0.00000  Uiso   1.00
C388   C     0.50800   0.40400   0.72881   0.00000  Uiso   1.00
C389   C     0.28208   0.44187   0.82744   0.00000  Uiso   1.00
C390   C     0.21636   0.40726   0.89723   0.00000  Uiso   1.00
C391   C     0.20562   0.45174   0.93700   0.00000  Uiso   1.00
H392   H     0.44431   0.60379   0.69849   0.00000  Uiso   1.00
H393   H     0.40903   0.62190   0.59902   0.00000  Uiso   1.00
H394   H     0.57312   0.58903   0.67275   0.00000  Uiso   1.00
H395   H     0.36566   0.62178   0.81558   0.00000  Uiso   1.00
H396   H     0.34652   0.60832   0.50153   0.00000  Uiso   1.00
H397   H     0.69251   0.53901   0.65702   0.00000  Uiso   1.00
H398   H     0.25505   0.60808   0.95820   0.00000  Uiso   1.00
H399   H     0.26382   0.34444   0.79719   0.00000  Uiso   1.00
H400   H     0.21864   0.34832   0.70314   0.00000  Uiso   1.00
H401   H     0.38273   0.31545   0.77687   0.00000  Uiso   1.00
H402   H     0.17528   0.34820   0.91969   0.00000  Uiso   1.00
H403   H     0.19199   0.38627   0.58604   0.00000  Uiso   1.00
H404   H     0.53799   0.31696   0.74153   0.00000  Uiso   1.00
H405   H     0.10052   0.38602   0.04270   0.00000  Uiso   1.00
O406   O     0.24281   0.50452   0.48012   0.00000  Uiso   1.00
O407   O     0.69674   0.41359   0.68412   0.00000  Uiso   1.00
O408   O     0.12279   0.50421   0.07926   0.00000  Uiso   1.00
N409   N     0.31634   0.55553   0.53434   0.00000  Uiso   1.00
N410   N     0.63983   0.49073   0.67970   0.00000  Uiso   1.00
N411   N     0.23085   0.55530   0.96128   0.00000  Uiso   1.00
N412   N     0.23319   0.43605   0.57981   0.00000  Uiso   1.00
N413   N     0.55668   0.37124   0.72517   0.00000  Uiso   1.00
N414   N     0.14770   0.43581   0.00675   0.00000  Uiso   1.00
C415   C     0.36478   0.02752   0.42759   0.00000  Uiso   1.00
C416   C     0.34624   0.99499   0.50295   0.00000  Uiso   1.00
C417   C     0.32522   0.02375   0.55635   0.00000  Uiso   1.00
C418   C     0.31065   0.98586   0.62166   0.00000  Uiso   1.00
C419   C     0.28095   0.94516   0.73694   0.00000  Uiso   1.00
C420   C     0.45082   0.04005   0.37754   0.00000  Uiso   1.00
C421   C     0.51773   0.10670   0.32549   0.00000  Uiso   1.00
C422   C     0.59118   0.10673   0.28522   0.00000  Uiso   1.00
C423   C     0.72383   0.13597   0.20575   0.00000  Uiso   1.00
C424   C     0.30516   0.96634   0.41669   0.00000  Uiso   1.00
C425   C     0.24962   0.97102   0.39753   0.00000  Uiso   1.00
C426   C     0.20045   0.90899   0.39021   0.00000  Uiso   1.00
C427   C     0.10694   0.82380   0.37152   0.00000  Uiso   1.00
C428   C     0.37627   0.90906   0.44863   0.00000  Uiso   1.00
C429   C     0.35248   0.93065   0.51438   0.00000  Uiso   1.00
C430   C     0.33793   0.89269   0.57963   0.00000  Uiso   1.00
C431   C     0.31689   0.92140   0.63312   0.00000  Uiso   1.00
C432   C     0.45706   0.97571   0.38897   0.00000  Uiso   1.00
C433   C     0.53043   0.97564   0.34877   0.00000  Uiso   1.00
C434   C     0.59743   0.04227   0.29667   0.00000  Uiso   1.00
C435   C     0.31140   0.90199   0.42812   0.00000  Uiso   1.00
C436   C     0.26232   0.83995   0.42082   0.00000  Uiso   1.00
C437   C     0.20670   0.84454   0.40166   0.00000  Uiso   1.00
H438   H     0.35993   0.07761   0.41869   0.00000  Uiso   1.00
H439   H     0.32041   0.07355   0.54748   0.00000  Uiso   1.00
H440   H     0.51288   0.15648   0.31665   0.00000  Uiso   1.00
H441   H     0.24481   0.02082   0.38869   0.00000  Uiso   1.00
H442   H     0.27938   0.04070   0.69531   0.00000  Uiso   1.00
H443   H     0.68519   0.21554   0.20857   0.00000  Uiso   1.00
H444   H     0.11992   0.92948   0.36047   0.00000  Uiso   1.00
H445   H     0.38112   0.85896   0.45753   0.00000  Uiso   1.00
H446   H     0.34276   0.84290   0.58846   0.00000  Uiso   1.00
H447   H     0.53523   0.92583   0.35763   0.00000  Uiso   1.00
H448   H     0.26716   0.79017   0.42967   0.00000  Uiso   1.00
H449   H     0.29752   0.85349   0.72857   0.00000  Uiso   1.00
H450   H     0.70334   0.02834   0.24182   0.00000  Uiso   1.00
H451   H     0.13806   0.74228   0.39373   0.00000  Uiso   1.00
O452   O     0.26286   0.94049   0.79736   0.00000  Uiso   1.00
O453   O     0.79527   0.16988   0.15877   0.00000  Uiso   1.00
O454   O     0.05364   0.79457   0.35807   0.00000  Uiso   1.00
N455   N     0.28889   0.99883   0.68517   0.00000  Uiso   1.00
N456   N     0.66832   0.16231   0.23010   0.00000  Uiso   1.00
N457   N     0.13984   0.89487   0.37211   0.00000  Uiso   1.00
N458   N     0.29866   0.89810   0.70307   0.00000  Uiso   1.00
N459   N     0.67808   0.06158   0.24800   0.00000  Uiso   1.00
N460   N     0.14960   0.79414   0.39000   0.00000  Uiso   1.00
C461   C     0.74940   0.44157   0.23716   0.00000  Uiso   1.00
C462   C     0.81819   0.52102   0.20778   0.00000  Uiso   1.00
C463   C     0.85868   0.57065   0.13891   0.00000  Uiso   1.00
C464   C     0.91985   0.64075   0.12246   0.00000  Uiso   1.00
C465   C     0.02366   0.76110   0.06913   0.00000  Uiso   1.00
C466   C     0.77888   0.39373   0.26512   0.00000  Uiso   1.00
C467   C     0.78630   0.33634   0.24447   0.00000  Uiso   1.00
C468   C     0.81437   0.29928   0.27629   0.00000  Uiso   1.00
C469   C     0.85708   0.22199   0.31203   0.00000  Uiso   1.00
C470   C     0.67625   0.43479   0.30247   0.00000  Uiso   1.00
C471   C     0.59738   0.41190   0.31323   0.00000  Uiso   1.00
C472   C     0.53904   0.40939   0.37651   0.00000  Uiso   1.00
C473   C     0.42242   0.39584   0.47023   0.00000  Uiso   1.00
C474   C     0.78603   0.47779   0.33041   0.00000  Uiso   1.00
C475   C     0.83808   0.54069   0.25844   0.00000  Uiso   1.00
C476   C     0.89920   0.61073   0.24209   0.00000  Uiso   1.00
C477   C     0.93978   0.66046   0.17320   0.00000  Uiso   1.00
C478   C     0.79877   0.41340   0.31578   0.00000  Uiso   1.00
C479   C     0.82682   0.37642   0.34765   0.00000  Uiso   1.00
C480   C     0.83429   0.31899   0.32704   0.00000  Uiso   1.00
C481   C     0.69614   0.45446   0.35313   0.00000  Uiso   1.00
C482   C     0.63791   0.45198   0.41640   0.00000  Uiso   1.00
C483   C     0.55897   0.42910   0.42725   0.00000  Uiso   1.00
H484   H     0.73392   0.42625   0.19772   0.00000  Uiso   1.00
H485   H     0.84328   0.55541   0.09972   0.00000  Uiso   1.00
H486   H     0.77090   0.32113   0.20527   0.00000  Uiso   1.00
H487   H     0.58201   0.39668   0.27402   0.00000  Uiso   1.00
H488   H     0.97331   0.70726   0.01340   0.00000  Uiso   1.00
H489   H     0.82067   0.21326   0.23598   0.00000  Uiso   1.00
H490   H     0.42237   0.37257   0.38094   0.00000  Uiso   1.00
H491   H     0.80151   0.49311   0.36985   0.00000  Uiso   1.00
H492   H     0.91458   0.62594   0.28130   0.00000  Uiso   1.00
H493   H     0.84220   0.39166   0.38684   0.00000  Uiso   1.00
H494   H     0.65332   0.46721   0.45559   0.00000  Uiso   1.00
H495   H     0.03119   0.76451   0.16077   0.00000  Uiso   1.00
H496   H     0.87854   0.27050   0.38335   0.00000  Uiso   1.00
H497   H     0.48025   0.42981   0.52832   0.00000  Uiso   1.00
O498   O     0.07543   0.82205   0.02572   0.00000  Uiso   1.00
O499   O     0.87515   0.17392   0.31774   0.00000  Uiso   1.00
O500   O     0.35260   0.38294   0.50793   0.00000  Uiso   1.00
N501   N     0.97141   0.70251   0.06024   0.00000  Uiso   1.00
N502   N     0.82871   0.24065   0.26833   0.00000  Uiso   1.00
N503   N     0.45632   0.38958   0.40387   0.00000  Uiso   1.00
N504   N     0.00255   0.73331   0.13954   0.00000  Uiso   1.00
N505   N     0.85985   0.27146   0.34763   0.00000  Uiso   1.00
N506   N     0.48746   0.42038   0.48317   0.00000  Uiso   1.00
C507   C     0.66176   0.21186   0.96810   0.00000  Uiso   1.00
C508   C     0.64855   0.15890   0.92845   0.00000  Uiso   1.00
C509   C     0.58414   0.08704   0.95816   0.00000  Uiso   1.00
C510   C     0.58301   0.04758   0.91297   0.00000  Uiso   1.00
C511   C     0.55321   0.96058   0.86241   0.00000  Uiso   1.00
C512   C     0.74824   0.23600   0.95639   0.00000  Uiso   1.00
C513   C     0.76765   0.22896   0.00960   0.00000  Uiso   1.00
C514   C     0.85045   0.25440   0.98793   0.00000  Uiso   1.00
C515   C     0.97543   0.28714   0.98075   0.00000  Uiso   1.00
C516   C     0.66563   0.28022   0.92824   0.00000  Uiso   1.00
C517   C     0.61560   0.31039   0.95778   0.00000  Uiso   1.00
C518   C     0.62886   0.37309   0.91241   0.00000  Uiso   1.00
C519   C     0.62559   0.47449   0.86153   0.00000  Uiso   1.00
C520   C     0.77431   0.26958   0.83501   0.00000  Uiso   1.00
C521   C     0.70968   0.19026   0.85616   0.00000  Uiso   1.00
C522   C     0.70865   0.15090   0.81091   0.00000  Uiso   1.00
C523   C     0.64425   0.07899   0.84055   0.00000  Uiso   1.00
C524   C     0.80937   0.26735   0.88411   0.00000  Uiso   1.00
C525   C     0.89216   0.29282   0.86235   0.00000  Uiso   1.00
C526   C     0.91169   0.28582   0.91551   0.00000  Uiso   1.00
C527   C     0.72676   0.31158   0.85595   0.00000  Uiso   1.00
C528   C     0.74011   0.37425   0.81053   0.00000  Uiso   1.00
C529   C     0.69010   0.40450   0.83999   0.00000  Uiso   1.00
H530   H     0.61418   0.18745   0.02437   0.00000  Uiso   1.00
H531   H     0.53684   0.06279   0.01410   0.00000  Uiso   1.00
H532   H     0.72033   0.20470   0.06553   0.00000  Uiso   1.00
H533   H     0.56830   0.28611   0.01372   0.00000  Uiso   1.00
H534   H     0.47808   0.93840   0.97084   0.00000  Uiso   1.00
H535   H     0.86497   0.23764   0.07929   0.00000  Uiso   1.00
H536   H     0.54439   0.40932   0.97003   0.00000  Uiso   1.00
H537   H     0.82191   0.29399   0.77873   0.00000  Uiso   1.00
H538   H     0.75597   0.17518   0.75497   0.00000  Uiso   1.00
H539   H     0.93945   0.31708   0.80641   0.00000  Uiso   1.00
H540   H     0.78742   0.39850   0.75459   0.00000  Uiso   1.00
H541   H     0.65593   0.02962   0.76053   0.00000  Uiso   1.00
H542   H     0.04282   0.32886   0.86897   0.00000  Uiso   1.00
H543   H     0.72224   0.50054   0.75971   0.00000  Uiso   1.00
O544   O     0.51990   0.90392   0.85450   0.00000  Uiso   1.00
O545   O     0.02748   0.29652   0.99677   0.00000  Uiso   1.00
O546   O     0.60689   0.52176   0.85343   0.00000  Uiso   1.00
N547   N     0.52898   0.97618   0.92460   0.00000  Uiso   1.00
N548   N     0.89069   0.25594   0.02599   0.00000  Uiso   1.00
N549   N     0.59099   0.41646   0.92385   0.00000  Uiso   1.00
N550   N     0.62468   0.02526   0.81143   0.00000  Uiso   1.00
N551   N     0.98639   0.30502   0.91282   0.00000  Uiso   1.00
N552   N     0.68669   0.46554   0.81068   0.00000  Uiso   1.00
