data_job_00482
_audit_creation_date              2018-12-19
_audit_creation_method            'Materials Studio'
_symmetry_space_group_name_H-M    'P1'
_symmetry_Int_Tables_number       1
_symmetry_cell_setting            triclinic
loop_
_symmetry_equiv_pos_as_xyz
  x,y,z
_cell_length_a                    12.8350
_cell_length_b                    35.6346
_cell_length_c                    11.8557
_cell_angle_alpha                 90.0000
_cell_angle_beta                  90.0000
_cell_angle_gamma                 90.0000
loop_
_atom_site_label
_atom_site_type_symbol
_atom_site_fract_x
_atom_site_fract_y
_atom_site_fract_z
_atom_site_U_iso_or_equiv
_atom_site_adp_type
_atom_site_occupancy
C1     C     0.15009   0.60708   0.22085   0.00000  Uiso   1.00
C2     C     0.25397   0.60025   0.27980   0.00000  Uiso   1.00
C3     C     0.28520   0.56682   0.32947   0.00000  Uiso   1.00
C4     C     0.38316   0.56626   0.37911   0.00000  Uiso   1.00
C5     C     0.53465   0.55083   0.47072   0.00000  Uiso   1.00
C6     C     0.10067   0.64056   0.28046   0.00000  Uiso   1.00
C7     C     0.00300   0.64104   0.33066   0.00000  Uiso   1.00
C8     C     0.97191   0.67442   0.38083   0.00000  Uiso   1.00
C9     C     0.88537   0.72158   0.47338   0.00000  Uiso   1.00
C10    C     0.17681   0.62048   0.10217   0.00000  Uiso   1.00
C11    C     0.14313   0.60407   0.00246   0.00000  Uiso   1.00
C12    C     0.17612   0.62054   0.90252   0.00000  Uiso   1.00
C13    C     0.20779   0.63652   0.71825   0.00000  Uiso   1.00
C14    C     0.26855   0.66552   0.22066   0.00000  Uiso   1.00
C15    C     0.31831   0.63199   0.27970   0.00000  Uiso   1.00
C16    C     0.41625   0.63147   0.32927   0.00000  Uiso   1.00
C17    C     0.44762   0.59806   0.37900   0.00000  Uiso   1.00
C18    C     0.16501   0.67230   0.28036   0.00000  Uiso   1.00
C19    C     0.13406   0.70569   0.33046   0.00000  Uiso   1.00
C20    C     0.03637   0.70621   0.38073   0.00000  Uiso   1.00
C21    C     0.24115   0.65222   0.10206   0.00000  Uiso   1.00
C22    C     0.27419   0.66872   0.00226   0.00000  Uiso   1.00
C23    C     0.24058   0.65234   0.90242   0.00000  Uiso   1.00
H24    H     0.10000   0.58237   0.22093   0.00000  Uiso   1.00
H25    H     0.23538   0.54227   0.32954   0.00000  Uiso   1.00
H26    H     0.95322   0.61647   0.33072   0.00000  Uiso   1.00
H27    H     0.09334   0.57951   0.00257   0.00000  Uiso   1.00
H28    H     0.41383   0.51181   0.44995   0.00000  Uiso   1.00
H29    H     0.81888   0.66827   0.45240   0.00000  Uiso   1.00
H30    H     0.11433   0.59033   0.76043   0.00000  Uiso   1.00
H31    H     0.31864   0.69023   0.22059   0.00000  Uiso   1.00
H32    H     0.46603   0.65604   0.32918   0.00000  Uiso   1.00
H33    H     0.18387   0.73025   0.33036   0.00000  Uiso   1.00
H34    H     0.32398   0.69328   0.00221   0.00000  Uiso   1.00
H35    H     0.60103   0.60415   0.44967   0.00000  Uiso   1.00
H36    H     0.00607   0.76062   0.45211   0.00000  Uiso   1.00
H37    H     0.30153   0.68268   0.76014   0.00000  Uiso   1.00
O38    O     0.60042   0.53355   0.52129   0.00000  Uiso   1.00
O39    O     0.81986   0.73883   0.52447   0.00000  Uiso   1.00
O40    O     0.20750   0.63657   0.61663   0.00000  Uiso   1.00
N41    N     0.43767   0.53823   0.43496   0.00000  Uiso   1.00
N42    N     0.88143   0.68451   0.43726   0.00000  Uiso   1.00
N43    N     0.15764   0.61165   0.79033   0.00000  Uiso   1.00
N44    N     0.53840   0.58792   0.43481   0.00000  Uiso   1.00
N45    N     0.98216   0.73420   0.43711   0.00000  Uiso   1.00
N46    N     0.25837   0.66134   0.79018   0.00000  Uiso   1.00
C47    C     0.34991   0.39292   0.22085   0.00000  Uiso   1.00
C48    C     0.24603   0.39975   0.27980   0.00000  Uiso   1.00
C49    C     0.21480   0.43318   0.32947   0.00000  Uiso   1.00
C50    C     0.11684   0.43374   0.37911   0.00000  Uiso   1.00
C51    C     0.96535   0.44917   0.47072   0.00000  Uiso   1.00
C52    C     0.39933   0.35944   0.28046   0.00000  Uiso   1.00
C53    C     0.49700   0.35896   0.33066   0.00000  Uiso   1.00
C54    C     0.52809   0.32558   0.38083   0.00000  Uiso   1.00
C55    C     0.61463   0.27842   0.47338   0.00000  Uiso   1.00
C56    C     0.32319   0.37952   0.10217   0.00000  Uiso   1.00
C57    C     0.35687   0.39593   0.00246   0.00000  Uiso   1.00
C58    C     0.32388   0.37946   0.90252   0.00000  Uiso   1.00
C59    C     0.29221   0.36348   0.71825   0.00000  Uiso   1.00
C60    C     0.23145   0.33448   0.22066   0.00000  Uiso   1.00
C61    C     0.18169   0.36801   0.27970   0.00000  Uiso   1.00
C62    C     0.08375   0.36853   0.32927   0.00000  Uiso   1.00
C63    C     0.05238   0.40194   0.37900   0.00000  Uiso   1.00
C64    C     0.33499   0.32770   0.28036   0.00000  Uiso   1.00
C65    C     0.36594   0.29431   0.33046   0.00000  Uiso   1.00
C66    C     0.46363   0.29379   0.38073   0.00000  Uiso   1.00
C67    C     0.25885   0.34778   0.10206   0.00000  Uiso   1.00
C68    C     0.22581   0.33128   0.00226   0.00000  Uiso   1.00
C69    C     0.25942   0.34766   0.90242   0.00000  Uiso   1.00
H70    H     0.40000   0.41763   0.22093   0.00000  Uiso   1.00
H71    H     0.26462   0.45773   0.32954   0.00000  Uiso   1.00
H72    H     0.54678   0.38353   0.33072   0.00000  Uiso   1.00
H73    H     0.40666   0.42049   0.00257   0.00000  Uiso   1.00
H74    H     0.08617   0.48819   0.44995   0.00000  Uiso   1.00
H75    H     0.68112   0.33173   0.45240   0.00000  Uiso   1.00
H76    H     0.38567   0.40967   0.76043   0.00000  Uiso   1.00
H77    H     0.18136   0.30977   0.22059   0.00000  Uiso   1.00
H78    H     0.03397   0.34396   0.32918   0.00000  Uiso   1.00
H79    H     0.31613   0.26975   0.33036   0.00000  Uiso   1.00
H80    H     0.17602   0.30672   0.00221   0.00000  Uiso   1.00
H81    H     0.89897   0.39585   0.44967   0.00000  Uiso   1.00
H82    H     0.49393   0.23938   0.45211   0.00000  Uiso   1.00
H83    H     0.19847   0.31732   0.76014   0.00000  Uiso   1.00
O84    O     0.89958   0.46645   0.52129   0.00000  Uiso   1.00
O85    O     0.68014   0.26117   0.52447   0.00000  Uiso   1.00
O86    O     0.29250   0.36343   0.61663   0.00000  Uiso   1.00
N87    N     0.06233   0.46177   0.43496   0.00000  Uiso   1.00
N88    N     0.61857   0.31549   0.43726   0.00000  Uiso   1.00
N89    N     0.34236   0.38835   0.79033   0.00000  Uiso   1.00
N90    N     0.96160   0.41208   0.43481   0.00000  Uiso   1.00
N91    N     0.51784   0.26580   0.43711   0.00000  Uiso   1.00
N92    N     0.24163   0.33866   0.79018   0.00000  Uiso   1.00
C93    C     0.34991   0.10708   0.27915   0.00000  Uiso   1.00
C94    C     0.24603   0.10025   0.22020   0.00000  Uiso   1.00
C95    C     0.21480   0.06682   0.17053   0.00000  Uiso   1.00
C96    C     0.11684   0.06626   0.12089   0.00000  Uiso   1.00
C97    C     0.96535   0.05083   0.02928   0.00000  Uiso   1.00
C98    C     0.39933   0.14056   0.21954   0.00000  Uiso   1.00
C99    C     0.49700   0.14104   0.16934   0.00000  Uiso   1.00
C100   C     0.52809   0.17442   0.11917   0.00000  Uiso   1.00
C101   C     0.61463   0.22158   0.02662   0.00000  Uiso   1.00
C102   C     0.32319   0.12048   0.39783   0.00000  Uiso   1.00
C103   C     0.35687   0.10407   0.49754   0.00000  Uiso   1.00
C104   C     0.32388   0.12054   0.59748   0.00000  Uiso   1.00
C105   C     0.29221   0.13652   0.78175   0.00000  Uiso   1.00
C106   C     0.23145   0.16552   0.27934   0.00000  Uiso   1.00
C107   C     0.18169   0.13199   0.22030   0.00000  Uiso   1.00
C108   C     0.08375   0.13147   0.17073   0.00000  Uiso   1.00
C109   C     0.05238   0.09806   0.12100   0.00000  Uiso   1.00
C110   C     0.33499   0.17230   0.21964   0.00000  Uiso   1.00
C111   C     0.36594   0.20569   0.16954   0.00000  Uiso   1.00
C112   C     0.46363   0.20621   0.11927   0.00000  Uiso   1.00
C113   C     0.25885   0.15222   0.39794   0.00000  Uiso   1.00
C114   C     0.22581   0.16872   0.49774   0.00000  Uiso   1.00
C115   C     0.25942   0.15234   0.59758   0.00000  Uiso   1.00
H116   H     0.40000   0.08237   0.27907   0.00000  Uiso   1.00
H117   H     0.26462   0.04227   0.17046   0.00000  Uiso   1.00
H118   H     0.54678   0.11647   0.16928   0.00000  Uiso   1.00
H119   H     0.40666   0.07951   0.49743   0.00000  Uiso   1.00
H120   H     0.08617   0.01181   0.05005   0.00000  Uiso   1.00
H121   H     0.68112   0.16827   0.04760   0.00000  Uiso   1.00
H122   H     0.38567   0.09033   0.73957   0.00000  Uiso   1.00
H123   H     0.18136   0.19023   0.27941   0.00000  Uiso   1.00
H124   H     0.03397   0.15604   0.17082   0.00000  Uiso   1.00
H125   H     0.31613   0.23025   0.16964   0.00000  Uiso   1.00
H126   H     0.17602   0.19328   0.49779   0.00000  Uiso   1.00
H127   H     0.89897   0.10415   0.05033   0.00000  Uiso   1.00
H128   H     0.49393   0.26062   0.04789   0.00000  Uiso   1.00
H129   H     0.19847   0.18268   0.73986   0.00000  Uiso   1.00
O130   O     0.89958   0.03355   0.97871   0.00000  Uiso   1.00
O131   O     0.68014   0.23883   0.97553   0.00000  Uiso   1.00
O132   O     0.29250   0.13657   0.88337   0.00000  Uiso   1.00
N133   N     0.06233   0.03823   0.06504   0.00000  Uiso   1.00
N134   N     0.61857   0.18451   0.06274   0.00000  Uiso   1.00
N135   N     0.34236   0.11165   0.70967   0.00000  Uiso   1.00
N136   N     0.96160   0.08792   0.06519   0.00000  Uiso   1.00
N137   N     0.51784   0.23420   0.06289   0.00000  Uiso   1.00
N138   N     0.24163   0.16134   0.70982   0.00000  Uiso   1.00
C139   C     0.15009   0.89292   0.27915   0.00000  Uiso   1.00
C140   C     0.25397   0.89975   0.22020   0.00000  Uiso   1.00
C141   C     0.28520   0.93318   0.17053   0.00000  Uiso   1.00
C142   C     0.38316   0.93374   0.12089   0.00000  Uiso   1.00
C143   C     0.53465   0.94917   0.02928   0.00000  Uiso   1.00
C144   C     0.10067   0.85944   0.21954   0.00000  Uiso   1.00
C145   C     0.00300   0.85896   0.16934   0.00000  Uiso   1.00
C146   C     0.97191   0.82558   0.11917   0.00000  Uiso   1.00
C147   C     0.88537   0.77842   0.02662   0.00000  Uiso   1.00
C148   C     0.17681   0.87952   0.39783   0.00000  Uiso   1.00
C149   C     0.14313   0.89593   0.49754   0.00000  Uiso   1.00
C150   C     0.17612   0.87946   0.59748   0.00000  Uiso   1.00
C151   C     0.20779   0.86348   0.78175   0.00000  Uiso   1.00
C152   C     0.26855   0.83448   0.27934   0.00000  Uiso   1.00
C153   C     0.31831   0.86801   0.22030   0.00000  Uiso   1.00
C154   C     0.41625   0.86853   0.17073   0.00000  Uiso   1.00
C155   C     0.44762   0.90194   0.12100   0.00000  Uiso   1.00
C156   C     0.16501   0.82770   0.21964   0.00000  Uiso   1.00
C157   C     0.13406   0.79431   0.16954   0.00000  Uiso   1.00
C158   C     0.03637   0.79379   0.11927   0.00000  Uiso   1.00
C159   C     0.24115   0.84778   0.39794   0.00000  Uiso   1.00
C160   C     0.27419   0.83128   0.49774   0.00000  Uiso   1.00
C161   C     0.24058   0.84766   0.59758   0.00000  Uiso   1.00
H162   H     0.10000   0.91763   0.27907   0.00000  Uiso   1.00
H163   H     0.23538   0.95773   0.17046   0.00000  Uiso   1.00
H164   H     0.95322   0.88353   0.16928   0.00000  Uiso   1.00
H165   H     0.09334   0.92049   0.49743   0.00000  Uiso   1.00
H166   H     0.41383   0.98819   0.05005   0.00000  Uiso   1.00
H167   H     0.81888   0.83173   0.04760   0.00000  Uiso   1.00
H168   H     0.11433   0.90967   0.73957   0.00000  Uiso   1.00
H169   H     0.31864   0.80977   0.27941   0.00000  Uiso   1.00
H170   H     0.46603   0.84396   0.17082   0.00000  Uiso   1.00
H171   H     0.18387   0.76975   0.16964   0.00000  Uiso   1.00
H172   H     0.32398   0.80672   0.49779   0.00000  Uiso   1.00
H173   H     0.60103   0.89585   0.05033   0.00000  Uiso   1.00
H174   H     0.00607   0.73938   0.04789   0.00000  Uiso   1.00
H175   H     0.30153   0.81732   0.73986   0.00000  Uiso   1.00
O176   O     0.60042   0.96645   0.97871   0.00000  Uiso   1.00
O177   O     0.81986   0.76117   0.97553   0.00000  Uiso   1.00
O178   O     0.20750   0.86343   0.88337   0.00000  Uiso   1.00
N179   N     0.43767   0.96177   0.06504   0.00000  Uiso   1.00
N180   N     0.88143   0.81549   0.06274   0.00000  Uiso   1.00
N181   N     0.15764   0.88835   0.70967   0.00000  Uiso   1.00
N182   N     0.53840   0.91208   0.06519   0.00000  Uiso   1.00
N183   N     0.98216   0.76580   0.06289   0.00000  Uiso   1.00
N184   N     0.25837   0.83866   0.70982   0.00000  Uiso   1.00
C185   C     0.84991   0.39292   0.77915   0.00000  Uiso   1.00
C186   C     0.74603   0.39975   0.72020   0.00000  Uiso   1.00
C187   C     0.71480   0.43318   0.67053   0.00000  Uiso   1.00
C188   C     0.61684   0.43374   0.62089   0.00000  Uiso   1.00
C189   C     0.46535   0.44917   0.52928   0.00000  Uiso   1.00
C190   C     0.89933   0.35944   0.71954   0.00000  Uiso   1.00
C191   C     0.99700   0.35896   0.66934   0.00000  Uiso   1.00
C192   C     0.02809   0.32558   0.61917   0.00000  Uiso   1.00
C193   C     0.11463   0.27842   0.52662   0.00000  Uiso   1.00
C194   C     0.82319   0.37952   0.89783   0.00000  Uiso   1.00
C195   C     0.85687   0.39593   0.99754   0.00000  Uiso   1.00
C196   C     0.82388   0.37946   0.09748   0.00000  Uiso   1.00
C197   C     0.79221   0.36348   0.28175   0.00000  Uiso   1.00
C198   C     0.73145   0.33448   0.77934   0.00000  Uiso   1.00
C199   C     0.68169   0.36801   0.72030   0.00000  Uiso   1.00
C200   C     0.58375   0.36853   0.67073   0.00000  Uiso   1.00
C201   C     0.55238   0.40194   0.62100   0.00000  Uiso   1.00
C202   C     0.83499   0.32770   0.71964   0.00000  Uiso   1.00
C203   C     0.86594   0.29431   0.66954   0.00000  Uiso   1.00
C204   C     0.96363   0.29379   0.61927   0.00000  Uiso   1.00
C205   C     0.75885   0.34778   0.89794   0.00000  Uiso   1.00
C206   C     0.72581   0.33128   0.99774   0.00000  Uiso   1.00
C207   C     0.75942   0.34766   0.09758   0.00000  Uiso   1.00
H208   H     0.90000   0.41763   0.77907   0.00000  Uiso   1.00
H209   H     0.76462   0.45773   0.67046   0.00000  Uiso   1.00
H210   H     0.04678   0.38353   0.66928   0.00000  Uiso   1.00
H211   H     0.90666   0.42049   0.99743   0.00000  Uiso   1.00
H212   H     0.58617   0.48819   0.55005   0.00000  Uiso   1.00
H213   H     0.18112   0.33173   0.54760   0.00000  Uiso   1.00
H214   H     0.88567   0.40967   0.23957   0.00000  Uiso   1.00
H215   H     0.68136   0.30977   0.77941   0.00000  Uiso   1.00
H216   H     0.53397   0.34396   0.67082   0.00000  Uiso   1.00
H217   H     0.81613   0.26975   0.66964   0.00000  Uiso   1.00
H218   H     0.67602   0.30672   0.99779   0.00000  Uiso   1.00
H219   H     0.39897   0.39585   0.55033   0.00000  Uiso   1.00
H220   H     0.99393   0.23938   0.54789   0.00000  Uiso   1.00
H221   H     0.69847   0.31732   0.23986   0.00000  Uiso   1.00
O222   O     0.39958   0.46645   0.47871   0.00000  Uiso   1.00
O223   O     0.18014   0.26117   0.47553   0.00000  Uiso   1.00
O224   O     0.79250   0.36343   0.38337   0.00000  Uiso   1.00
N225   N     0.56233   0.46177   0.56504   0.00000  Uiso   1.00
N226   N     0.11857   0.31549   0.56274   0.00000  Uiso   1.00
N227   N     0.84236   0.38835   0.20967   0.00000  Uiso   1.00
N228   N     0.46160   0.41208   0.56519   0.00000  Uiso   1.00
N229   N     0.01784   0.26580   0.56289   0.00000  Uiso   1.00
N230   N     0.74163   0.33866   0.20982   0.00000  Uiso   1.00
C231   C     0.65009   0.60708   0.77915   0.00000  Uiso   1.00
C232   C     0.75397   0.60025   0.72020   0.00000  Uiso   1.00
C233   C     0.78520   0.56682   0.67053   0.00000  Uiso   1.00
C234   C     0.88316   0.56626   0.62089   0.00000  Uiso   1.00
C235   C     0.03465   0.55083   0.52928   0.00000  Uiso   1.00
C236   C     0.60067   0.64056   0.71954   0.00000  Uiso   1.00
C237   C     0.50300   0.64104   0.66934   0.00000  Uiso   1.00
C238   C     0.47191   0.67442   0.61917   0.00000  Uiso   1.00
C239   C     0.38537   0.72158   0.52662   0.00000  Uiso   1.00
C240   C     0.67681   0.62048   0.89783   0.00000  Uiso   1.00
C241   C     0.64313   0.60407   0.99754   0.00000  Uiso   1.00
C242   C     0.67612   0.62054   0.09748   0.00000  Uiso   1.00
C243   C     0.70779   0.63652   0.28175   0.00000  Uiso   1.00
C244   C     0.76855   0.66552   0.77934   0.00000  Uiso   1.00
C245   C     0.81831   0.63199   0.72030   0.00000  Uiso   1.00
C246   C     0.91625   0.63147   0.67073   0.00000  Uiso   1.00
C247   C     0.94762   0.59806   0.62100   0.00000  Uiso   1.00
C248   C     0.66501   0.67230   0.71964   0.00000  Uiso   1.00
C249   C     0.63406   0.70569   0.66954   0.00000  Uiso   1.00
C250   C     0.53637   0.70621   0.61927   0.00000  Uiso   1.00
C251   C     0.74115   0.65222   0.89794   0.00000  Uiso   1.00
C252   C     0.77419   0.66872   0.99774   0.00000  Uiso   1.00
C253   C     0.74058   0.65234   0.09758   0.00000  Uiso   1.00
H254   H     0.60000   0.58237   0.77907   0.00000  Uiso   1.00
H255   H     0.73538   0.54227   0.67046   0.00000  Uiso   1.00
H256   H     0.45322   0.61647   0.66928   0.00000  Uiso   1.00
H257   H     0.59334   0.57951   0.99743   0.00000  Uiso   1.00
H258   H     0.91383   0.51181   0.55005   0.00000  Uiso   1.00
H259   H     0.31888   0.66827   0.54760   0.00000  Uiso   1.00
H260   H     0.61433   0.59033   0.23957   0.00000  Uiso   1.00
H261   H     0.81864   0.69023   0.77941   0.00000  Uiso   1.00
H262   H     0.96603   0.65604   0.67082   0.00000  Uiso   1.00
H263   H     0.68387   0.73025   0.66964   0.00000  Uiso   1.00
H264   H     0.82398   0.69328   0.99779   0.00000  Uiso   1.00
H265   H     0.10103   0.60415   0.55033   0.00000  Uiso   1.00
H266   H     0.50607   0.76062   0.54789   0.00000  Uiso   1.00
H267   H     0.80153   0.68268   0.23986   0.00000  Uiso   1.00
O268   O     0.10042   0.53355   0.47871   0.00000  Uiso   1.00
O269   O     0.31986   0.73883   0.47553   0.00000  Uiso   1.00
O270   O     0.70750   0.63657   0.38337   0.00000  Uiso   1.00
N271   N     0.93767   0.53823   0.56504   0.00000  Uiso   1.00
N272   N     0.38143   0.68451   0.56274   0.00000  Uiso   1.00
N273   N     0.65764   0.61165   0.20967   0.00000  Uiso   1.00
N274   N     0.03840   0.58792   0.56519   0.00000  Uiso   1.00
N275   N     0.48216   0.73420   0.56289   0.00000  Uiso   1.00
N276   N     0.75837   0.66134   0.20982   0.00000  Uiso   1.00
C277   C     0.65009   0.89292   0.72085   0.00000  Uiso   1.00
C278   C     0.75397   0.89975   0.77980   0.00000  Uiso   1.00
C279   C     0.78520   0.93318   0.82947   0.00000  Uiso   1.00
C280   C     0.88316   0.93374   0.87911   0.00000  Uiso   1.00
C281   C     0.03465   0.94917   0.97072   0.00000  Uiso   1.00
C282   C     0.60067   0.85944   0.78046   0.00000  Uiso   1.00
C283   C     0.50300   0.85896   0.83066   0.00000  Uiso   1.00
C284   C     0.47191   0.82558   0.88083   0.00000  Uiso   1.00
C285   C     0.38537   0.77842   0.97338   0.00000  Uiso   1.00
C286   C     0.67681   0.87952   0.60217   0.00000  Uiso   1.00
C287   C     0.64313   0.89593   0.50246   0.00000  Uiso   1.00
C288   C     0.67612   0.87946   0.40252   0.00000  Uiso   1.00
C289   C     0.70779   0.86348   0.21825   0.00000  Uiso   1.00
C290   C     0.76855   0.83448   0.72066   0.00000  Uiso   1.00
C291   C     0.81831   0.86801   0.77970   0.00000  Uiso   1.00
C292   C     0.91625   0.86853   0.82927   0.00000  Uiso   1.00
C293   C     0.94762   0.90194   0.87900   0.00000  Uiso   1.00
C294   C     0.66501   0.82770   0.78036   0.00000  Uiso   1.00
C295   C     0.63406   0.79431   0.83046   0.00000  Uiso   1.00
C296   C     0.53637   0.79379   0.88073   0.00000  Uiso   1.00
C297   C     0.74115   0.84778   0.60206   0.00000  Uiso   1.00
C298   C     0.77419   0.83128   0.50226   0.00000  Uiso   1.00
C299   C     0.74058   0.84766   0.40242   0.00000  Uiso   1.00
H300   H     0.60000   0.91763   0.72093   0.00000  Uiso   1.00
H301   H     0.73538   0.95773   0.82954   0.00000  Uiso   1.00
H302   H     0.45322   0.88353   0.83072   0.00000  Uiso   1.00
H303   H     0.59334   0.92049   0.50257   0.00000  Uiso   1.00
H304   H     0.91383   0.98819   0.94995   0.00000  Uiso   1.00
H305   H     0.31888   0.83173   0.95240   0.00000  Uiso   1.00
H306   H     0.61433   0.90967   0.26043   0.00000  Uiso   1.00
H307   H     0.81864   0.80977   0.72059   0.00000  Uiso   1.00
H308   H     0.96603   0.84396   0.82918   0.00000  Uiso   1.00
H309   H     0.68387   0.76975   0.83036   0.00000  Uiso   1.00
H310   H     0.82398   0.80672   0.50221   0.00000  Uiso   1.00
H311   H     0.10103   0.89585   0.94967   0.00000  Uiso   1.00
H312   H     0.50607   0.73938   0.95211   0.00000  Uiso   1.00
H313   H     0.80153   0.81732   0.26014   0.00000  Uiso   1.00
O314   O     0.10042   0.96645   0.02129   0.00000  Uiso   1.00
O315   O     0.31986   0.76117   0.02447   0.00000  Uiso   1.00
O316   O     0.70750   0.86343   0.11663   0.00000  Uiso   1.00
N317   N     0.93767   0.96177   0.93496   0.00000  Uiso   1.00
N318   N     0.38143   0.81549   0.93726   0.00000  Uiso   1.00
N319   N     0.65764   0.88835   0.29033   0.00000  Uiso   1.00
N320   N     0.03840   0.91208   0.93481   0.00000  Uiso   1.00
N321   N     0.48216   0.76580   0.93711   0.00000  Uiso   1.00
N322   N     0.75837   0.83866   0.29018   0.00000  Uiso   1.00
C323   C     0.84991   0.10708   0.72085   0.00000  Uiso   1.00
C324   C     0.74603   0.10025   0.77980   0.00000  Uiso   1.00
C325   C     0.71480   0.06682   0.82947   0.00000  Uiso   1.00
C326   C     0.61684   0.06626   0.87911   0.00000  Uiso   1.00
C327   C     0.46535   0.05083   0.97072   0.00000  Uiso   1.00
C328   C     0.89933   0.14056   0.78046   0.00000  Uiso   1.00
C329   C     0.99700   0.14104   0.83066   0.00000  Uiso   1.00
C330   C     0.02809   0.17442   0.88083   0.00000  Uiso   1.00
C331   C     0.11463   0.22158   0.97338   0.00000  Uiso   1.00
C332   C     0.82319   0.12048   0.60217   0.00000  Uiso   1.00
C333   C     0.85687   0.10407   0.50246   0.00000  Uiso   1.00
C334   C     0.82388   0.12054   0.40252   0.00000  Uiso   1.00
C335   C     0.79221   0.13652   0.21825   0.00000  Uiso   1.00
C336   C     0.73145   0.16552   0.72066   0.00000  Uiso   1.00
C337   C     0.68169   0.13199   0.77970   0.00000  Uiso   1.00
C338   C     0.58375   0.13147   0.82927   0.00000  Uiso   1.00
C339   C     0.55238   0.09806   0.87900   0.00000  Uiso   1.00
C340   C     0.83499   0.17230   0.78036   0.00000  Uiso   1.00
C341   C     0.86594   0.20569   0.83046   0.00000  Uiso   1.00
C342   C     0.96363   0.20621   0.88073   0.00000  Uiso   1.00
C343   C     0.75885   0.15222   0.60206   0.00000  Uiso   1.00
C344   C     0.72581   0.16872   0.50226   0.00000  Uiso   1.00
C345   C     0.75942   0.15234   0.40242   0.00000  Uiso   1.00
H346   H     0.90000   0.08237   0.72093   0.00000  Uiso   1.00
H347   H     0.76462   0.04227   0.82954   0.00000  Uiso   1.00
H348   H     0.04678   0.11647   0.83072   0.00000  Uiso   1.00
H349   H     0.90666   0.07951   0.50257   0.00000  Uiso   1.00
H350   H     0.58617   0.01181   0.94995   0.00000  Uiso   1.00
H351   H     0.18112   0.16827   0.95240   0.00000  Uiso   1.00
H352   H     0.88567   0.09033   0.26043   0.00000  Uiso   1.00
H353   H     0.68136   0.19023   0.72059   0.00000  Uiso   1.00
H354   H     0.53397   0.15604   0.82918   0.00000  Uiso   1.00
H355   H     0.81613   0.23025   0.83036   0.00000  Uiso   1.00
H356   H     0.67602   0.19328   0.50221   0.00000  Uiso   1.00
H357   H     0.39897   0.10415   0.94967   0.00000  Uiso   1.00
H358   H     0.99393   0.26062   0.95211   0.00000  Uiso   1.00
H359   H     0.69847   0.18268   0.26014   0.00000  Uiso   1.00
O360   O     0.39958   0.03355   0.02129   0.00000  Uiso   1.00
O361   O     0.18014   0.23883   0.02447   0.00000  Uiso   1.00
O362   O     0.79250   0.13657   0.11663   0.00000  Uiso   1.00
N363   N     0.56233   0.03823   0.93496   0.00000  Uiso   1.00
N364   N     0.11857   0.18451   0.93726   0.00000  Uiso   1.00
N365   N     0.84236   0.11165   0.29033   0.00000  Uiso   1.00
N366   N     0.46160   0.08792   0.93481   0.00000  Uiso   1.00
N367   N     0.01784   0.23420   0.93711   0.00000  Uiso   1.00
N368   N     0.74163   0.16134   0.29018   0.00000  Uiso   1.00
