data_job_03096
_audit_creation_date              2018-12-19
_audit_creation_method            'Materials Studio'
_symmetry_space_group_name_H-M    'P1'
_symmetry_Int_Tables_number       1
_symmetry_cell_setting            triclinic
loop_
_symmetry_equiv_pos_as_xyz
  x,y,z
_cell_length_a                    12.4666
_cell_length_b                    22.2635
_cell_length_c                    24.5675
_cell_angle_alpha                 90.0000
_cell_angle_beta                  105.4065
_cell_angle_gamma                 90.0000
loop_
_atom_site_label
_atom_site_type_symbol
_atom_site_fract_x
_atom_site_fract_y
_atom_site_fract_z
_atom_site_U_iso_or_equiv
_atom_site_adp_type
_atom_site_occupancy
C1     C     0.78128   0.99837   0.92357   0.00000  Uiso   1.00
C2     C     0.67960   0.96349   0.92933   0.00000  Uiso   1.00
C3     C     0.64356   0.95899   0.97798   0.00000  Uiso   1.00
C4     C     0.54869   0.92496   0.97462   0.00000  Uiso   1.00
C5     C     0.39946   0.87510   0.99121   0.00000  Uiso   1.00
C6     C     0.85377   0.95327   0.90293   0.00000  Uiso   1.00
C7     C     0.96417   0.94019   0.92938   0.00000  Uiso   1.00
C8     C     0.01593   0.89757   0.90378   0.00000  Uiso   1.00
C9     C     0.13713   0.83189   0.87937   0.00000  Uiso   1.00
C10    C     0.73895   0.04241   0.87507   0.00000  Uiso   1.00
C11    C     0.75284   0.10428   0.87810   0.00000  Uiso   1.00
C12    C     0.70795   0.13671   0.82905   0.00000  Uiso   1.00
C13    C     0.65088   0.20943   0.76139   0.00000  Uiso   1.00
C14    C     0.67690   0.94593   0.83108   0.00000  Uiso   1.00
C15    C     0.62291   0.93500   0.87909   0.00000  Uiso   1.00
C16    C     0.52807   0.90097   0.87566   0.00000  Uiso   1.00
C17    C     0.49189   0.89642   0.92429   0.00000  Uiso   1.00
C18    C     0.79708   0.92479   0.85269   0.00000  Uiso   1.00
C19    C     0.84869   0.88218   0.82705   0.00000  Uiso   1.00
C20    C     0.95914   0.86903   0.85346   0.00000  Uiso   1.00
C21    C     0.68226   0.01393   0.82484   0.00000  Uiso   1.00
C22    C     0.63735   0.04626   0.77578   0.00000  Uiso   1.00
C23    C     0.65116   0.10817   0.77873   0.00000  Uiso   1.00
H24    H     0.82543   0.02054   0.96267   0.00000  Uiso   1.00
H25    H     0.68746   0.98103   0.01685   0.00000  Uiso   1.00
H26    H     0.00803   0.96225   0.96825   0.00000  Uiso   1.00
H27    H     0.79672   0.12631   0.91698   0.00000  Uiso   1.00
H28    H     0.50952   0.92465   0.05476   0.00000  Uiso   1.00
H29    H     0.18547   0.88505   0.95227   0.00000  Uiso   1.00
H30    H     0.73988   0.23101   0.84416   0.00000  Uiso   1.00
H31    H     0.63277   0.92376   0.79197   0.00000  Uiso   1.00
H32    H     0.48422   0.87893   0.83678   0.00000  Uiso   1.00
H33    H     0.80479   0.86015   0.78818   0.00000  Uiso   1.00
H34    H     0.59348   0.02421   0.73691   0.00000  Uiso   1.00
H35    H     0.34456   0.84178   0.90861   0.00000  Uiso   1.00
H36    H     0.02052   0.80218   0.80612   0.00000  Uiso   1.00
H37    H     0.57493   0.14814   0.69801   0.00000  Uiso   1.00
O38    O     0.33282   0.85546   0.01424   0.00000  Uiso   1.00
O39    O     0.21964   0.80352   0.87978   0.00000  Uiso   1.00
O40    O     0.63504   0.25741   0.73794   0.00000  Uiso   1.00
N41    N     0.49107   0.91131   0.01421   0.00000  Uiso   1.00
N42    N     0.12304   0.87428   0.91840   0.00000  Uiso   1.00
N43    N     0.70648   0.19772   0.81732   0.00000  Uiso   1.00
N44    N     0.40231   0.86671   0.93557   0.00000  Uiso   1.00
N45    N     0.03427   0.82969   0.83976   0.00000  Uiso   1.00
N46    N     0.61772   0.15313   0.73868   0.00000  Uiso   1.00
C47    C     0.28128   0.49837   0.92357   0.00000  Uiso   1.00
C48    C     0.17960   0.46349   0.92933   0.00000  Uiso   1.00
C49    C     0.14356   0.45899   0.97798   0.00000  Uiso   1.00
C50    C     0.04869   0.42496   0.97462   0.00000  Uiso   1.00
C51    C     0.89946   0.37510   0.99121   0.00000  Uiso   1.00
C52    C     0.35377   0.45327   0.90293   0.00000  Uiso   1.00
C53    C     0.46417   0.44019   0.92938   0.00000  Uiso   1.00
C54    C     0.51593   0.39757   0.90378   0.00000  Uiso   1.00
C55    C     0.63713   0.33189   0.87937   0.00000  Uiso   1.00
C56    C     0.23895   0.54241   0.87507   0.00000  Uiso   1.00
C57    C     0.25284   0.60428   0.87810   0.00000  Uiso   1.00
C58    C     0.20795   0.63671   0.82905   0.00000  Uiso   1.00
C59    C     0.15088   0.70943   0.76139   0.00000  Uiso   1.00
C60    C     0.17690   0.44593   0.83108   0.00000  Uiso   1.00
C61    C     0.12291   0.43500   0.87909   0.00000  Uiso   1.00
C62    C     0.02807   0.40097   0.87566   0.00000  Uiso   1.00
C63    C     0.99189   0.39642   0.92429   0.00000  Uiso   1.00
C64    C     0.29708   0.42479   0.85269   0.00000  Uiso   1.00
C65    C     0.34869   0.38218   0.82705   0.00000  Uiso   1.00
C66    C     0.45914   0.36903   0.85346   0.00000  Uiso   1.00
C67    C     0.18226   0.51393   0.82484   0.00000  Uiso   1.00
C68    C     0.13735   0.54626   0.77578   0.00000  Uiso   1.00
C69    C     0.15116   0.60817   0.77873   0.00000  Uiso   1.00
H70    H     0.32543   0.52054   0.96267   0.00000  Uiso   1.00
H71    H     0.18746   0.48103   0.01685   0.00000  Uiso   1.00
H72    H     0.50803   0.46225   0.96825   0.00000  Uiso   1.00
H73    H     0.29672   0.62631   0.91698   0.00000  Uiso   1.00
H74    H     0.00952   0.42465   0.05476   0.00000  Uiso   1.00
H75    H     0.68547   0.38505   0.95227   0.00000  Uiso   1.00
H76    H     0.23988   0.73101   0.84416   0.00000  Uiso   1.00
H77    H     0.13277   0.42376   0.79197   0.00000  Uiso   1.00
H78    H     0.98422   0.37893   0.83678   0.00000  Uiso   1.00
H79    H     0.30479   0.36015   0.78818   0.00000  Uiso   1.00
H80    H     0.09348   0.52421   0.73691   0.00000  Uiso   1.00
H81    H     0.84456   0.34178   0.90861   0.00000  Uiso   1.00
H82    H     0.52052   0.30218   0.80612   0.00000  Uiso   1.00
H83    H     0.07493   0.64814   0.69801   0.00000  Uiso   1.00
O84    O     0.83282   0.35546   0.01424   0.00000  Uiso   1.00
O85    O     0.71964   0.30352   0.87978   0.00000  Uiso   1.00
O86    O     0.13504   0.75741   0.73794   0.00000  Uiso   1.00
N87    N     0.99107   0.41131   0.01421   0.00000  Uiso   1.00
N88    N     0.62304   0.37428   0.91840   0.00000  Uiso   1.00
N89    N     0.20648   0.69772   0.81732   0.00000  Uiso   1.00
N90    N     0.90231   0.36671   0.93557   0.00000  Uiso   1.00
N91    N     0.53427   0.32969   0.83976   0.00000  Uiso   1.00
N92    N     0.11772   0.65313   0.73868   0.00000  Uiso   1.00
C93    C     0.21872   0.99837   0.57643   0.00000  Uiso   1.00
C94    C     0.32040   0.96349   0.57067   0.00000  Uiso   1.00
C95    C     0.35644   0.95899   0.52202   0.00000  Uiso   1.00
C96    C     0.45131   0.92496   0.52538   0.00000  Uiso   1.00
C97    C     0.60054   0.87510   0.50879   0.00000  Uiso   1.00
C98    C     0.14623   0.95327   0.59707   0.00000  Uiso   1.00
C99    C     0.03583   0.94019   0.57062   0.00000  Uiso   1.00
C100   C     0.98407   0.89757   0.59622   0.00000  Uiso   1.00
C101   C     0.86287   0.83189   0.62063   0.00000  Uiso   1.00
C102   C     0.26105   0.04241   0.62493   0.00000  Uiso   1.00
C103   C     0.24716   0.10428   0.62190   0.00000  Uiso   1.00
C104   C     0.29205   0.13671   0.67095   0.00000  Uiso   1.00
C105   C     0.34912   0.20943   0.73861   0.00000  Uiso   1.00
C106   C     0.32310   0.94593   0.66892   0.00000  Uiso   1.00
C107   C     0.37709   0.93500   0.62091   0.00000  Uiso   1.00
C108   C     0.47193   0.90097   0.62434   0.00000  Uiso   1.00
C109   C     0.50811   0.89642   0.57571   0.00000  Uiso   1.00
C110   C     0.20292   0.92479   0.64731   0.00000  Uiso   1.00
C111   C     0.15131   0.88218   0.67295   0.00000  Uiso   1.00
C112   C     0.04086   0.86903   0.64654   0.00000  Uiso   1.00
C113   C     0.31774   0.01393   0.67516   0.00000  Uiso   1.00
C114   C     0.36265   0.04626   0.72422   0.00000  Uiso   1.00
C115   C     0.34884   0.10817   0.72127   0.00000  Uiso   1.00
H116   H     0.17457   0.02054   0.53733   0.00000  Uiso   1.00
H117   H     0.31254   0.98103   0.48315   0.00000  Uiso   1.00
H118   H     0.99197   0.96225   0.53175   0.00000  Uiso   1.00
H119   H     0.20328   0.12631   0.58302   0.00000  Uiso   1.00
H120   H     0.49048   0.92465   0.44524   0.00000  Uiso   1.00
H121   H     0.81453   0.88505   0.54773   0.00000  Uiso   1.00
H122   H     0.26012   0.23101   0.65584   0.00000  Uiso   1.00
H123   H     0.36723   0.92376   0.70803   0.00000  Uiso   1.00
H124   H     0.51578   0.87893   0.66322   0.00000  Uiso   1.00
H125   H     0.19521   0.86015   0.71182   0.00000  Uiso   1.00
H126   H     0.40652   0.02421   0.76309   0.00000  Uiso   1.00
H127   H     0.65544   0.84178   0.59139   0.00000  Uiso   1.00
H128   H     0.97948   0.80218   0.69388   0.00000  Uiso   1.00
H129   H     0.42507   0.14814   0.80199   0.00000  Uiso   1.00
O130   O     0.66718   0.85546   0.48576   0.00000  Uiso   1.00
O131   O     0.78036   0.80352   0.62022   0.00000  Uiso   1.00
O132   O     0.36496   0.25741   0.76206   0.00000  Uiso   1.00
N133   N     0.50893   0.91131   0.48579   0.00000  Uiso   1.00
N134   N     0.87696   0.87428   0.58160   0.00000  Uiso   1.00
N135   N     0.29352   0.19772   0.68268   0.00000  Uiso   1.00
N136   N     0.59769   0.86671   0.56443   0.00000  Uiso   1.00
N137   N     0.96573   0.82969   0.66024   0.00000  Uiso   1.00
N138   N     0.38228   0.15313   0.76132   0.00000  Uiso   1.00
C139   C     0.71872   0.49837   0.57643   0.00000  Uiso   1.00
C140   C     0.82040   0.46349   0.57067   0.00000  Uiso   1.00
C141   C     0.85644   0.45899   0.52202   0.00000  Uiso   1.00
C142   C     0.95131   0.42496   0.52538   0.00000  Uiso   1.00
C143   C     0.10054   0.37510   0.50879   0.00000  Uiso   1.00
C144   C     0.64623   0.45327   0.59707   0.00000  Uiso   1.00
C145   C     0.53583   0.44019   0.57062   0.00000  Uiso   1.00
C146   C     0.48407   0.39757   0.59622   0.00000  Uiso   1.00
C147   C     0.36287   0.33189   0.62063   0.00000  Uiso   1.00
C148   C     0.76105   0.54241   0.62493   0.00000  Uiso   1.00
C149   C     0.74716   0.60428   0.62190   0.00000  Uiso   1.00
C150   C     0.79205   0.63671   0.67095   0.00000  Uiso   1.00
C151   C     0.84912   0.70943   0.73861   0.00000  Uiso   1.00
C152   C     0.82310   0.44593   0.66892   0.00000  Uiso   1.00
C153   C     0.87709   0.43500   0.62091   0.00000  Uiso   1.00
C154   C     0.97193   0.40097   0.62434   0.00000  Uiso   1.00
C155   C     0.00811   0.39642   0.57571   0.00000  Uiso   1.00
C156   C     0.70292   0.42479   0.64731   0.00000  Uiso   1.00
C157   C     0.65131   0.38218   0.67295   0.00000  Uiso   1.00
C158   C     0.54086   0.36903   0.64654   0.00000  Uiso   1.00
C159   C     0.81774   0.51393   0.67516   0.00000  Uiso   1.00
C160   C     0.86265   0.54626   0.72422   0.00000  Uiso   1.00
C161   C     0.84884   0.60817   0.72127   0.00000  Uiso   1.00
H162   H     0.67457   0.52054   0.53733   0.00000  Uiso   1.00
H163   H     0.81254   0.48103   0.48315   0.00000  Uiso   1.00
H164   H     0.49197   0.46225   0.53175   0.00000  Uiso   1.00
H165   H     0.70328   0.62631   0.58302   0.00000  Uiso   1.00
H166   H     0.99048   0.42465   0.44524   0.00000  Uiso   1.00
H167   H     0.31453   0.38505   0.54773   0.00000  Uiso   1.00
H168   H     0.76012   0.73101   0.65584   0.00000  Uiso   1.00
H169   H     0.86723   0.42376   0.70803   0.00000  Uiso   1.00
H170   H     0.01578   0.37893   0.66322   0.00000  Uiso   1.00
H171   H     0.69521   0.36015   0.71182   0.00000  Uiso   1.00
H172   H     0.90652   0.52421   0.76309   0.00000  Uiso   1.00
H173   H     0.15544   0.34178   0.59139   0.00000  Uiso   1.00
H174   H     0.47948   0.30218   0.69388   0.00000  Uiso   1.00
H175   H     0.92507   0.64814   0.80199   0.00000  Uiso   1.00
O176   O     0.16718   0.35546   0.48576   0.00000  Uiso   1.00
O177   O     0.28036   0.30352   0.62022   0.00000  Uiso   1.00
O178   O     0.86496   0.75741   0.76206   0.00000  Uiso   1.00
N179   N     0.00893   0.41131   0.48579   0.00000  Uiso   1.00
N180   N     0.37696   0.37428   0.58160   0.00000  Uiso   1.00
N181   N     0.79352   0.69772   0.68268   0.00000  Uiso   1.00
N182   N     0.09769   0.36671   0.56443   0.00000  Uiso   1.00
N183   N     0.46573   0.32969   0.66024   0.00000  Uiso   1.00
N184   N     0.88228   0.65313   0.76132   0.00000  Uiso   1.00
C185   C     0.21872   0.00163   0.07643   0.00000  Uiso   1.00
C186   C     0.32040   0.03651   0.07067   0.00000  Uiso   1.00
C187   C     0.35644   0.04101   0.02202   0.00000  Uiso   1.00
C188   C     0.45131   0.07504   0.02538   0.00000  Uiso   1.00
C189   C     0.60054   0.12490   0.00879   0.00000  Uiso   1.00
C190   C     0.14623   0.04673   0.09707   0.00000  Uiso   1.00
C191   C     0.03583   0.05981   0.07062   0.00000  Uiso   1.00
C192   C     0.98407   0.10243   0.09622   0.00000  Uiso   1.00
C193   C     0.86287   0.16811   0.12063   0.00000  Uiso   1.00
C194   C     0.26105   0.95759   0.12493   0.00000  Uiso   1.00
C195   C     0.24716   0.89572   0.12190   0.00000  Uiso   1.00
C196   C     0.29205   0.86329   0.17095   0.00000  Uiso   1.00
C197   C     0.34912   0.79057   0.23861   0.00000  Uiso   1.00
C198   C     0.32310   0.05407   0.16892   0.00000  Uiso   1.00
C199   C     0.37709   0.06500   0.12091   0.00000  Uiso   1.00
C200   C     0.47193   0.09903   0.12434   0.00000  Uiso   1.00
C201   C     0.50811   0.10358   0.07571   0.00000  Uiso   1.00
C202   C     0.20292   0.07521   0.14731   0.00000  Uiso   1.00
C203   C     0.15131   0.11782   0.17295   0.00000  Uiso   1.00
C204   C     0.04086   0.13097   0.14654   0.00000  Uiso   1.00
C205   C     0.31774   0.98607   0.17516   0.00000  Uiso   1.00
C206   C     0.36265   0.95374   0.22422   0.00000  Uiso   1.00
C207   C     0.34884   0.89183   0.22127   0.00000  Uiso   1.00
H208   H     0.17457   0.97946   0.03733   0.00000  Uiso   1.00
H209   H     0.31254   0.01897   0.98315   0.00000  Uiso   1.00
H210   H     0.99197   0.03775   0.03175   0.00000  Uiso   1.00
H211   H     0.20328   0.87369   0.08302   0.00000  Uiso   1.00
H212   H     0.49048   0.07535   0.94524   0.00000  Uiso   1.00
H213   H     0.81453   0.11495   0.04773   0.00000  Uiso   1.00
H214   H     0.26012   0.76899   0.15584   0.00000  Uiso   1.00
H215   H     0.36723   0.07624   0.20803   0.00000  Uiso   1.00
H216   H     0.51578   0.12107   0.16322   0.00000  Uiso   1.00
H217   H     0.19521   0.13985   0.21182   0.00000  Uiso   1.00
H218   H     0.40652   0.97579   0.26309   0.00000  Uiso   1.00
H219   H     0.65544   0.15822   0.09139   0.00000  Uiso   1.00
H220   H     0.97948   0.19782   0.19388   0.00000  Uiso   1.00
H221   H     0.42507   0.85186   0.30199   0.00000  Uiso   1.00
O222   O     0.66718   0.14454   0.98576   0.00000  Uiso   1.00
O223   O     0.78036   0.19648   0.12022   0.00000  Uiso   1.00
O224   O     0.36496   0.74259   0.26206   0.00000  Uiso   1.00
N225   N     0.50893   0.08869   0.98579   0.00000  Uiso   1.00
N226   N     0.87696   0.12572   0.08160   0.00000  Uiso   1.00
N227   N     0.29352   0.80228   0.18268   0.00000  Uiso   1.00
N228   N     0.59769   0.13329   0.06443   0.00000  Uiso   1.00
N229   N     0.96573   0.17031   0.16024   0.00000  Uiso   1.00
N230   N     0.38228   0.84687   0.26132   0.00000  Uiso   1.00
C231   C     0.71872   0.50163   0.07643   0.00000  Uiso   1.00
C232   C     0.82040   0.53651   0.07067   0.00000  Uiso   1.00
C233   C     0.85644   0.54101   0.02202   0.00000  Uiso   1.00
C234   C     0.95131   0.57504   0.02538   0.00000  Uiso   1.00
C235   C     0.10054   0.62490   0.00879   0.00000  Uiso   1.00
C236   C     0.64623   0.54673   0.09707   0.00000  Uiso   1.00
C237   C     0.53583   0.55981   0.07062   0.00000  Uiso   1.00
C238   C     0.48407   0.60243   0.09622   0.00000  Uiso   1.00
C239   C     0.36287   0.66811   0.12063   0.00000  Uiso   1.00
C240   C     0.76105   0.45759   0.12493   0.00000  Uiso   1.00
C241   C     0.74716   0.39572   0.12190   0.00000  Uiso   1.00
C242   C     0.79205   0.36329   0.17095   0.00000  Uiso   1.00
C243   C     0.84912   0.29057   0.23861   0.00000  Uiso   1.00
C244   C     0.82310   0.55407   0.16892   0.00000  Uiso   1.00
C245   C     0.87709   0.56500   0.12091   0.00000  Uiso   1.00
C246   C     0.97193   0.59903   0.12434   0.00000  Uiso   1.00
C247   C     0.00811   0.60358   0.07571   0.00000  Uiso   1.00
C248   C     0.70292   0.57521   0.14731   0.00000  Uiso   1.00
C249   C     0.65131   0.61782   0.17295   0.00000  Uiso   1.00
C250   C     0.54086   0.63097   0.14654   0.00000  Uiso   1.00
C251   C     0.81774   0.48607   0.17516   0.00000  Uiso   1.00
C252   C     0.86265   0.45374   0.22422   0.00000  Uiso   1.00
C253   C     0.84884   0.39183   0.22127   0.00000  Uiso   1.00
H254   H     0.67457   0.47946   0.03733   0.00000  Uiso   1.00
H255   H     0.81254   0.51897   0.98315   0.00000  Uiso   1.00
H256   H     0.49197   0.53775   0.03175   0.00000  Uiso   1.00
H257   H     0.70328   0.37369   0.08302   0.00000  Uiso   1.00
H258   H     0.99048   0.57535   0.94524   0.00000  Uiso   1.00
H259   H     0.31453   0.61495   0.04773   0.00000  Uiso   1.00
H260   H     0.76012   0.26899   0.15584   0.00000  Uiso   1.00
H261   H     0.86723   0.57624   0.20803   0.00000  Uiso   1.00
H262   H     0.01578   0.62107   0.16322   0.00000  Uiso   1.00
H263   H     0.69521   0.63985   0.21182   0.00000  Uiso   1.00
H264   H     0.90652   0.47579   0.26309   0.00000  Uiso   1.00
H265   H     0.15544   0.65822   0.09139   0.00000  Uiso   1.00
H266   H     0.47948   0.69782   0.19388   0.00000  Uiso   1.00
H267   H     0.92507   0.35186   0.30199   0.00000  Uiso   1.00
O268   O     0.16718   0.64454   0.98576   0.00000  Uiso   1.00
O269   O     0.28036   0.69648   0.12022   0.00000  Uiso   1.00
O270   O     0.86496   0.24259   0.26206   0.00000  Uiso   1.00
N271   N     0.00893   0.58869   0.98579   0.00000  Uiso   1.00
N272   N     0.37696   0.62572   0.08160   0.00000  Uiso   1.00
N273   N     0.79352   0.30228   0.18268   0.00000  Uiso   1.00
N274   N     0.09769   0.63329   0.06443   0.00000  Uiso   1.00
N275   N     0.46573   0.67031   0.16024   0.00000  Uiso   1.00
N276   N     0.88228   0.34687   0.26132   0.00000  Uiso   1.00
C277   C     0.78128   0.00163   0.42357   0.00000  Uiso   1.00
C278   C     0.67960   0.03651   0.42933   0.00000  Uiso   1.00
C279   C     0.64356   0.04101   0.47798   0.00000  Uiso   1.00
C280   C     0.54869   0.07504   0.47462   0.00000  Uiso   1.00
C281   C     0.39946   0.12490   0.49121   0.00000  Uiso   1.00
C282   C     0.85377   0.04673   0.40293   0.00000  Uiso   1.00
C283   C     0.96417   0.05981   0.42938   0.00000  Uiso   1.00
C284   C     0.01593   0.10243   0.40378   0.00000  Uiso   1.00
C285   C     0.13713   0.16811   0.37937   0.00000  Uiso   1.00
C286   C     0.73895   0.95759   0.37507   0.00000  Uiso   1.00
C287   C     0.75284   0.89572   0.37810   0.00000  Uiso   1.00
C288   C     0.70795   0.86329   0.32905   0.00000  Uiso   1.00
C289   C     0.65088   0.79057   0.26139   0.00000  Uiso   1.00
C290   C     0.67690   0.05407   0.33108   0.00000  Uiso   1.00
C291   C     0.62291   0.06500   0.37909   0.00000  Uiso   1.00
C292   C     0.52807   0.09903   0.37566   0.00000  Uiso   1.00
C293   C     0.49189   0.10358   0.42429   0.00000  Uiso   1.00
C294   C     0.79708   0.07521   0.35269   0.00000  Uiso   1.00
C295   C     0.84869   0.11782   0.32705   0.00000  Uiso   1.00
C296   C     0.95914   0.13097   0.35346   0.00000  Uiso   1.00
C297   C     0.68226   0.98607   0.32484   0.00000  Uiso   1.00
C298   C     0.63735   0.95374   0.27578   0.00000  Uiso   1.00
C299   C     0.65116   0.89183   0.27873   0.00000  Uiso   1.00
H300   H     0.82543   0.97946   0.46267   0.00000  Uiso   1.00
H301   H     0.68746   0.01897   0.51685   0.00000  Uiso   1.00
H302   H     0.00803   0.03775   0.46825   0.00000  Uiso   1.00
H303   H     0.79672   0.87369   0.41698   0.00000  Uiso   1.00
H304   H     0.50952   0.07535   0.55476   0.00000  Uiso   1.00
H305   H     0.18547   0.11495   0.45227   0.00000  Uiso   1.00
H306   H     0.73988   0.76899   0.34416   0.00000  Uiso   1.00
H307   H     0.63277   0.07624   0.29197   0.00000  Uiso   1.00
H308   H     0.48422   0.12107   0.33678   0.00000  Uiso   1.00
H309   H     0.80479   0.13985   0.28818   0.00000  Uiso   1.00
H310   H     0.59348   0.97579   0.23691   0.00000  Uiso   1.00
H311   H     0.34456   0.15822   0.40861   0.00000  Uiso   1.00
H312   H     0.02052   0.19782   0.30612   0.00000  Uiso   1.00
H313   H     0.57493   0.85186   0.19801   0.00000  Uiso   1.00
O314   O     0.33282   0.14454   0.51424   0.00000  Uiso   1.00
O315   O     0.21964   0.19648   0.37978   0.00000  Uiso   1.00
O316   O     0.63504   0.74259   0.23794   0.00000  Uiso   1.00
N317   N     0.49107   0.08869   0.51421   0.00000  Uiso   1.00
N318   N     0.12304   0.12572   0.41840   0.00000  Uiso   1.00
N319   N     0.70648   0.80228   0.31732   0.00000  Uiso   1.00
N320   N     0.40231   0.13329   0.43557   0.00000  Uiso   1.00
N321   N     0.03427   0.17031   0.33976   0.00000  Uiso   1.00
N322   N     0.61772   0.84687   0.23868   0.00000  Uiso   1.00
C323   C     0.28128   0.50163   0.42357   0.00000  Uiso   1.00
C324   C     0.17960   0.53651   0.42933   0.00000  Uiso   1.00
C325   C     0.14356   0.54101   0.47798   0.00000  Uiso   1.00
C326   C     0.04869   0.57504   0.47462   0.00000  Uiso   1.00
C327   C     0.89946   0.62490   0.49121   0.00000  Uiso   1.00
C328   C     0.35377   0.54673   0.40293   0.00000  Uiso   1.00
C329   C     0.46417   0.55981   0.42938   0.00000  Uiso   1.00
C330   C     0.51593   0.60243   0.40378   0.00000  Uiso   1.00
C331   C     0.63713   0.66811   0.37937   0.00000  Uiso   1.00
C332   C     0.23895   0.45759   0.37507   0.00000  Uiso   1.00
C333   C     0.25284   0.39572   0.37810   0.00000  Uiso   1.00
C334   C     0.20795   0.36329   0.32905   0.00000  Uiso   1.00
C335   C     0.15088   0.29057   0.26139   0.00000  Uiso   1.00
C336   C     0.17690   0.55407   0.33108   0.00000  Uiso   1.00
C337   C     0.12291   0.56500   0.37909   0.00000  Uiso   1.00
C338   C     0.02807   0.59903   0.37566   0.00000  Uiso   1.00
C339   C     0.99189   0.60358   0.42429   0.00000  Uiso   1.00
C340   C     0.29708   0.57521   0.35269   0.00000  Uiso   1.00
C341   C     0.34869   0.61782   0.32705   0.00000  Uiso   1.00
C342   C     0.45914   0.63097   0.35346   0.00000  Uiso   1.00
C343   C     0.18226   0.48607   0.32484   0.00000  Uiso   1.00
C344   C     0.13735   0.45374   0.27578   0.00000  Uiso   1.00
C345   C     0.15116   0.39183   0.27873   0.00000  Uiso   1.00
H346   H     0.32543   0.47946   0.46267   0.00000  Uiso   1.00
H347   H     0.18746   0.51897   0.51685   0.00000  Uiso   1.00
H348   H     0.50803   0.53775   0.46825   0.00000  Uiso   1.00
H349   H     0.29672   0.37369   0.41698   0.00000  Uiso   1.00
H350   H     0.00952   0.57535   0.55476   0.00000  Uiso   1.00
H351   H     0.68547   0.61495   0.45227   0.00000  Uiso   1.00
H352   H     0.23988   0.26899   0.34416   0.00000  Uiso   1.00
H353   H     0.13277   0.57624   0.29197   0.00000  Uiso   1.00
H354   H     0.98422   0.62107   0.33678   0.00000  Uiso   1.00
H355   H     0.30479   0.63985   0.28818   0.00000  Uiso   1.00
H356   H     0.09348   0.47579   0.23691   0.00000  Uiso   1.00
H357   H     0.84456   0.65822   0.40861   0.00000  Uiso   1.00
H358   H     0.52052   0.69782   0.30612   0.00000  Uiso   1.00
H359   H     0.07493   0.35186   0.19801   0.00000  Uiso   1.00
O360   O     0.83282   0.64454   0.51424   0.00000  Uiso   1.00
O361   O     0.71964   0.69648   0.37978   0.00000  Uiso   1.00
O362   O     0.13504   0.24259   0.23794   0.00000  Uiso   1.00
N363   N     0.99107   0.58869   0.51421   0.00000  Uiso   1.00
N364   N     0.62304   0.62572   0.41840   0.00000  Uiso   1.00
N365   N     0.20648   0.30228   0.31732   0.00000  Uiso   1.00
N366   N     0.90231   0.63329   0.43557   0.00000  Uiso   1.00
N367   N     0.53427   0.67031   0.33976   0.00000  Uiso   1.00
N368   N     0.11772   0.34687   0.23868   0.00000  Uiso   1.00
