data_job_06605
_audit_creation_date              2018-12-19
_audit_creation_method            'Materials Studio'
_symmetry_space_group_name_H-M    'P1'
_symmetry_Int_Tables_number       1
_symmetry_cell_setting            triclinic
loop_
_symmetry_equiv_pos_as_xyz
  x,y,z
_cell_length_a                    21.9015
_cell_length_b                    22.1543
_cell_length_c                    22.8545
_cell_angle_alpha                 109.3442
_cell_angle_beta                  76.7298
_cell_angle_gamma                 68.3080
loop_
_atom_site_label
_atom_site_type_symbol
_atom_site_fract_x
_atom_site_fract_y
_atom_site_fract_z
_atom_site_U_iso_or_equiv
_atom_site_adp_type
_atom_site_occupancy
C1     C     0.67650   0.42603   0.29945   0.00000  Uiso   1.00
C2     C     0.69862   0.37475   0.22553   0.00000  Uiso   1.00
C3     C     0.73961   0.37538   0.16977   0.00000  Uiso   1.00
C4     C     0.75402   0.32402   0.10634   0.00000  Uiso   1.00
C5     C     0.79224   0.25205   0.99268   0.00000  Uiso   1.00
C6     C     0.59484   0.46310   0.33201   0.00000  Uiso   1.00
C7     C     0.54857   0.53802   0.36577   0.00000  Uiso   1.00
C8     C     0.47562   0.56103   0.39198   0.00000  Uiso   1.00
C9     C     0.35272   0.62623   0.44366   0.00000  Uiso   1.00
C10    C     0.70363   0.37697   0.33158   0.00000  Uiso   1.00
C11    C     0.74883   0.37946   0.36500   0.00000  Uiso   1.00
C12    C     0.76746   0.32996   0.39086   0.00000  Uiso   1.00
C13    C     0.81348   0.26142   0.44188   0.00000  Uiso   1.00
C14    C     0.62921   0.33370   0.28596   0.00000  Uiso   1.00
C15    C     0.67293   0.32460   0.21821   0.00000  Uiso   1.00
C16    C     0.68728   0.27322   0.15485   0.00000  Uiso   1.00
C17    C     0.72829   0.27377   0.09900   0.00000  Uiso   1.00
C18    C     0.56915   0.41296   0.32468   0.00000  Uiso   1.00
C19    C     0.49625   0.43586   0.35085   0.00000  Uiso   1.00
C20    C     0.44988   0.51079   0.38464   0.00000  Uiso   1.00
C21    C     0.67795   0.32681   0.32425   0.00000  Uiso   1.00
C22    C     0.69651   0.27730   0.35007   0.00000  Uiso   1.00
C23    C     0.74172   0.27972   0.38353   0.00000  Uiso   1.00
H24    H     0.69650   0.46508   0.30516   0.00000  Uiso   1.00
H25    H     0.75947   0.41421   0.17547   0.00000  Uiso   1.00
H26    H     0.56847   0.57682   0.37144   0.00000  Uiso   1.00
H27    H     0.76870   0.41828   0.37066   0.00000  Uiso   1.00
H28    H     0.81794   0.33570   0.02844   0.00000  Uiso   1.00
H29    H     0.41520   0.67858   0.44168   0.00000  Uiso   1.00
H30    H     0.83742   0.34428   0.44005   0.00000  Uiso   1.00
H31    H     0.60921   0.29465   0.28026   0.00000  Uiso   1.00
H32    H     0.66740   0.23442   0.14919   0.00000  Uiso   1.00
H33    H     0.47639   0.39703   0.34517   0.00000  Uiso   1.00
H34    H     0.67662   0.23850   0.34439   0.00000  Uiso   1.00
H35    H     0.74320   0.18978   0.00712   0.00000  Uiso   1.00
H36    H     0.34046   0.53266   0.42037   0.00000  Uiso   1.00
H37    H     0.76268   0.19836   0.41873   0.00000  Uiso   1.00
O38    O     0.82040   0.22621   0.93201   0.00000  Uiso   1.00
O39    O     0.29203   0.67605   0.47418   0.00000  Uiso   1.00
O40    O     0.84597   0.23746   0.47203   0.00000  Uiso   1.00
N41    N     0.79238   0.30962   0.04141   0.00000  Uiso   1.00
N42    N     0.41584   0.63019   0.42776   0.00000  Uiso   1.00
N43    N     0.81056   0.31766   0.42625   0.00000  Uiso   1.00
N44    N     0.75216   0.23110   0.02993   0.00000  Uiso   1.00
N45    N     0.37562   0.55167   0.41628   0.00000  Uiso   1.00
N46    N     0.77035   0.23914   0.41477   0.00000  Uiso   1.00
C47    C     0.04880   0.57692   0.84911   0.00000  Uiso   1.00
C48    C     0.05605   0.60000   0.79310   0.00000  Uiso   1.00
C49    C     0.01251   0.60617   0.75745   0.00000  Uiso   1.00
C50    C     0.02792   0.62807   0.70815   0.00000  Uiso   1.00
C51    C     0.03053   0.66157   0.62316   0.00000  Uiso   1.00
C52    C     0.12123   0.51123   0.82685   0.00000  Uiso   1.00
C53    C     0.13250   0.44278   0.81959   0.00000  Uiso   1.00
C54    C     0.20278   0.38996   0.79870   0.00000  Uiso   1.00
C55    C     0.30659   0.28566   0.76615   0.00000  Uiso   1.00
C56    C     0.04094   0.63864   0.91081   0.00000  Uiso   1.00
C57    C     0.98471   0.67730   0.97415   0.00000  Uiso   1.00
C58    C     0.98741   0.73174   0.02396   0.00000  Uiso   1.00
C59    C     0.96656   0.82527   0.12177   0.00000  Uiso   1.00
C60    C     0.15359   0.60483   0.82495   0.00000  Uiso   1.00
C61    C     0.11296   0.61516   0.77998   0.00000  Uiso   1.00
C62    C     0.12844   0.63706   0.73072   0.00000  Uiso   1.00
C63    C     0.08493   0.64326   0.69500   0.00000  Uiso   1.00
C64    C     0.17815   0.52639   0.81373   0.00000  Uiso   1.00
C65    C     0.24843   0.47366   0.79285   0.00000  Uiso   1.00
C66    C     0.25980   0.40515   0.78555   0.00000  Uiso   1.00
C67    C     0.09786   0.65381   0.89769   0.00000  Uiso   1.00
C68    C     0.10064   0.70819   0.94741   0.00000  Uiso   1.00
C69    C     0.04443   0.74693   0.01081   0.00000  Uiso   1.00
H70    H     0.00450   0.56511   0.85933   0.00000  Uiso   1.00
H71    H     0.96847   0.59443   0.76762   0.00000  Uiso   1.00
H72    H     0.08845   0.43106   0.82975   0.00000  Uiso   1.00
H73    H     0.94068   0.66555   0.98429   0.00000  Uiso   1.00
H74    H     0.95365   0.63359   0.66014   0.00000  Uiso   1.00
H75    H     0.20661   0.28914   0.79117   0.00000  Uiso   1.00
H76    H     0.89502   0.78360   0.11704   0.00000  Uiso   1.00
H77    H     0.19790   0.61664   0.81473   0.00000  Uiso   1.00
H78    H     0.17249   0.64879   0.72058   0.00000  Uiso   1.00
H79    H     0.29246   0.48542   0.78271   0.00000  Uiso   1.00
H80    H     0.14469   0.71991   0.93724   0.00000  Uiso   1.00
H81    H     0.11924   0.67771   0.62195   0.00000  Uiso   1.00
H82    H     0.37220   0.33325   0.75299   0.00000  Uiso   1.00
H83    H     0.06061   0.82772   0.07885   0.00000  Uiso   1.00
O84    O     0.01625   0.67585   0.57990   0.00000  Uiso   1.00
O85    O     0.34813   0.22394   0.75182   0.00000  Uiso   1.00
O86    O     0.93933   0.87267   0.17934   0.00000  Uiso   1.00
N87    N     0.99610   0.63958   0.66409   0.00000  Uiso   1.00
N88    N     0.23261   0.31753   0.78658   0.00000  Uiso   1.00
N89    N     0.94131   0.77980   0.09124   0.00000  Uiso   1.00
N90    N     0.08520   0.66332   0.64354   0.00000  Uiso   1.00
N91    N     0.32171   0.34127   0.76603   0.00000  Uiso   1.00
N92    N     0.03041   0.80354   0.07070   0.00000  Uiso   1.00
C93    C     0.57243   0.82421   0.73508   0.00000  Uiso   1.00
C94    C     0.53431   0.82352   0.68699   0.00000  Uiso   1.00
C95    C     0.55673   0.76502   0.62489   0.00000  Uiso   1.00
C96    C     0.51443   0.77530   0.58845   0.00000  Uiso   1.00
C97    C     0.46475   0.76414   0.50998   0.00000  Uiso   1.00
C98    C     0.58693   0.88858   0.74708   0.00000  Uiso   1.00
C99    C     0.65360   0.88478   0.73552   0.00000  Uiso   1.00
C100   C     0.65559   0.94984   0.74968   0.00000  Uiso   1.00
C101   C     0.68761   0.03969   0.76455   0.00000  Uiso   1.00
C102   C     0.51726   0.84434   0.80250   0.00000  Uiso   1.00
C103   C     0.52534   0.80335   0.83756   0.00000  Uiso   1.00
C104   C     0.46868   0.83116   0.89839   0.00000  Uiso   1.00
C105   C     0.39251   0.85231   0.99931   0.00000  Uiso   1.00
C106   C     0.45743   0.94650   0.78079   0.00000  Uiso   1.00
C107   C     0.47185   0.88995   0.71181   0.00000  Uiso   1.00
C108   C     0.42950   0.90032   0.67546   0.00000  Uiso   1.00
C109   C     0.45185   0.84184   0.61333   0.00000  Uiso   1.00
C110   C     0.52447   0.95500   0.77191   0.00000  Uiso   1.00
C111   C     0.52637   0.02008   0.78609   0.00000  Uiso   1.00
C112   C     0.59302   0.01638   0.77455   0.00000  Uiso   1.00
C113   C     0.45479   0.91076   0.82733   0.00000  Uiso   1.00
C114   C     0.39811   0.93864   0.88813   0.00000  Uiso   1.00
C115   C     0.40610   0.89770   0.92326   0.00000  Uiso   1.00
H116   H     0.62107   0.77250   0.71575   0.00000  Uiso   1.00
H117   H     0.60508   0.71363   0.60569   0.00000  Uiso   1.00
H118   H     0.70193   0.83338   0.71631   0.00000  Uiso   1.00
H119   H     0.57369   0.75195   0.81833   0.00000  Uiso   1.00
H120   H     0.55982   0.67766   0.49461   0.00000  Uiso   1.00
H121   H     0.76403   0.93015   0.72787   0.00000  Uiso   1.00
H122   H     0.49361   0.75845   0.94300   0.00000  Uiso   1.00
H123   H     0.40880   0.99821   0.80012   0.00000  Uiso   1.00
H124   H     0.38116   0.95173   0.69469   0.00000  Uiso   1.00
H125   H     0.47802   0.07147   0.80531   0.00000  Uiso   1.00
H126   H     0.34978   0.99004   0.90732   0.00000  Uiso   1.00
H127   H     0.37808   0.87091   0.56684   0.00000  Uiso   1.00
H128   H     0.58230   0.12340   0.80011   0.00000  Uiso   1.00
H129   H     0.31188   0.95169   0.01523   0.00000  Uiso   1.00
O130   O     0.45461   0.73964   0.45983   0.00000  Uiso   1.00
O131   O     0.72253   0.07090   0.76588   0.00000  Uiso   1.00
O132   O     0.36775   0.84562   0.04812   0.00000  Uiso   1.00
N133   N     0.52083   0.72952   0.52608   0.00000  Uiso   1.00
N134   N     0.71176   0.96558   0.74416   0.00000  Uiso   1.00
N135   N     0.45895   0.80506   0.94529   0.00000  Uiso   1.00
N136   N     0.42304   0.83350   0.56495   0.00000  Uiso   1.00
N137   N     0.61397   0.06956   0.78303   0.00000  Uiso   1.00
N138   N     0.36116   0.90904   0.98416   0.00000  Uiso   1.00
C139   C     0.09381   0.64554   0.29149   0.00000  Uiso   1.00
C140   C     0.09495   0.69644   0.26030   0.00000  Uiso   1.00
C141   C     0.14824   0.67824   0.20099   0.00000  Uiso   1.00
C142   C     0.13939   0.73252   0.18093   0.00000  Uiso   1.00
C143   C     0.15029   0.80090   0.12671   0.00000  Uiso   1.00
C144   C     0.02337   0.64433   0.29863   0.00000  Uiso   1.00
C145   C     0.01647   0.58232   0.27155   0.00000  Uiso   1.00
C146   C     0.94735   0.59274   0.28376   0.00000  Uiso   1.00
C147   C     0.84710   0.58022   0.28908   0.00000  Uiso   1.00
C148   C     0.08739   0.68408   0.36340   0.00000  Uiso   1.00
C149   C     0.13431   0.65549   0.39079   0.00000  Uiso   1.00
C150   C     0.11908   0.69937   0.45754   0.00000  Uiso   1.00
C151   C     0.11823   0.74858   0.56343   0.00000  Uiso   1.00
C152   C     0.98333   0.77429   0.36133   0.00000  Uiso   1.00
C153   C     0.03494   0.76637   0.29823   0.00000  Uiso   1.00
C154   C     0.02601   0.82069   0.27826   0.00000  Uiso   1.00
C155   C     0.07928   0.80258   0.21893   0.00000  Uiso   1.00
C156   C     0.96336   0.71426   0.33656   0.00000  Uiso   1.00
C157   C     0.89423   0.72477   0.34881   0.00000  Uiso   1.00
C158   C     0.88723   0.66280   0.32176   0.00000  Uiso   1.00
C159   C     0.02738   0.75402   0.40133   0.00000  Uiso   1.00
C160   C     0.01207   0.79795   0.46805   0.00000  Uiso   1.00
C161   C     0.05896   0.76943   0.49554   0.00000  Uiso   1.00
H162   H     0.14052   0.59109   0.26196   0.00000  Uiso   1.00
H163   H     0.19467   0.62411   0.17165   0.00000  Uiso   1.00
H164   H     0.06292   0.52821   0.24220   0.00000  Uiso   1.00
H165   H     0.18074   0.60137   0.36142   0.00000  Uiso   1.00
H166   H     0.22823   0.69155   0.08824   0.00000  Uiso   1.00
H167   H     0.95042   0.48933   0.23702   0.00000  Uiso   1.00
H168   H     0.19886   0.64361   0.48842   0.00000  Uiso   1.00
H169   H     0.93660   0.82874   0.39086   0.00000  Uiso   1.00
H170   H     0.97956   0.87481   0.30762   0.00000  Uiso   1.00
H171   H     0.84781   0.77890   0.37817   0.00000  Uiso   1.00
H172   H     0.96563   0.85206   0.49739   0.00000  Uiso   1.00
H173   H     0.05364   0.89502   0.19859   0.00000  Uiso   1.00
H174   H     0.77582   0.69280   0.34738   0.00000  Uiso   1.00
H175   H     0.02427   0.84708   0.59878   0.00000  Uiso   1.00
O176   O     0.17287   0.81929   0.08632   0.00000  Uiso   1.00
O177   O     0.80838   0.55399   0.28153   0.00000  Uiso   1.00
O178   O     0.13434   0.75640   0.61136   0.00000  Uiso   1.00
N179   N     0.18125   0.73312   0.12564   0.00000  Uiso   1.00
N180   N     0.92151   0.54406   0.26474   0.00000  Uiso   1.00
N181   N     0.15378   0.68829   0.49978   0.00000  Uiso   1.00
N182   N     0.08731   0.84261   0.18502   0.00000  Uiso   1.00
N183   N     0.82757   0.65355   0.32412   0.00000  Uiso   1.00
N184   N     0.05983   0.79778   0.55916   0.00000  Uiso   1.00
C185   C     0.59430   0.36346   0.74680   0.00000  Uiso   1.00
C186   C     0.62123   0.30616   0.67398   0.00000  Uiso   1.00
C187   C     0.57858   0.29511   0.63967   0.00000  Uiso   1.00
C188   C     0.61349   0.23993   0.57331   0.00000  Uiso   1.00
C189   C     0.64392   0.15746   0.46492   0.00000  Uiso   1.00
C190   C     0.63181   0.40892   0.74380   0.00000  Uiso   1.00
C191   C     0.59804   0.48427   0.76819   0.00000  Uiso   1.00
C192   C     0.64186   0.51559   0.76062   0.00000  Uiso   1.00
C193   C     0.68871   0.59266   0.76066   0.00000  Uiso   1.00
C194   C     0.62434   0.32159   0.78369   0.00000  Uiso   1.00
C195   C     0.58430   0.32353   0.84164   0.00000  Uiso   1.00
C196   C     0.62183   0.28133   0.86765   0.00000  Uiso   1.00
C197   C     0.65707   0.22282   0.92964   0.00000  Uiso   1.00
C198   C     0.73215   0.28509   0.68998   0.00000  Uiso   1.00
C199   C     0.69611   0.26360   0.64312   0.00000  Uiso   1.00
C200   C     0.73110   0.20841   0.57680   0.00000  Uiso   1.00
C201   C     0.68850   0.19728   0.54239   0.00000  Uiso   1.00
C202   C     0.70668   0.36636   0.71294   0.00000  Uiso   1.00
C203   C     0.75056   0.39757   0.70533   0.00000  Uiso   1.00
C204   C     0.71687   0.47295   0.72970   0.00000  Uiso   1.00
C205   C     0.69921   0.27902   0.75283   0.00000  Uiso   1.00
C206   C     0.73681   0.23682   0.77876   0.00000  Uiso   1.00
C207   C     0.69684   0.23869   0.83674   0.00000  Uiso   1.00
H208   H     0.53601   0.39660   0.77083   0.00000  Uiso   1.00
H209   H     0.52063   0.32807   0.66357   0.00000  Uiso   1.00
H210   H     0.54010   0.51720   0.79208   0.00000  Uiso   1.00
H211   H     0.52635   0.35648   0.86551   0.00000  Uiso   1.00
H212   H     0.53661   0.23334   0.53102   0.00000  Uiso   1.00
H213   H     0.57765   0.63213   0.80202   0.00000  Uiso   1.00
H214   H     0.54867   0.29322   0.95686   0.00000  Uiso   1.00
H215   H     0.79045   0.25195   0.66595   0.00000  Uiso   1.00
H216   H     0.78904   0.17548   0.55293   0.00000  Uiso   1.00
H217   H     0.80850   0.36461   0.68144   0.00000  Uiso   1.00
H218   H     0.79476   0.20389   0.75487   0.00000  Uiso   1.00
H219   H     0.75446   0.10949   0.44122   0.00000  Uiso   1.00
H220   H     0.79550   0.50829   0.71223   0.00000  Uiso   1.00
H221   H     0.76652   0.16937   0.86706   0.00000  Uiso   1.00
O222   O     0.64002   0.12374   0.41366   0.00000  Uiso   1.00
O223   O     0.69386   0.64694   0.76921   0.00000  Uiso   1.00
O224   O     0.65583   0.20229   0.97235   0.00000  Uiso   1.00
N225   N     0.58807   0.21468   0.52540   0.00000  Uiso   1.00
N226   N     0.62644   0.58752   0.77876   0.00000  Uiso   1.00
N227   N     0.59935   0.27068   0.92353   0.00000  Uiso   1.00
N228   N     0.70530   0.14803   0.47708   0.00000  Uiso   1.00
N229   N     0.74366   0.52088   0.73044   0.00000  Uiso   1.00
N230   N     0.71657   0.20404   0.87521   0.00000  Uiso   1.00
C231   C     0.58833   0.90166   0.20773   0.00000  Uiso   1.00
C232   C     0.53369   0.93690   0.18197   0.00000  Uiso   1.00
C233   C     0.53459   0.98420   0.15477   0.00000  Uiso   1.00
C234   C     0.47981   0.01054   0.13412   0.00000  Uiso   1.00
C235   C     0.40316   0.06832   0.09313   0.00000  Uiso   1.00
C236   C     0.61810   0.81934   0.16832   0.00000  Uiso   1.00
C237   C     0.68996   0.76780   0.12966   0.00000  Uiso   1.00
C238   C     0.70623   0.69519   0.09751   0.00000  Uiso   1.00
C239   C     0.76062   0.57045   0.03537   0.00000  Uiso   1.00
C240   C     0.54547   0.92315   0.28088   0.00000  Uiso   1.00
C241   C     0.55627   0.95887   0.33687   0.00000  Uiso   1.00
C242   C     0.51141   0.97364   0.39950   0.00000  Uiso   1.00
C243   C     0.45303   0.01008   0.51213   0.00000  Uiso   1.00
C244   C     0.48947   0.86433   0.21940   0.00000  Uiso   1.00
C245   C     0.48000   0.91662   0.18831   0.00000  Uiso   1.00
C246   C     0.42521   0.94290   0.16769   0.00000  Uiso   1.00
C247   C     0.42602   0.99024   0.14047   0.00000  Uiso   1.00
C248   C     0.56440   0.79907   0.17466   0.00000  Uiso   1.00
C249   C     0.58058   0.72651   0.14257   0.00000  Uiso   1.00
C250   C     0.65244   0.67488   0.10387   0.00000  Uiso   1.00
C251   C     0.49177   0.90288   0.28723   0.00000  Uiso   1.00
C252   C     0.44689   0.91758   0.34978   0.00000  Uiso   1.00
C253   C     0.45762   0.95333   0.40585   0.00000  Uiso   1.00
H254   H     0.63014   0.91744   0.20279   0.00000  Uiso   1.00
H255   H     0.57616   0.99987   0.14987   0.00000  Uiso   1.00
H256   H     0.73150   0.78351   0.12476   0.00000  Uiso   1.00
H257   H     0.59783   0.97455   0.33194   0.00000  Uiso   1.00
H258   H     0.49263   0.08230   0.09397   0.00000  Uiso   1.00
H259   H     0.82019   0.62609   0.04105   0.00000  Uiso   1.00
H260   H     0.53832   0.02894   0.47793   0.00000  Uiso   1.00
H261   H     0.44767   0.84854   0.22434   0.00000  Uiso   1.00
H262   H     0.38366   0.92720   0.17260   0.00000  Uiso   1.00
H263   H     0.53901   0.71084   0.14750   0.00000  Uiso   1.00
H264   H     0.40534   0.90188   0.35467   0.00000  Uiso   1.00
H265   H     0.33640   0.02332   0.11242   0.00000  Uiso   1.00
H266   H     0.66396   0.56710   0.05950   0.00000  Uiso   1.00
H267   H     0.38209   0.96996   0.49638   0.00000  Uiso   1.00
O268   O     0.37572   0.10578   0.06876   0.00000  Uiso   1.00
O269   O     0.80546   0.50725   0.99934   0.00000  Uiso   1.00
O270   O     0.43566   0.03578   0.57251   0.00000  Uiso   1.00
N271   N     0.46464   0.05764   0.10543   0.00000  Uiso   1.00
N272   N     0.77088   0.63111   0.05594   0.00000  Uiso   1.00
N273   N     0.50738   0.00772   0.46438   0.00000  Uiso   1.00
N274   N     0.38057   0.02590   0.11536   0.00000  Uiso   1.00
N275   N     0.68681   0.59937   0.06587   0.00000  Uiso   1.00
N276   N     0.42331   0.97599   0.47431   0.00000  Uiso   1.00
C277   C     0.40901   0.61033   0.67527   0.00000  Uiso   1.00
C278   C     0.38272   0.62635   0.74932   0.00000  Uiso   1.00
C279   C     0.35331   0.59045   0.77561   0.00000  Uiso   1.00
C280   C     0.33255   0.61319   0.84470   0.00000  Uiso   1.00
C281   C     0.29048   0.62943   0.95340   0.00000  Uiso   1.00
C282   C     0.48704   0.59362   0.65401   0.00000  Uiso   1.00
C283   C     0.54535   0.53021   0.60015   0.00000  Uiso   1.00
C284   C     0.61241   0.52539   0.58900   0.00000  Uiso   1.00
C285   C     0.73229   0.49084   0.54969   0.00000  Uiso   1.00
C286   C     0.36786   0.68243   0.67452   0.00000  Uiso   1.00
C287   C     0.32597   0.69369   0.63790   0.00000  Uiso   1.00
C288   C     0.29270   0.76365   0.64400   0.00000  Uiso   1.00
C289   C     0.22753   0.86699   0.63654   0.00000  Uiso   1.00
C290   C     0.42443   0.71455   0.75121   0.00000  Uiso   1.00
C291   C     0.39109   0.68296   0.79057   0.00000  Uiso   1.00
C292   C     0.37037   0.70576   0.85963   0.00000  Uiso   1.00
C293   C     0.34094   0.66990   0.88602   0.00000  Uiso   1.00
C294   C     0.49541   0.65023   0.69525   0.00000  Uiso   1.00
C295   C     0.56240   0.64551   0.68417   0.00000  Uiso   1.00
C296   C     0.62080   0.58210   0.63032   0.00000  Uiso   1.00
C297   C     0.37623   0.73904   0.71577   0.00000  Uiso   1.00
C298   C     0.34302   0.80899   0.72192   0.00000  Uiso   1.00
C299   C     0.30109   0.82035   0.68532   0.00000  Uiso   1.00
H300   H     0.40250   0.56626   0.64315   0.00000  Uiso   1.00
H301   H     0.34685   0.54664   0.74367   0.00000  Uiso   1.00
H302   H     0.53885   0.48641   0.56824   0.00000  Uiso   1.00
H303   H     0.31950   0.64987   0.60598   0.00000  Uiso   1.00
H304   H     0.28886   0.54984   0.87330   0.00000  Uiso   1.00
H305   H     0.69371   0.42285   0.50337   0.00000  Uiso   1.00
H306   H     0.23118   0.76753   0.58296   0.00000  Uiso   1.00
H307   H     0.43095   0.75862   0.78332   0.00000  Uiso   1.00
H308   H     0.37685   0.74957   0.89154   0.00000  Uiso   1.00
H309   H     0.56886   0.68933   0.71610   0.00000  Uiso   1.00
H310   H     0.34951   0.85279   0.75384   0.00000  Uiso   1.00
H311   H     0.31322   0.71454   0.99331   0.00000  Uiso   1.00
H312   H     0.71807   0.58755   0.62338   0.00000  Uiso   1.00
H313   H     0.25553   0.93223   0.70297   0.00000  Uiso   1.00
O314   O     0.26497   0.62274   0.00196   0.00000  Uiso   1.00
O315   O     0.79610   0.45614   0.51662   0.00000  Uiso   1.00
O316   O     0.18927   0.90835   0.62104   0.00000  Uiso   1.00
N317   N     0.30201   0.58986   0.88670   0.00000  Uiso   1.00
N318   N     0.68052   0.47112   0.54084   0.00000  Uiso   1.00
N319   N     0.24810   0.79336   0.61524   0.00000  Uiso   1.00
N320   N     0.31511   0.67848   0.95128   0.00000  Uiso   1.00
N321   N     0.69362   0.55974   0.60542   0.00000  Uiso   1.00
N322   N     0.26121   0.88199   0.67981   0.00000  Uiso   1.00
C323   C     0.20988   0.21315   0.88927   0.00000  Uiso   1.00
C324   C     0.20130   0.17945   0.93689   0.00000  Uiso   1.00
C325   C     0.24449   0.16345   0.97147   0.00000  Uiso   1.00
C326   C     0.22781   0.13278   0.01259   0.00000  Uiso   1.00
C327   C     0.22327   0.08264   0.08561   0.00000  Uiso   1.00
C328   C     0.13823   0.28202   0.91693   0.00000  Uiso   1.00
C329   C     0.12841   0.35226   0.93471   0.00000  Uiso   1.00
C330   C     0.05865   0.40793   0.95903   0.00000  Uiso   1.00
C331   C     0.95620   0.51702   0.00100   0.00000  Uiso   1.00
C332   C     0.21715   0.16016   0.82192   0.00000  Uiso   1.00
C333   C     0.27367   0.12795   0.75980   0.00000  Uiso   1.00
C334   C     0.27034   0.08103   0.70411   0.00000  Uiso   1.00
C335   C     0.29042   0.00091   0.59857   0.00000  Uiso   1.00
C336   C     0.10344   0.18713   0.90083   0.00000  Uiso   1.00
C337   C     0.14348   0.16532   0.94317   0.00000  Uiso   1.00
C338   C     0.12673   0.13466   0.98425   0.00000  Uiso   1.00
C339   C     0.16990   0.11862   0.01888   0.00000  Uiso   1.00
C340   C     0.08042   0.26789   0.92321   0.00000  Uiso   1.00
C341   C     0.01065   0.32347   0.94750   0.00000  Uiso   1.00
C342   C     0.00073   0.39377   0.96532   0.00000  Uiso   1.00
C343   C     0.15934   0.14603   0.82819   0.00000  Uiso   1.00
C344   C     0.15591   0.09916   0.77259   0.00000  Uiso   1.00
C345   C     0.21242   0.06688   0.71040   0.00000  Uiso   1.00
H346   H     0.25488   0.22416   0.88439   0.00000  Uiso   1.00
H347   H     0.28922   0.17440   0.96660   0.00000  Uiso   1.00
H348   H     0.17316   0.36318   0.92984   0.00000  Uiso   1.00
H349   H     0.31840   0.13890   0.75496   0.00000  Uiso   1.00
H350   H     0.30179   0.11303   0.06054   0.00000  Uiso   1.00
H351   H     0.05707   0.51106   0.98301   0.00000  Uiso   1.00
H352   H     0.36333   0.03813   0.61424   0.00000  Uiso   1.00
H353   H     0.05843   0.17613   0.90572   0.00000  Uiso   1.00
H354   H     0.08199   0.12374   0.98910   0.00000  Uiso   1.00
H355   H     0.96593   0.31251   0.95235   0.00000  Uiso   1.00
H356   H     0.11117   0.08824   0.77747   0.00000  Uiso   1.00
H357   H     0.13359   0.07191   0.07881   0.00000  Uiso   1.00
H358   H     0.88887   0.46995   0.00127   0.00000  Uiso   1.00
H359   H     0.19513   0.99701   0.63251   0.00000  Uiso   1.00
O360   O     0.23672   0.05889   0.12416   0.00000  Uiso   1.00
O361   O     0.91566   0.58109   0.02243   0.00000  Uiso   1.00
O362   O     0.31747   0.96062   0.53862   0.00000  Uiso   1.00
N363   N     0.25898   0.11053   0.05338   0.00000  Uiso   1.00
N364   N     0.03018   0.48267   0.98091   0.00000  Uiso   1.00
N365   N     0.31650   0.04053   0.63614   0.00000  Uiso   1.00
N366   N     0.16847   0.08840   0.06321   0.00000  Uiso   1.00
N367   N     0.93967   0.46054   0.99074   0.00000  Uiso   1.00
N368   N     0.22599   0.01841   0.64596   0.00000  Uiso   1.00
C369   C     0.71855   0.97091   0.97987   0.00000  Uiso   1.00
C370   C     0.74783   0.98246   0.03471   0.00000  Uiso   1.00
C371   C     0.71774   0.04643   0.09458   0.00000  Uiso   1.00
C372   C     0.75264   0.04598   0.13817   0.00000  Uiso   1.00
C373   C     0.78855   0.07336   0.22574   0.00000  Uiso   1.00
C374   C     0.70760   0.90478   0.97047   0.00000  Uiso   1.00
C375   C     0.64368   0.90343   0.97631   0.00000  Uiso   1.00
C376   C     0.64472   0.83757   0.96582   0.00000  Uiso   1.00
C377   C     0.61817   0.74434   0.95359   0.00000  Uiso   1.00
C378   C     0.77936   0.94699   0.91454   0.00000  Uiso   1.00
C379   C     0.77578   0.98113   0.87335   0.00000  Uiso   1.00
C380   C     0.83723   0.95081   0.81575   0.00000  Uiso   1.00
C381   C     0.92210   0.92312   0.71669   0.00000  Uiso   1.00
C382   C     0.83404   0.85635   0.95083   0.00000  Uiso   1.00
C383   C     0.81056   0.92024   0.01893   0.00000  Uiso   1.00
C384   C     0.84552   0.91969   0.06244   0.00000  Uiso   1.00
C385   C     0.81549   0.98364   0.12237   0.00000  Uiso   1.00
C386   C     0.77033   0.84255   0.95469   0.00000  Uiso   1.00
C387   C     0.77146   0.77668   0.94418   0.00000  Uiso   1.00
C388   C     0.70756   0.77524   0.95001   0.00000  Uiso   1.00
C389   C     0.84209   0.88477   0.89876   0.00000  Uiso   1.00
C390   C     0.90356   0.85439   0.84122   0.00000  Uiso   1.00
C391   C     0.90007   0.88847   0.79995   0.00000  Uiso   1.00
H392   H     0.66971   0.01935   0.99216   0.00000  Uiso   1.00
H393   H     0.66919   0.09457   0.10677   0.00000  Uiso   1.00
H394   H     0.59514   0.95159   0.98852   0.00000  Uiso   1.00
H395   H     0.72722   0.02928   0.88557   0.00000  Uiso   1.00
H396   H     0.69627   0.15051   0.22690   0.00000  Uiso   1.00
H397   H     0.54014   0.84902   0.97753   0.00000  Uiso   1.00
H398   H     0.81865   0.01285   0.76045   0.00000  Uiso   1.00
H399   H     0.88289   0.80791   0.93854   0.00000  Uiso   1.00
H400   H     0.89407   0.87152   0.05022   0.00000  Uiso   1.00
H401   H     0.82002   0.72854   0.93197   0.00000  Uiso   1.00
H402   H     0.95209   0.80623   0.82902   0.00000  Uiso   1.00
H403   H     0.87879   0.96948   0.18100   0.00000  Uiso   1.00
H404   H     0.72266   0.66798   0.93163   0.00000  Uiso   1.00
H405   H     0.00117   0.83181   0.71455   0.00000  Uiso   1.00
O406   O     0.79102   0.10565   0.27840   0.00000  Uiso   1.00
O407   O     0.58620   0.71010   0.95122   0.00000  Uiso   1.00
O408   O     0.95159   0.92504   0.66642   0.00000  Uiso   1.00
N409   N     0.73770   0.09918   0.20077   0.00000  Uiso   1.00
N410   N     0.59173   0.81731   0.96763   0.00000  Uiso   1.00
N411   N     0.85210   0.97046   0.76467   0.00000  Uiso   1.00
N412   N     0.83591   0.00177   0.17607   0.00000  Uiso   1.00
N413   N     0.68994   0.71989   0.94294   0.00000  Uiso   1.00
N414   N     0.95031   0.87305   0.73997   0.00000  Uiso   1.00
C415   C     0.99802   0.37534   0.36712   0.00000  Uiso   1.00
C416   C     0.02301   0.30141   0.36733   0.00000  Uiso   1.00
C417   C     0.98780   0.28729   0.41559   0.00000  Uiso   1.00
C418   C     0.01939   0.21605   0.40676   0.00000  Uiso   1.00
C419   C     0.04840   0.10965   0.41549   0.00000  Uiso   1.00
C420   C     0.05971   0.39222   0.36529   0.00000  Uiso   1.00
C421   C     0.05537   0.45444   0.41185   0.00000  Uiso   1.00
C422   C     0.11785   0.45964   0.40130   0.00000  Uiso   1.00
C423   C     0.20384   0.49424   0.40685   0.00000  Uiso   1.00
C424   C     0.99267   0.36290   0.29917   0.00000  Uiso   1.00
C425   C     0.93197   0.40049   0.29011   0.00000  Uiso   1.00
C426   C     0.93801   0.38103   0.22389   0.00000  Uiso   1.00
C427   C     0.91991   0.37012   0.12676   0.00000  Uiso   1.00
C428   C     0.11671   0.27395   0.26560   0.00000  Uiso   1.00
C429   C     0.08748   0.24635   0.31219   0.00000  Uiso   1.00
C430   C     0.11912   0.17512   0.30328   0.00000  Uiso   1.00
C431   C     0.08397   0.16088   0.35152   0.00000  Uiso   1.00
C432   C     0.12418   0.33715   0.31016   0.00000  Uiso   1.00
C433   C     0.18668   0.34227   0.29953   0.00000  Uiso   1.00
C434   C     0.18243   0.40448   0.34606   0.00000  Uiso   1.00
C435   C     0.05714   0.30784   0.24403   0.00000  Uiso   1.00
C436   C     0.06328   0.28832   0.17780   0.00000  Uiso   1.00
C437   C     0.00259   0.32587   0.16865   0.00000  Uiso   1.00
H438   H     0.94783   0.41821   0.41004   0.00000  Uiso   1.00
H439   H     0.93792   0.32992   0.45826   0.00000  Uiso   1.00
H440   H     0.00547   0.49704   0.45451   0.00000  Uiso   1.00
H441   H     0.88209   0.44310   0.33279   0.00000  Uiso   1.00
H442   H     0.95537   0.20775   0.48741   0.00000  Uiso   1.00
H443   H     0.09780   0.56016   0.47949   0.00000  Uiso   1.00
H444   H     0.83763   0.44642   0.22283   0.00000  Uiso   1.00
H445   H     0.16690   0.23108   0.22267   0.00000  Uiso   1.00
H446   H     0.16901   0.13252   0.26060   0.00000  Uiso   1.00
H447   H     0.23656   0.29965   0.25686   0.00000  Uiso   1.00
H448   H     0.11318   0.24571   0.13514   0.00000  Uiso   1.00
H449   H     0.14294   0.04753   0.32699   0.00000  Uiso   1.00
H450   H     0.28536   0.39995   0.31907   0.00000  Uiso   1.00
H451   H     0.02519   0.28620   0.06241   0.00000  Uiso   1.00
O452   O     0.04660   0.06618   0.43555   0.00000  Uiso   1.00
O453   O     0.23346   0.52854   0.42515   0.00000  Uiso   1.00
O454   O     0.89211   0.37931   0.08842   0.00000  Uiso   1.00
N455   N     0.99922   0.18357   0.44444   0.00000  Uiso   1.00
N456   N     0.13239   0.51304   0.43704   0.00000  Uiso   1.00
N457   N     0.88915   0.40672   0.19709   0.00000  Uiso   1.00
N458   N     0.10014   0.09735   0.35812   0.00000  Uiso   1.00
N459   N     0.23331   0.42683   0.35072   0.00000  Uiso   1.00
N460   N     0.99007   0.32051   0.11077   0.00000  Uiso   1.00
C461   C     0.57277   0.52348   0.14367   0.00000  Uiso   1.00
C462   C     0.57690   0.57938   0.20111   0.00000  Uiso   1.00
C463   C     0.63832   0.57135   0.21257   0.00000  Uiso   1.00
C464   C     0.63093   0.62872   0.26784   0.00000  Uiso   1.00
C465   C     0.64744   0.70591   0.35063   0.00000  Uiso   1.00
C466   C     0.51621   0.50734   0.17729   0.00000  Uiso   1.00
C467   C     0.52660   0.43875   0.16871   0.00000  Uiso   1.00
C468   C     0.46811   0.43548   0.20392   0.00000  Uiso   1.00
C469   C     0.39038   0.40081   0.24968   0.00000  Uiso   1.00
C470   C     0.54137   0.56331   0.10591   0.00000  Uiso   1.00
C471   C     0.57290   0.54177   0.03731   0.00000  Uiso   1.00
C472   C     0.53558   0.58562   0.01242   0.00000  Uiso   1.00
C473   C     0.49691   0.63786   0.94735   0.00000  Uiso   1.00
C474   C     0.45042   0.63963   0.22143   0.00000  Uiso   1.00
C475   C     0.51044   0.64247   0.24335   0.00000  Uiso   1.00
C476   C     0.50296   0.69987   0.29861   0.00000  Uiso   1.00
C477   C     0.56436   0.69193   0.31016   0.00000  Uiso   1.00
C478   C     0.44975   0.57043   0.21952   0.00000  Uiso   1.00
C479   C     0.39123   0.56726   0.25475   0.00000  Uiso   1.00
C480   C     0.40153   0.49868   0.24624   0.00000  Uiso   1.00
C481   C     0.47491   0.62641   0.14814   0.00000  Uiso   1.00
C482   C     0.43753   0.67029   0.12335   0.00000  Uiso   1.00
C483   C     0.46900   0.64882   0.05473   0.00000  Uiso   1.00
H484   H     0.62451   0.47436   0.11078   0.00000  Uiso   1.00
H485   H     0.68974   0.52252   0.17988   0.00000  Uiso   1.00
H486   H     0.57803   0.38993   0.13602   0.00000  Uiso   1.00
H487   H     0.62433   0.49295   0.00464   0.00000  Uiso   1.00
H488   H     0.73275   0.60372   0.27512   0.00000  Uiso   1.00
H489   H     0.49720   0.32416   0.18262   0.00000  Uiso   1.00
H490   H     0.59482   0.54138   0.90559   0.00000  Uiso   1.00
H491   H     0.39868   0.68875   0.25432   0.00000  Uiso   1.00
H492   H     0.45152   0.74868   0.33129   0.00000  Uiso   1.00
H493   H     0.33981   0.61609   0.28743   0.00000  Uiso   1.00
H494   H     0.38610   0.71911   0.15605   0.00000  Uiso   1.00
H495   H     0.53940   0.78729   0.39802   0.00000  Uiso   1.00
H496   H     0.30384   0.50772   0.30551   0.00000  Uiso   1.00
H497   H     0.40147   0.72494   0.02848   0.00000  Uiso   1.00
O498   O     0.67491   0.73105   0.38463   0.00000  Uiso   1.00
O499   O     0.36586   0.36426   0.26326   0.00000  Uiso   1.00
O500   O     0.49395   0.64926   0.89980   0.00000  Uiso   1.00
N501   N     0.68000   0.63871   0.29348   0.00000  Uiso   1.00
N502   N     0.45977   0.37733   0.20700   0.00000  Uiso   1.00
N503   N     0.55103   0.58040   0.94799   0.00000  Uiso   1.00
N504   N     0.57596   0.73748   0.35960   0.00000  Uiso   1.00
N505   N     0.35573   0.47610   0.27313   0.00000  Uiso   1.00
N506   N     0.44699   0.67918   0.01412   0.00000  Uiso   1.00
C507   C     0.66403   0.90551   0.52438   0.00000  Uiso   1.00
C508   C     0.72025   0.85760   0.54149   0.00000  Uiso   1.00
C509   C     0.71902   0.80241   0.55692   0.00000  Uiso   1.00
C510   C     0.77544   0.76488   0.57113   0.00000  Uiso   1.00
C511   C     0.85427   0.68791   0.59790   0.00000  Uiso   1.00
C512   C     0.63751   0.98434   0.57484   0.00000  Uiso   1.00
C513   C     0.56669   0.03571   0.61830   0.00000  Uiso   1.00
C514   C     0.55346   0.10487   0.66058   0.00000  Uiso   1.00
C515   C     0.50381   0.22468   0.73909   0.00000  Uiso   1.00
C516   C     0.70449   0.89618   0.45533   0.00000  Uiso   1.00
C517   C     0.68999   0.87345   0.39831   0.00000  Uiso   1.00
C518   C     0.73315   0.86840   0.33998   0.00000  Uiso   1.00
C519   C     0.78751   0.85133   0.23294   0.00000  Uiso   1.00
C520   C     0.76643   0.93701   0.52219   0.00000  Uiso   1.00
C521   C     0.77587   0.87471   0.54029   0.00000  Uiso   1.00
C522   C     0.83231   0.83725   0.55448   0.00000  Uiso   1.00
C523   C     0.83116   0.78202   0.56993   0.00000  Uiso   1.00
C524   C     0.69312   0.00145   0.57365   0.00000  Uiso   1.00
C525   C     0.67999   0.07055   0.61587   0.00000  Uiso   1.00
C526   C     0.60918   0.12201   0.65939   0.00000  Uiso   1.00
C527   C     0.76011   0.91329   0.45413   0.00000  Uiso   1.00
C528   C     0.80330   0.90828   0.39588   0.00000  Uiso   1.00
C529   C     0.78887   0.88554   0.33878   0.00000  Uiso   1.00
H530   H     0.62072   0.89220   0.52532   0.00000  Uiso   1.00
H531   H     0.67596   0.78920   0.55784   0.00000  Uiso   1.00
H532   H     0.52366   0.02246   0.61921   0.00000  Uiso   1.00
H533   H     0.64695   0.86021   0.39925   0.00000  Uiso   1.00
H534   H     0.76172   0.68256   0.59340   0.00000  Uiso   1.00
H535   H     0.44059   0.17441   0.72278   0.00000  Uiso   1.00
H536   H     0.70056   0.83229   0.25896   0.00000  Uiso   1.00
H537   H     0.80973   0.95033   0.52126   0.00000  Uiso   1.00
H538   H     0.87535   0.85050   0.55356   0.00000  Uiso   1.00
H539   H     0.72305   0.08377   0.61493   0.00000  Uiso   1.00
H540   H     0.84633   0.92153   0.39497   0.00000  Uiso   1.00
H541   H     0.92355   0.73232   0.58993   0.00000  Uiso   1.00
H542   H     0.60241   0.22417   0.71931   0.00000  Uiso   1.00
H543   H     0.86239   0.88205   0.25549   0.00000  Uiso   1.00
O544   O     0.88237   0.64074   0.61301   0.00000  Uiso   1.00
O545   O     0.46106   0.28603   0.78274   0.00000  Uiso   1.00
O546   O     0.80213   0.83718   0.17422   0.00000  Uiso   1.00
N547   N     0.79081   0.70796   0.58813   0.00000  Uiso   1.00
N548   N     0.49057   0.16781   0.70911   0.00000  Uiso   1.00
N549   N     0.73361   0.84797   0.27548   0.00000  Uiso   1.00
N550   N     0.87789   0.73473   0.58627   0.00000  Uiso   1.00
N551   N     0.57765   0.19458   0.70724   0.00000  Uiso   1.00
N552   N     0.82069   0.87475   0.27361   0.00000  Uiso   1.00
