data_job_06502
_audit_creation_date              2018-12-19
_audit_creation_method            'Materials Studio'
_symmetry_space_group_name_H-M    'P1'
_symmetry_Int_Tables_number       1
_symmetry_cell_setting            triclinic
loop_
_symmetry_equiv_pos_as_xyz
  x,y,z
_cell_length_a                    19.9324
_cell_length_b                    20.4302
_cell_length_c                    19.4603
_cell_angle_alpha                 96.7321
_cell_angle_beta                  95.2091
_cell_angle_gamma                 94.0815
loop_
_atom_site_label
_atom_site_type_symbol
_atom_site_fract_x
_atom_site_fract_y
_atom_site_fract_z
_atom_site_U_iso_or_equiv
_atom_site_adp_type
_atom_site_occupancy
C1     C     0.84047   0.60989   0.18267   0.00000  Uiso   1.00
C2     C     0.78591   0.56227   0.20391   0.00000  Uiso   1.00
C3     C     0.73655   0.57932   0.24710   0.00000  Uiso   1.00
C4     C     0.69129   0.52852   0.26024   0.00000  Uiso   1.00
C5     C     0.60599   0.46452   0.29767   0.00000  Uiso   1.00
C6     C     0.90779   0.58328   0.20409   0.00000  Uiso   1.00
C7     C     0.96091   0.61801   0.24742   0.00000  Uiso   1.00
C8     C     0.01824   0.58489   0.26071   0.00000  Uiso   1.00
C9     C     0.12217   0.55354   0.29838   0.00000  Uiso   1.00
C10    C     0.83276   0.60152   0.10338   0.00000  Uiso   1.00
C11    C     0.82281   0.65159   0.06202   0.00000  Uiso   1.00
C12    C     0.81699   0.63384   0.99051   0.00000  Uiso   1.00
C13    C     0.80443   0.63081   0.87181   0.00000  Uiso   1.00
C14    C     0.84784   0.48935   0.12920   0.00000  Uiso   1.00
C15    C     0.78992   0.49679   0.17487   0.00000  Uiso   1.00
C16    C     0.74471   0.44595   0.18795   0.00000  Uiso   1.00
C17    C     0.69530   0.46292   0.23115   0.00000  Uiso   1.00
C18    C     0.91179   0.51781   0.17505   0.00000  Uiso   1.00
C19    C     0.96906   0.48464   0.18827   0.00000  Uiso   1.00
C20    C     0.02225   0.51930   0.23162   0.00000  Uiso   1.00
C21    C     0.83676   0.53605   0.07433   0.00000  Uiso   1.00
C22    C     0.83096   0.51822   0.00288   0.00000  Uiso   1.00
C23    C     0.82100   0.56825   0.96142   0.00000  Uiso   1.00
H24    H     0.83735   0.66087   0.20528   0.00000  Uiso   1.00
H25    H     0.73348   0.62999   0.26957   0.00000  Uiso   1.00
H26    H     0.95779   0.66868   0.26988   0.00000  Uiso   1.00
H27    H     0.81972   0.70225   0.08451   0.00000  Uiso   1.00
H28    H     0.62009   0.56689   0.32806   0.00000  Uiso   1.00
H29    H     0.09308   0.64846   0.32871   0.00000  Uiso   1.00
H30    H     0.80192   0.71926   0.93782   0.00000  Uiso   1.00
H31    H     0.85096   0.43837   0.10660   0.00000  Uiso   1.00
H32    H     0.74782   0.39529   0.16547   0.00000  Uiso   1.00
H33    H     0.97214   0.43397   0.16579   0.00000  Uiso   1.00
H34    H     0.83407   0.46755   0.98042   0.00000  Uiso   1.00
H35    H     0.63174   0.37639   0.24357   0.00000  Uiso   1.00
H36    H     0.10473   0.45796   0.24422   0.00000  Uiso   1.00
H37    H     0.81357   0.52877   0.85333   0.00000  Uiso   1.00
O38    O     0.55784   0.44731   0.32634   0.00000  Uiso   1.00
O39    O     0.17839   0.55433   0.32718   0.00000  Uiso   1.00
O40    O     0.79639   0.64723   0.81435   0.00000  Uiso   1.00
N41    N     0.63698   0.52797   0.30008   0.00000  Uiso   1.00
N42    N     0.07919   0.60423   0.30070   0.00000  Uiso   1.00
N43    N     0.80700   0.67043   0.93525   0.00000  Uiso   1.00
N44    N     0.64324   0.42546   0.25462   0.00000  Uiso   1.00
N45    N     0.08546   0.50172   0.25524   0.00000  Uiso   1.00
N46    N     0.81327   0.56793   0.88979   0.00000  Uiso   1.00
C47    C     0.16225   0.85347   0.77303   0.00000  Uiso   1.00
C48    C     0.18427   0.79177   0.73202   0.00000  Uiso   1.00
C49    C     0.23517   0.75394   0.75436   0.00000  Uiso   1.00
C50    C     0.24765   0.69936   0.70917   0.00000  Uiso   1.00
C51    C     0.28751   0.60602   0.65538   0.00000  Uiso   1.00
C52    C     0.16890   0.90838   0.72672   0.00000  Uiso   1.00
C53    C     0.20687   0.96859   0.74462   0.00000  Uiso   1.00
C54    C     0.20640   0.01217   0.69498   0.00000  Uiso   1.00
C55    C     0.22236   0.09989   0.63299   0.00000  Uiso   1.00
C56    C     0.08675   0.83997   0.77813   0.00000  Uiso   1.00
C57    C     0.05563   0.84268   0.83926   0.00000  Uiso   1.00
C58    C     0.98599   0.82869   0.83289   0.00000  Uiso   1.00
C59    C     0.87440   0.81018   0.85073   0.00000  Uiso   1.00
C60    C     0.09391   0.82384   0.65305   0.00000  Uiso   1.00
C61    C     0.14715   0.77568   0.66684   0.00000  Uiso   1.00
C62    C     0.15956   0.72115   0.62161   0.00000  Uiso   1.00
C63    C     0.21046   0.68323   0.64388   0.00000  Uiso   1.00
C64    C     0.13179   0.89228   0.66155   0.00000  Uiso   1.00
C65    C     0.13126   0.93579   0.61187   0.00000  Uiso   1.00
C66    C     0.16921   0.99605   0.62969   0.00000  Uiso   1.00
C67    C     0.04963   0.82387   0.71296   0.00000  Uiso   1.00
C68    C     0.98002   0.80988   0.70650   0.00000  Uiso   1.00
C69    C     0.94880   0.81256   0.76760   0.00000  Uiso   1.00
H70    H     0.19115   0.86601   0.82377   0.00000  Uiso   1.00
H71    H     0.26389   0.76641   0.80479   0.00000  Uiso   1.00
H72    H     0.23558   0.98103   0.79506   0.00000  Uiso   1.00
H73    H     0.08437   0.85514   0.88968   0.00000  Uiso   1.00
H74    H     0.32817   0.64891   0.75500   0.00000  Uiso   1.00
H75    H     0.26847   0.10145   0.73449   0.00000  Uiso   1.00
H76    H     0.94962   0.83598   0.93401   0.00000  Uiso   1.00
H77    H     0.06501   0.81131   0.60231   0.00000  Uiso   1.00
H78    H     0.13082   0.70870   0.57118   0.00000  Uiso   1.00
H79    H     0.10252   0.92332   0.56145   0.00000  Uiso   1.00
H80    H     0.95131   0.79743   0.65606   0.00000  Uiso   1.00
H81    H     0.22018   0.60207   0.56539   0.00000  Uiso   1.00
H82    H     0.16048   0.05461   0.54488   0.00000  Uiso   1.00
H83    H     0.84162   0.78914   0.74440   0.00000  Uiso   1.00
O84    O     0.31976   0.55899   0.64371   0.00000  Uiso   1.00
O85    O     0.24143   0.15271   0.61680   0.00000  Uiso   1.00
O86    O     0.82310   0.80441   0.87857   0.00000  Uiso   1.00
N87    N     0.29371   0.65196   0.71466   0.00000  Uiso   1.00
N88    N     0.23791   0.07505   0.69548   0.00000  Uiso   1.00
N89    N     0.93980   0.82687   0.88201   0.00000  Uiso   1.00
N90    N     0.23560   0.62675   0.61263   0.00000  Uiso   1.00
N91    N     0.17980   0.04985   0.59345   0.00000  Uiso   1.00
N92    N     0.88169   0.80167   0.77998   0.00000  Uiso   1.00
C93    C     0.70745   0.10618   0.96672   0.00000  Uiso   1.00
C94    C     0.67926   0.14150   0.90695   0.00000  Uiso   1.00
C95    C     0.71611   0.16539   0.85668   0.00000  Uiso   1.00
C96    C     0.68103   0.19623   0.80637   0.00000  Uiso   1.00
C97    C     0.64782   0.25009   0.71358   0.00000  Uiso   1.00
C98    C     0.68970   0.14568   0.03313   0.00000  Uiso   1.00
C99    C     0.73533   0.17306   0.08895   0.00000  Uiso   1.00
C100   C     0.70903   0.20741   0.14486   0.00000  Uiso   1.00
C101   C     0.69203   0.26771   0.24798   0.00000  Uiso   1.00
C102   C     0.66578   0.03979   0.96012   0.00000  Uiso   1.00
C103   C     0.69130   0.97815   0.95457   0.00000  Uiso   1.00
C104   C     0.64487   0.92334   0.94903   0.00000  Uiso   1.00
C105   C     0.59074   0.81924   0.93879   0.00000  Uiso   1.00
C106   C     0.57961   0.11848   0.96675   0.00000  Uiso   1.00
C107   C     0.60982   0.14818   0.90697   0.00000  Uiso   1.00
C108   C     0.57467   0.17899   0.85672   0.00000  Uiso   1.00
C109   C     0.61146   0.20292   0.80639   0.00000  Uiso   1.00
C110   C     0.62026   0.15236   0.03315   0.00000  Uiso   1.00
C111   C     0.59389   0.18667   0.08899   0.00000  Uiso   1.00
C112   C     0.63947   0.21410   0.14488   0.00000  Uiso   1.00
C113   C     0.59634   0.04647   0.96013   0.00000  Uiso   1.00
C114   C     0.54986   0.99175   0.95461   0.00000  Uiso   1.00
C115   C     0.57531   0.93003   0.94905   0.00000  Uiso   1.00
H116   H     0.76151   0.10098   0.96671   0.00000  Uiso   1.00
H117   H     0.76985   0.16022   0.85669   0.00000  Uiso   1.00
H118   H     0.78906   0.16788   0.08892   0.00000  Uiso   1.00
H119   H     0.74504   0.97300   0.95456   0.00000  Uiso   1.00
H120   H     0.74848   0.22885   0.73473   0.00000  Uiso   1.00
H121   H     0.78899   0.24499   0.22442   0.00000  Uiso   1.00
H122   H     0.69616   0.83404   0.94110   0.00000  Uiso   1.00
H123   H     0.52554   0.12368   0.96677   0.00000  Uiso   1.00
H124   H     0.52093   0.18416   0.85675   0.00000  Uiso   1.00
H125   H     0.54015   0.19182   0.08898   0.00000  Uiso   1.00
H126   H     0.49613   0.99694   0.95462   0.00000  Uiso   1.00
H127   H     0.54645   0.24829   0.73478   0.00000  Uiso   1.00
H128   H     0.58696   0.26443   0.22447   0.00000  Uiso   1.00
H129   H     0.49414   0.85348   0.94114   0.00000  Uiso   1.00
O130   O     0.64869   0.27796   0.66239   0.00000  Uiso   1.00
O131   O     0.70184   0.29913   0.30485   0.00000  Uiso   1.00
O132   O     0.58006   0.75997   0.93313   0.00000  Uiso   1.00
N133   N     0.70156   0.22511   0.74984   0.00000  Uiso   1.00
N134   N     0.73944   0.24021   0.20766   0.00000  Uiso   1.00
N135   N     0.65266   0.85601   0.94279   0.00000  Uiso   1.00
N136   N     0.59285   0.23557   0.74986   0.00000  Uiso   1.00
N137   N     0.63073   0.25067   0.20769   0.00000  Uiso   1.00
N138   N     0.54395   0.86647   0.94282   0.00000  Uiso   1.00
C139   C     0.42539   0.58869   0.28407   0.00000  Uiso   1.00
C140   C     0.36354   0.62639   0.26864   0.00000  Uiso   1.00
C141   C     0.31738   0.64441   0.31523   0.00000  Uiso   1.00
C142   C     0.26422   0.67873   0.29107   0.00000  Uiso   1.00
C143   C     0.16923   0.73492   0.27751   0.00000  Uiso   1.00
C144   C     0.48592   0.63187   0.26743   0.00000  Uiso   1.00
C145   C     0.54265   0.65449   0.31300   0.00000  Uiso   1.00
C146   C     0.59252   0.69341   0.28782   0.00000  Uiso   1.00
C147   C     0.68754   0.75806   0.27236   0.00000  Uiso   1.00
C148   C     0.41828   0.52761   0.22998   0.00000  Uiso   1.00
C149   C     0.41815   0.46256   0.24406   0.00000  Uiso   1.00
C150   C     0.41108   0.41370   0.18734   0.00000  Uiso   1.00
C151   C     0.40108   0.31647   0.11374   0.00000  Uiso   1.00
C152   C     0.41309   0.61758   0.15832   0.00000  Uiso   1.00
C153   C     0.35686   0.64208   0.20033   0.00000  Uiso   1.00
C154   C     0.30376   0.67638   0.17610   0.00000  Uiso   1.00
C155   C     0.25752   0.69445   0.22264   0.00000  Uiso   1.00
C156   C     0.47924   0.64756   0.19913   0.00000  Uiso   1.00
C157   C     0.52904   0.68645   0.17387   0.00000  Uiso   1.00
C158   C     0.58583   0.70913   0.21939   0.00000  Uiso   1.00
C159   C     0.41159   0.54330   0.16167   0.00000  Uiso   1.00
C160   C     0.40453   0.49453   0.10492   0.00000  Uiso   1.00
C161   C     0.40439   0.42942   0.11891   0.00000  Uiso   1.00
H162   H     0.43060   0.57647   0.33725   0.00000  Uiso   1.00
H163   H     0.32257   0.63227   0.36809   0.00000  Uiso   1.00
H164   H     0.54781   0.64233   0.36585   0.00000  Uiso   1.00
H165   H     0.42332   0.45044   0.29692   0.00000  Uiso   1.00
H166   H     0.19987   0.70107   0.37216   0.00000  Uiso   1.00
H167   H     0.67481   0.72227   0.36744   0.00000  Uiso   1.00
H168   H     0.41231   0.31762   0.22209   0.00000  Uiso   1.00
H169   H     0.40789   0.62980   0.10514   0.00000  Uiso   1.00
H170   H     0.29861   0.68852   0.12324   0.00000  Uiso   1.00
H171   H     0.52385   0.69858   0.12101   0.00000  Uiso   1.00
H172   H     0.39936   0.50669   0.05207   0.00000  Uiso   1.00
H173   H     0.18042   0.74673   0.17343   0.00000  Uiso   1.00
H174   H     0.65537   0.76793   0.16872   0.00000  Uiso   1.00
H175   H     0.39286   0.36328   0.02336   0.00000  Uiso   1.00
O176   O     0.11868   0.76158   0.28889   0.00000  Uiso   1.00
O177   O     0.74179   0.78939   0.28271   0.00000  Uiso   1.00
O178   O     0.39739   0.25850   0.09200   0.00000  Uiso   1.00
N179   N     0.21028   0.70374   0.32290   0.00000  Uiso   1.00
N180   N     0.65432   0.72358   0.31849   0.00000  Uiso   1.00
N181   N     0.40892   0.34526   0.18260   0.00000  Uiso   1.00
N182   N     0.19981   0.72831   0.21597   0.00000  Uiso   1.00
N183   N     0.64386   0.74815   0.21156   0.00000  Uiso   1.00
N184   N     0.39846   0.36983   0.07567   0.00000  Uiso   1.00
C185   C     0.62427   0.09515   0.39065   0.00000  Uiso   1.00
C186   C     0.65677   0.04697   0.34039   0.00000  Uiso   1.00
C187   C     0.67590   0.05912   0.27595   0.00000  Uiso   1.00
C188   C     0.70482   0.00869   0.23780   0.00000  Uiso   1.00
C189   C     0.75389   0.94308   0.15591   0.00000  Uiso   1.00
C190   C     0.66976   0.10310   0.45897   0.00000  Uiso   1.00
C191   C     0.69980   0.16244   0.49423   0.00000  Uiso   1.00
C192   C     0.73963   0.15926   0.55590   0.00000  Uiso   1.00
C193   C     0.80882   0.18080   0.65812   0.00000  Uiso   1.00
C194   C     0.55816   0.05921   0.40470   0.00000  Uiso   1.00
C195   C     0.49436   0.08165   0.39435   0.00000  Uiso   1.00
C196   C     0.44024   0.04152   0.41036   0.00000  Uiso   1.00
C197   C     0.33615   0.99490   0.42832   0.00000  Uiso   1.00
C198   C     0.64160   0.98399   0.43750   0.00000  Uiso   1.00
C199   C     0.66619   0.98659   0.36584   0.00000  Uiso   1.00
C200   C     0.69508   0.93613   0.32778   0.00000  Uiso   1.00
C201   C     0.71425   0.94820   0.26329   0.00000  Uiso   1.00
C202   C     0.67917   0.04273   0.48441   0.00000  Uiso   1.00
C203   C     0.71897   0.03946   0.54605   0.00000  Uiso   1.00
C204   C     0.74907   0.09878   0.58139   0.00000  Uiso   1.00
C205   C     0.56757   0.99883   0.43014   0.00000  Uiso   1.00
C206   C     0.51354   0.95866   0.44617   0.00000  Uiso   1.00
C207   C     0.44967   0.98104   0.43585   0.00000  Uiso   1.00
H208   H     0.61694   0.14216   0.37085   0.00000  Uiso   1.00
H209   H     0.66861   0.10585   0.25628   0.00000  Uiso   1.00
H210   H     0.69250   0.20916   0.47453   0.00000  Uiso   1.00
H211   H     0.48709   0.12837   0.37466   0.00000  Uiso   1.00
H212   H     0.73008   0.03898   0.14050   0.00000  Uiso   1.00
H213   H     0.78042   0.25681   0.60069   0.00000  Uiso   1.00
H214   H     0.34728   0.08647   0.39011   0.00000  Uiso   1.00
H215   H     0.64893   0.93698   0.45731   0.00000  Uiso   1.00
H216   H     0.70236   0.88942   0.34748   0.00000  Uiso   1.00
H217   H     0.72624   0.99272   0.56572   0.00000  Uiso   1.00
H218   H     0.52084   0.91194   0.46586   0.00000  Uiso   1.00
H219   H     0.75747   0.86332   0.21452   0.00000  Uiso   1.00
H220   H     0.80781   0.08115   0.67471   0.00000  Uiso   1.00
H221   H     0.37467   0.91080   0.46413   0.00000  Uiso   1.00
O222   O     0.77836   0.92357   0.10371   0.00000  Uiso   1.00
O223   O     0.84439   0.20935   0.70747   0.00000  Uiso   1.00
O224   O     0.27613   0.98586   0.43119   0.00000  Uiso   1.00
N225   N     0.72918   0.00416   0.17298   0.00000  Uiso   1.00
N226   N     0.77625   0.20782   0.60323   0.00000  Uiso   1.00
N227   N     0.37131   0.04857   0.40637   0.00000  Uiso   1.00
N228   N     0.74392   0.90964   0.21281   0.00000  Uiso   1.00
N229   N     0.79099   0.11329   0.64306   0.00000  Uiso   1.00
N230   N     0.38605   0.95404   0.44620   0.00000  Uiso   1.00
C231   C     0.19372   0.38963   0.70086   0.00000  Uiso   1.00
C232   C     0.16209   0.33314   0.73506   0.00000  Uiso   1.00
C233   C     0.19628   0.28323   0.76142   0.00000  Uiso   1.00
C234   C     0.15826   0.23613   0.79068   0.00000  Uiso   1.00
C235   C     0.11974   0.14801   0.84340   0.00000  Uiso   1.00
C236   C     0.17607   0.45325   0.74197   0.00000  Uiso   1.00
C237   C     0.22203   0.50432   0.77413   0.00000  Uiso   1.00
C238   C     0.19577   0.55833   0.80919   0.00000  Uiso   1.00
C239   C     0.17897   0.65670   0.87259   0.00000  Uiso   1.00
C240   C     0.15505   0.38602   0.62904   0.00000  Uiso   1.00
C241   C     0.18334   0.38059   0.56623   0.00000  Uiso   1.00
C242   C     0.13938   0.37801   0.50621   0.00000  Uiso   1.00
C243   C     0.08994   0.37200   0.39427   0.00000  Uiso   1.00
C244   C     0.06537   0.39476   0.70595   0.00000  Uiso   1.00
C245   C     0.09237   0.33593   0.73783   0.00000  Uiso   1.00
C246   C     0.05428   0.28889   0.76705   0.00000  Uiso   1.00
C247   C     0.08841   0.23891   0.79345   0.00000  Uiso   1.00
C248   C     0.10636   0.45603   0.74473   0.00000  Uiso   1.00
C249   C     0.08003   0.50998   0.77975   0.00000  Uiso   1.00
C250   C     0.12593   0.56112   0.81196   0.00000  Uiso   1.00
C251   C     0.08534   0.38880   0.63180   0.00000  Uiso   1.00
C252   C     0.04133   0.38625   0.57186   0.00000  Uiso   1.00
C253   C     0.06954   0.38080   0.50898   0.00000  Uiso   1.00
H254   H     0.24800   0.38747   0.69871   0.00000  Uiso   1.00
H255   H     0.25024   0.28109   0.75928   0.00000  Uiso   1.00
H256   H     0.27598   0.50215   0.77197   0.00000  Uiso   1.00
H257   H     0.23729   0.37843   0.56412   0.00000  Uiso   1.00
H258   H     0.22198   0.16439   0.82767   0.00000  Uiso   1.00
H259   H     0.27626   0.63052   0.85442   0.00000  Uiso   1.00
H260   H     0.19467   0.36964   0.41611   0.00000  Uiso   1.00
H261   H     0.01109   0.39692   0.70810   0.00000  Uiso   1.00
H262   H     0.00033   0.29106   0.76918   0.00000  Uiso   1.00
H263   H     0.02607   0.51212   0.78188   0.00000  Uiso   1.00
H264   H     0.98738   0.38840   0.57402   0.00000  Uiso   1.00
H265   H     0.01914   0.17248   0.83571   0.00000  Uiso   1.00
H266   H     0.07342   0.63861   0.86246   0.00000  Uiso   1.00
H267   H     0.99184   0.37773   0.42415   0.00000  Uiso   1.00
O268   O     0.11776   0.09864   0.87173   0.00000  Uiso   1.00
O269   O     0.18897   0.71019   0.90681   0.00000  Uiso   1.00
O270   O     0.08193   0.36791   0.33176   0.00000  Uiso   1.00
N271   N     0.17572   0.18082   0.82117   0.00000  Uiso   1.00
N272   N     0.22646   0.61662   0.84619   0.00000  Uiso   1.00
N273   N     0.15019   0.37273   0.43640   0.00000  Uiso   1.00
N274   N     0.06657   0.18517   0.82549   0.00000  Uiso   1.00
N275   N     0.11732   0.62097   0.85051   0.00000  Uiso   1.00
N276   N     0.04105   0.37708   0.44073   0.00000  Uiso   1.00
C277   C     0.20831   0.39541   0.98278   0.00000  Uiso   1.00
C278   C     0.26403   0.43991   0.95889   0.00000  Uiso   1.00
C279   C     0.31191   0.41932   0.91536   0.00000  Uiso   1.00
C280   C     0.35862   0.46766   0.89963   0.00000  Uiso   1.00
C281   C     0.44530   0.52665   0.85842   0.00000  Uiso   1.00
C282   C     0.14201   0.42388   0.96130   0.00000  Uiso   1.00
C283   C     0.08730   0.38981   0.91980   0.00000  Uiso   1.00
C284   C     0.03129   0.42466   0.90611   0.00000  Uiso   1.00
C285   C     0.92852   0.45874   0.86868   0.00000  Uiso   1.00
C286   C     0.21737   0.40636   0.06205   0.00000  Uiso   1.00
C287   C     0.22601   0.35756   0.10527   0.00000  Uiso   1.00
C288   C     0.23343   0.37765   0.17641   0.00000  Uiso   1.00
C289   C     0.24767   0.38453   0.29542   0.00000  Uiso   1.00
C290   C     0.20611   0.51788   0.03226   0.00000  Uiso   1.00
C291   C     0.26283   0.50643   0.98577   0.00000  Uiso   1.00
C292   C     0.30948   0.55482   0.97010   0.00000  Uiso   1.00
C293   C     0.35743   0.53430   0.92656   0.00000  Uiso   1.00
C294   C     0.14082   0.49040   0.98817   0.00000  Uiso   1.00
C295   C     0.08487   0.52530   0.97455   0.00000  Uiso   1.00
C296   C     0.03010   0.49130   0.93304   0.00000  Uiso   1.00
C297   C     0.21618   0.47288   0.08893   0.00000  Uiso   1.00
C298   C     0.22359   0.49305   0.16002   0.00000  Uiso   1.00
C299   C     0.23224   0.44429   0.20334   0.00000  Uiso   1.00
H300   H     0.20923   0.34362   0.96186   0.00000  Uiso   1.00
H301   H     0.31281   0.36784   0.89457   0.00000  Uiso   1.00
H302   H     0.08823   0.33833   0.89902   0.00000  Uiso   1.00
H303   H     0.22693   0.30609   0.08446   0.00000  Uiso   1.00
H304   H     0.42711   0.42402   0.83180   0.00000  Uiso   1.00
H305   H     0.95357   0.36180   0.84120   0.00000  Uiso   1.00
H306   H     0.24603   0.29380   0.23224   0.00000  Uiso   1.00
H307   H     0.20518   0.56967   0.05319   0.00000  Uiso   1.00
H308   H     0.30855   0.60629   0.99091   0.00000  Uiso   1.00
H309   H     0.08397   0.57678   0.99536   0.00000  Uiso   1.00
H310   H     0.22266   0.54453   0.18080   0.00000  Uiso   1.00
H311   H     0.42365   0.61756   0.90999   0.00000  Uiso   1.00
H312   H     0.95011   0.55533   0.91939   0.00000  Uiso   1.00
H313   H     0.24257   0.48734   0.31043   0.00000  Uiso   1.00
O314   O     0.49343   0.54081   0.82826   0.00000  Uiso   1.00
O315   O     0.87217   0.45917   0.84061   0.00000  Uiso   1.00
O316   O     0.25587   0.36996   0.35364   0.00000  Uiso   1.00
N317   N     0.41212   0.46455   0.85876   0.00000  Uiso   1.00
N318   N     0.96939   0.40637   0.86754   0.00000  Uiso   1.00
N319   N     0.24280   0.34280   0.23313   0.00000  Uiso   1.00
N320   N     0.41026   0.56869   0.90083   0.00000  Uiso   1.00
N321   N     0.96753   0.51051   0.90961   0.00000  Uiso   1.00
N322   N     0.24094   0.44694   0.27520   0.00000  Uiso   1.00
C323   C     0.92888   0.10487   0.43257   0.00000  Uiso   1.00
C324   C     0.90145   0.17079   0.45591   0.00000  Uiso   1.00
C325   C     0.85294   0.20125   0.41815   0.00000  Uiso   1.00
C326   C     0.83461   0.26142   0.44857   0.00000  Uiso   1.00
C327   C     0.78757   0.35941   0.47481   0.00000  Uiso   1.00
C328   C     0.91666   0.06113   0.48929   0.00000  Uiso   1.00
C329   C     0.88094   0.99938   0.47959   0.00000  Uiso   1.00
C330   C     0.87542   0.96724   0.53810   0.00000  Uiso   1.00
C331   C     0.85202   0.89495   0.61616   0.00000  Uiso   1.00
C332   C     0.00533   0.11881   0.43554   0.00000  Uiso   1.00
C333   C     0.04418   0.10554   0.38065   0.00000  Uiso   1.00
C334   C     0.11332   0.12194   0.39392   0.00000  Uiso   1.00
C335   C     0.22761   0.13921   0.38852   0.00000  Uiso   1.00
C336   C     0.98260   0.15758   0.55373   0.00000  Uiso   1.00
C337   C     0.93063   0.19942   0.52172   0.00000  Uiso   1.00
C338   C     0.91238   0.25957   0.55220   0.00000  Uiso   1.00
C339   C     0.86385   0.29010   0.51449   0.00000  Uiso   1.00
C340   C     0.94583   0.08976   0.55510   0.00000  Uiso   1.00
C341   C     0.94037   0.05770   0.61364   0.00000  Uiso   1.00
C342   C     0.90465   0.99591   0.60403   0.00000  Uiso   1.00
C343   C     0.03451   0.14744   0.50135   0.00000  Uiso   1.00
C344   C     0.10361   0.16386   0.51470   0.00000  Uiso   1.00
C345   C     0.14256   0.15062   0.45985   0.00000  Uiso   1.00
H346   H     0.90616   0.08258   0.38134   0.00000  Uiso   1.00
H347   H     0.83036   0.17907   0.36723   0.00000  Uiso   1.00
H348   H     0.85837   0.97723   0.42866   0.00000  Uiso   1.00
H349   H     0.02158   0.08338   0.32974   0.00000  Uiso   1.00
H350   H     0.75919   0.29867   0.38062   0.00000  Uiso   1.00
H351   H     0.81824   0.87307   0.51014   0.00000  Uiso   1.00
H352   H     0.16242   0.09690   0.30154   0.00000  Uiso   1.00
H353   H     0.00532   0.17987   0.60497   0.00000  Uiso   1.00
H354   H     0.93497   0.28171   0.60313   0.00000  Uiso   1.00
H355   H     0.96296   0.07987   0.66456   0.00000  Uiso   1.00
H356   H     0.12618   0.18602   0.56564   0.00000  Uiso   1.00
H357   H     0.84408   0.38197   0.57208   0.00000  Uiso   1.00
H358   H     0.90314   0.95637   0.70161   0.00000  Uiso   1.00
H359   H     0.24731   0.18020   0.49301   0.00000  Uiso   1.00
O360   O     0.75355   0.40554   0.47112   0.00000  Uiso   1.00
O361   O     0.83104   0.84717   0.64104   0.00000  Uiso   1.00
O362   O     0.28258   0.14084   0.36737   0.00000  Uiso   1.00
N363   N     0.78883   0.30430   0.42592   0.00000  Uiso   1.00
N364   N     0.84404   0.90640   0.54702   0.00000  Uiso   1.00
N365   N     0.16581   0.11565   0.35201   0.00000  Uiso   1.00
N366   N     0.83451   0.34913   0.52895   0.00000  Uiso   1.00
N367   N     0.88972   0.95122   0.65005   0.00000  Uiso   1.00
N368   N     0.21149   0.16047   0.45503   0.00000  Uiso   1.00
C369   C     0.35298   0.89242   0.19562   0.00000  Uiso   1.00
C370   C     0.38063   0.85788   0.25624   0.00000  Uiso   1.00
C371   C     0.34332   0.83493   0.30665   0.00000  Uiso   1.00
C372   C     0.37795   0.80470   0.35778   0.00000  Uiso   1.00
C373   C     0.41030   0.75210   0.45178   0.00000  Uiso   1.00
C374   C     0.37100   0.85195   0.12992   0.00000  Uiso   1.00
C375   C     0.32560   0.82402   0.07412   0.00000  Uiso   1.00
C376   C     0.35213   0.78880   0.01891   0.00000  Uiso   1.00
C377   C     0.36955   0.72703   0.91678   0.00000  Uiso   1.00
C378   C     0.39491   0.95860   0.20149   0.00000  Uiso   1.00
C379   C     0.36962   0.02035   0.20586   0.00000  Uiso   1.00
C380   C     0.41627   0.07492   0.21089   0.00000  Uiso   1.00
C381   C     0.47082   0.17875   0.21989   0.00000  Uiso   1.00
C382   C     0.48081   0.87954   0.19677   0.00000  Uiso   1.00
C383   C     0.45006   0.85088   0.25685   0.00000  Uiso   1.00
C384   C     0.48475   0.82068   0.30792   0.00000  Uiso   1.00
C385   C     0.44750   0.79769   0.35840   0.00000  Uiso   1.00
C386   C     0.44043   0.84495   0.13054   0.00000  Uiso   1.00
C387   C     0.46703   0.80977   0.07539   0.00000  Uiso   1.00
C388   C     0.42168   0.78179   0.01953   0.00000  Uiso   1.00
C389   C     0.46434   0.95161   0.20212   0.00000  Uiso   1.00
C390   C     0.51104   0.00610   0.20713   0.00000  Uiso   1.00
C391   C     0.48583   0.06792   0.21151   0.00000  Uiso   1.00
H392   H     0.29893   0.89786   0.19513   0.00000  Uiso   1.00
H393   H     0.28959   0.84035   0.30615   0.00000  Uiso   1.00
H394   H     0.27188   0.82944   0.07365   0.00000  Uiso   1.00
H395   H     0.31589   0.02574   0.20538   0.00000  Uiso   1.00
H396   H     0.30986   0.77348   0.42949   0.00000  Uiso   1.00
H397   H     0.27251   0.75050   0.93925   0.00000  Uiso   1.00
H398   H     0.36531   0.16444   0.21701   0.00000  Uiso   1.00
H399   H     0.53486   0.87409   0.19725   0.00000  Uiso   1.00
H400   H     0.53847   0.81528   0.30839   0.00000  Uiso   1.00
H401   H     0.52076   0.80437   0.07589   0.00000  Uiso   1.00
H402   H     0.56477   0.00067   0.20761   0.00000  Uiso   1.00
H403   H     0.51186   0.75312   0.43130   0.00000  Uiso   1.00
H404   H     0.47451   0.73015   0.94106   0.00000  Uiso   1.00
H405   H     0.56731   0.14408   0.21883   0.00000  Uiso   1.00
O406   O     0.40897   0.72502   0.50345   0.00000  Uiso   1.00
O407   O     0.35997   0.69489   0.86028   0.00000  Uiso   1.00
O408   O     0.48172   0.23795   0.22470   0.00000  Uiso   1.00
N409   N     0.35690   0.77677   0.41467   0.00000  Uiso   1.00
N410   N     0.32198   0.75528   0.95633   0.00000  Uiso   1.00
N411   N     0.40874   0.14227   0.21600   0.00000  Uiso   1.00
N412   N     0.46560   0.76582   0.41565   0.00000  Uiso   1.00
N413   N     0.43068   0.74433   0.95731   0.00000  Uiso   1.00
N414   N     0.51744   0.13132   0.21698   0.00000  Uiso   1.00
C415   C     0.62926   0.41178   0.87888   0.00000  Uiso   1.00
C416   C     0.69139   0.37467   0.89502   0.00000  Uiso   1.00
C417   C     0.73813   0.35699   0.84895   0.00000  Uiso   1.00
C418   C     0.79145   0.32320   0.87371   0.00000  Uiso   1.00
C419   C     0.88693   0.26791   0.88836   0.00000  Uiso   1.00
C420   C     0.56887   0.36815   0.89509   0.00000  Uiso   1.00
C421   C     0.51260   0.34499   0.84909   0.00000  Uiso   1.00
C422   C     0.46279   0.30572   0.87392   0.00000  Uiso   1.00
C423   C     0.36804   0.24034   0.88870   0.00000  Uiso   1.00
C424   C     0.63546   0.47295   0.93281   0.00000  Uiso   1.00
C425   C     0.63517   0.53791   0.91851   0.00000  Uiso   1.00
C426   C     0.64140   0.58688   0.97510   0.00000  Uiso   1.00
C427   C     0.65006   0.68422   0.04842   0.00000  Uiso   1.00
C428   C     0.64084   0.38323   0.00478   0.00000  Uiso   1.00
C429   C     0.69767   0.35916   0.96340   0.00000  Uiso   1.00
C430   C     0.75094   0.32540   0.98824   0.00000  Uiso   1.00
C431   C     0.79775   0.30767   0.94222   0.00000  Uiso   1.00
C432   C     0.57516   0.35264   0.96347   0.00000  Uiso   1.00
C433   C     0.52541   0.31340   0.98838   0.00000  Uiso   1.00
C434   C     0.46909   0.29018   0.94243   0.00000  Uiso   1.00
C435   C     0.64175   0.45744   0.00119   0.00000  Uiso   1.00
C436   C     0.64798   0.50632   0.05781   0.00000  Uiso   1.00
C437   C     0.64770   0.57134   0.04360   0.00000  Uiso   1.00
H438   H     0.62436   0.42385   0.82564   0.00000  Uiso   1.00
H439   H     0.73324   0.36900   0.79603   0.00000  Uiso   1.00
H440   H     0.50775   0.35700   0.79618   0.00000  Uiso   1.00
H441   H     0.63030   0.54989   0.86559   0.00000  Uiso   1.00
H442   H     0.85671   0.30131   0.79335   0.00000  Uiso   1.00
H443   H     0.38124   0.27604   0.79366   0.00000  Uiso   1.00
H444   H     0.63966   0.68279   0.94003   0.00000  Uiso   1.00
H445   H     0.64574   0.37116   0.05802   0.00000  Uiso   1.00
H446   H     0.75579   0.31341   0.04116   0.00000  Uiso   1.00
H447   H     0.53030   0.30141   0.04130   0.00000  Uiso   1.00
H448   H     0.65285   0.49430   0.11072   0.00000  Uiso   1.00
H449   H     0.87501   0.25619   0.99231   0.00000  Uiso   1.00
H450   H     0.39953   0.23092   0.99262   0.00000  Uiso   1.00
H451   H     0.65796   0.63767   0.13899   0.00000  Uiso   1.00
O452   O     0.93785   0.24169   0.87754   0.00000  Uiso   1.00
O453   O     0.31405   0.20855   0.87795   0.00000  Uiso   1.00
O454   O     0.65310   0.74220   0.06998   0.00000  Uiso   1.00
N455   N     0.84592   0.29863   0.84249   0.00000  Uiso   1.00
N456   N     0.40139   0.27499   0.84278   0.00000  Uiso   1.00
N457   N     0.64297   0.65527   0.97962   0.00000  Uiso   1.00
N458   N     0.85577   0.27435   0.94955   0.00000  Uiso   1.00
N459   N     0.41123   0.25072   0.94984   0.00000  Uiso   1.00
N460   N     0.65282   0.63099   0.08668   0.00000  Uiso   1.00
C461   C     0.43536   0.90443   0.77586   0.00000  Uiso   1.00
C462   C     0.40303   0.95238   0.82652   0.00000  Uiso   1.00
C463   C     0.38403   0.93984   0.89089   0.00000  Uiso   1.00
C464   C     0.35527   0.99011   0.92946   0.00000  Uiso   1.00
C465   C     0.30647   0.05532   0.01191   0.00000  Uiso   1.00
C466   C     0.38973   0.89694   0.70766   0.00000  Uiso   1.00
C467   C     0.35956   0.83779   0.67209   0.00000  Uiso   1.00
C468   C     0.31961   0.84138   0.61059   0.00000  Uiso   1.00
C469   C     0.25020   0.82052   0.50847   0.00000  Uiso   1.00
C470   C     0.50147   0.94043   0.76188   0.00000  Uiso   1.00
C471   C     0.56524   0.91785   0.77189   0.00000  Uiso   1.00
C472   C     0.61936   0.95806   0.75602   0.00000  Uiso   1.00
C473   C     0.72344   0.00474   0.73810   0.00000  Uiso   1.00
C474   C     0.41808   0.01599   0.72988   0.00000  Uiso   1.00
C475   C     0.39365   0.01297   0.80154   0.00000  Uiso   1.00
C476   C     0.36491   0.06327   0.84002   0.00000  Uiso   1.00
C477   C     0.34587   0.05081   0.90444   0.00000  Uiso   1.00
C478   C     0.38035   0.95753   0.68268   0.00000  Uiso   1.00
C479   C     0.34044   0.96121   0.62122   0.00000  Uiso   1.00
C480   C     0.31020   0.90208   0.58556   0.00000  Uiso   1.00
C481   C     0.49209   0.00103   0.73691   0.00000  Uiso   1.00
C482   C     0.54612   0.04128   0.72102   0.00000  Uiso   1.00
C483   C     0.60996   0.01877   0.73100   0.00000  Uiso   1.00
H484   H     0.44267   0.85726   0.79530   0.00000  Uiso   1.00
H485   H     0.39129   0.89294   0.91020   0.00000  Uiso   1.00
H486   H     0.36683   0.79090   0.69142   0.00000  Uiso   1.00
H487   H     0.57248   0.87096   0.79121   0.00000  Uiso   1.00
H488   H     0.33018   0.95922   0.02657   0.00000  Uiso   1.00
H489   H     0.27862   0.74406   0.56525   0.00000  Uiso   1.00
H490   H     0.71227   0.91287   0.77567   0.00000  Uiso   1.00
H491   H     0.41078   0.06317   0.71043   0.00000  Uiso   1.00
H492   H     0.35765   0.11015   0.82068   0.00000  Uiso   1.00
H493   H     0.33319   0.00811   0.60190   0.00000  Uiso   1.00
H494   H     0.53884   0.08817   0.70169   0.00000  Uiso   1.00
H495   H     0.30287   0.13551   0.95391   0.00000  Uiso   1.00
H496   H     0.25131   0.92035   0.49259   0.00000  Uiso   1.00
H497   H     0.68496   0.08917   0.70302   0.00000  Uiso   1.00
O498   O     0.28214   0.07455   0.06428   0.00000  Uiso   1.00
O499   O     0.21450   0.79227   0.45905   0.00000  Uiso   1.00
O500   O     0.78344   0.01375   0.73512   0.00000  Uiso   1.00
N501   N     0.33105   0.99426   0.99434   0.00000  Uiso   1.00
N502   N     0.28284   0.79311   0.56305   0.00000  Uiso   1.00
N503   N     0.68827   0.95092   0.75976   0.00000  Uiso   1.00
N504   N     0.31636   0.08913   0.95525   0.00000  Uiso   1.00
N505   N     0.26815   0.88797   0.52395   0.00000  Uiso   1.00
N506   N     0.67357   0.04579   0.72066   0.00000  Uiso   1.00
C507   C     0.85867   0.62490   0.46811   0.00000  Uiso   1.00
C508   C     0.89053   0.68175   0.43459   0.00000  Uiso   1.00
C509   C     0.85648   0.73188   0.40851   0.00000  Uiso   1.00
C510   C     0.89470   0.77929   0.37988   0.00000  Uiso   1.00
C511   C     0.93355   0.86795   0.32818   0.00000  Uiso   1.00
C512   C     0.87655   0.56157   0.42663   0.00000  Uiso   1.00
C513   C     0.83074   0.51065   0.39386   0.00000  Uiso   1.00
C514   C     0.85720   0.45690   0.35854   0.00000  Uiso   1.00
C515   C     0.87434   0.35897   0.29452   0.00000  Uiso   1.00
C516   C     0.89696   0.62798   0.54006   0.00000  Uiso   1.00
C517   C     0.86831   0.63290   0.60266   0.00000  Uiso   1.00
C518   C     0.91195   0.63505   0.66284   0.00000  Uiso   1.00
C519   C     0.96079   0.64023   0.77493   0.00000  Uiso   1.00
C520   C     0.98712   0.61996   0.46368   0.00000  Uiso   1.00
C521   C     0.96030   0.67906   0.43218   0.00000  Uiso   1.00
C522   C     0.99859   0.72641   0.40360   0.00000  Uiso   1.00
C523   C     0.96459   0.77661   0.37747   0.00000  Uiso   1.00
C524   C     0.94632   0.55888   0.42422   0.00000  Uiso   1.00
C525   C     0.97285   0.50519   0.38895   0.00000  Uiso   1.00
C526   C     0.92709   0.45421   0.35613   0.00000  Uiso   1.00
C527   C     0.96673   0.62530   0.53765   0.00000  Uiso   1.00
C528   C     0.01043   0.62744   0.59775   0.00000  Uiso   1.00
C529   C     0.98185   0.63236   0.66043   0.00000  Uiso   1.00
H530   H     0.80436   0.62698   0.46998   0.00000  Uiso   1.00
H531   H     0.80248   0.73393   0.41037   0.00000  Uiso   1.00
H532   H     0.77675   0.51274   0.39574   0.00000  Uiso   1.00
H533   H     0.81432   0.63497   0.60450   0.00000  Uiso   1.00
H534   H     0.83116   0.85131   0.34320   0.00000  Uiso   1.00
H535   H     0.77691   0.38491   0.31236   0.00000  Uiso   1.00
H536   H     0.85613   0.64265   0.75258   0.00000  Uiso   1.00
H537   H     0.04144   0.61787   0.46180   0.00000  Uiso   1.00
H538   H     0.05258   0.72432   0.40174   0.00000  Uiso   1.00
H539   H     0.02685   0.50313   0.38710   0.00000  Uiso   1.00
H540   H     0.06441   0.62536   0.59587   0.00000  Uiso   1.00
H541   H     0.03415   0.84351   0.33619   0.00000  Uiso   1.00
H542   H     0.97990   0.37711   0.30535   0.00000  Uiso   1.00
H543   H     0.05912   0.63485   0.74557   0.00000  Uiso   1.00
O544   O     0.93570   0.91759   0.30031   0.00000  Uiso   1.00
O545   O     0.86452   0.30569   0.25986   0.00000  Uiso   1.00
O546   O     0.96846   0.64384   0.83742   0.00000  Uiso   1.00
N547   N     0.87741   0.83487   0.34981   0.00000  Uiso   1.00
N548   N     0.82669   0.39882   0.32096   0.00000  Uiso   1.00
N549   N     0.90075   0.63977   0.73253   0.00000  Uiso   1.00
N550   N     0.98664   0.83068   0.34603   0.00000  Uiso   1.00
N551   N     0.93591   0.39463   0.31719   0.00000  Uiso   1.00
N552   N     0.00997   0.63557   0.72876   0.00000  Uiso   1.00
