data_job_06565
_audit_creation_date              2018-12-19
_audit_creation_method            'Materials Studio'
_symmetry_space_group_name_H-M    'P1'
_symmetry_Int_Tables_number       1
_symmetry_cell_setting            triclinic
loop_
_symmetry_equiv_pos_as_xyz
  x,y,z
_cell_length_a                    20.0748
_cell_length_b                    22.1742
_cell_length_c                    22.7409
_cell_angle_alpha                 76.0253
_cell_angle_beta                  102.9147
_cell_angle_gamma                 63.1315
loop_
_atom_site_label
_atom_site_type_symbol
_atom_site_fract_x
_atom_site_fract_y
_atom_site_fract_z
_atom_site_U_iso_or_equiv
_atom_site_adp_type
_atom_site_occupancy
C1     C     0.45779   0.18057   0.61774   0.00000  Uiso   1.00
C2     C     0.44268   0.11992   0.64440   0.00000  Uiso   1.00
C3     C     0.37036   0.13047   0.64805   0.00000  Uiso   1.00
C4     C     0.36882   0.06787   0.67403   0.00000  Uiso   1.00
C5     C     0.33498   0.98443   0.71219   0.00000  Uiso   1.00
C6     C     0.52965   0.16602   0.67269   0.00000  Uiso   1.00
C7     C     0.53044   0.21534   0.70011   0.00000  Uiso   1.00
C8     C     0.60212   0.19155   0.74989   0.00000  Uiso   1.00
C9     C     0.70331   0.17970   0.83193   0.00000  Uiso   1.00
C10    C     0.48731   0.16672   0.56330   0.00000  Uiso   1.00
C11    C     0.45251   0.21664   0.49875   0.00000  Uiso   1.00
C12    C     0.48856   0.19345   0.45643   0.00000  Uiso   1.00
C13    C     0.52400   0.18269   0.36863   0.00000  Uiso   1.00
C14    C     0.58368   0.05062   0.65738   0.00000  Uiso   1.00
C15    C     0.51107   0.04933   0.66594   0.00000  Uiso   1.00
C16    C     0.50964   0.98670   0.69192   0.00000  Uiso   1.00
C17    C     0.43732   0.99716   0.69560   0.00000  Uiso   1.00
C18    C     0.59803   0.09544   0.69422   0.00000  Uiso   1.00
C19    C     0.66973   0.07157   0.74397   0.00000  Uiso   1.00
C20    C     0.67063   0.12084   0.77146   0.00000  Uiso   1.00
C21    C     0.55569   0.09614   0.58483   0.00000  Uiso   1.00
C22    C     0.59180   0.07286   0.54261   0.00000  Uiso   1.00
C23    C     0.55706   0.12273   0.47801   0.00000  Uiso   1.00
H24    H     0.40455   0.23552   0.60098   0.00000  Uiso   1.00
H25    H     0.31745   0.18511   0.63139   0.00000  Uiso   1.00
H26    H     0.47752   0.26997   0.68343   0.00000  Uiso   1.00
H27    H     0.39960   0.27126   0.48210   0.00000  Uiso   1.00
H28    H     0.25105   0.09808   0.67463   0.00000  Uiso   1.00
H29    H     0.58856   0.27702   0.78434   0.00000  Uiso   1.00
H30    H     0.42425   0.27975   0.35980   0.00000  Uiso   1.00
H31    H     0.63692   0.99566   0.67415   0.00000  Uiso   1.00
H32    H     0.56257   0.93208   0.70858   0.00000  Uiso   1.00
H33    H     0.72263   0.01694   0.76062   0.00000  Uiso   1.00
H34    H     0.64471   0.01824   0.55929   0.00000  Uiso   1.00
H35    H     0.45000   0.89272   0.73728   0.00000  Uiso   1.00
H36    H     0.78751   0.07166   0.84699   0.00000  Uiso   1.00
H37    H     0.62320   0.07438   0.42245   0.00000  Uiso   1.00
O38    O     0.29743   0.95790   0.72730   0.00000  Uiso   1.00
O39    O     0.74023   0.19267   0.87123   0.00000  Uiso   1.00
O40    O     0.52466   0.19625   0.31424   0.00000  Uiso   1.00
N41    N     0.30807   0.05848   0.68464   0.00000  Uiso   1.00
N42    N     0.62362   0.22577   0.78722   0.00000  Uiso   1.00
N43    N     0.47002   0.22833   0.39031   0.00000  Uiso   1.00
N44    N     0.41512   0.94797   0.71835   0.00000  Uiso   1.00
N45    N     0.73067   0.11526   0.82093   0.00000  Uiso   1.00
N46    N     0.57707   0.11782   0.42402   0.00000  Uiso   1.00
C47    C     0.09901   0.14787   0.26796   0.00000  Uiso   1.00
C48    C     0.01675   0.21354   0.25445   0.00000  Uiso   1.00
C49    C     0.00021   0.25337   0.29353   0.00000  Uiso   1.00
C50    C     0.92109   0.31153   0.27271   0.00000  Uiso   1.00
C51    C     0.80253   0.41080   0.26055   0.00000  Uiso   1.00
C52    C     0.08634   0.08483   0.26916   0.00000  Uiso   1.00
C53    C     0.12832   0.01643   0.32060   0.00000  Uiso   1.00
C54    C     0.10778   0.96625   0.31216   0.00000  Uiso   1.00
C55    C     0.09731   0.86567   0.32281   0.00000  Uiso   1.00
C56    C     0.11780   0.16749   0.20731   0.00000  Uiso   1.00
C57    C     0.18624   0.16858   0.20675   0.00000  Uiso   1.00
C58    C     0.19221   0.18797   0.14622   0.00000  Uiso   1.00
C59    C     0.23058   0.21573   0.06084   0.00000  Uiso   1.00
C60    C     0.98791   0.18035   0.16148   0.00000  Uiso   1.00
C61    C     0.95641   0.23118   0.19662   0.00000  Uiso   1.00
C62    C     0.87729   0.28931   0.17573   0.00000  Uiso   1.00
C63    C     0.86064   0.32921   0.21477   0.00000  Uiso   1.00
C64    C     0.02600   0.10247   0.21133   0.00000  Uiso   1.00
C65    C     0.00540   0.05237   0.20280   0.00000  Uiso   1.00
C66    C     0.04733   0.98392   0.25422   0.00000  Uiso   1.00
C67    C     0.05746   0.18514   0.14947   0.00000  Uiso   1.00
C68    C     0.06332   0.20452   0.08894   0.00000  Uiso   1.00
C69    C     0.13176   0.20564   0.08828   0.00000  Uiso   1.00
H70    H     0.14599   0.13413   0.31299   0.00000  Uiso   1.00
H71    H     0.04692   0.23969   0.33829   0.00000  Uiso   1.00
H72    H     0.17502   0.00280   0.36535   0.00000  Uiso   1.00
H73    H     0.23293   0.15492   0.25151   0.00000  Uiso   1.00
H74    H     0.91047   0.36449   0.34085   0.00000  Uiso   1.00
H75    H     0.18058   0.86497   0.39790   0.00000  Uiso   1.00
H76    H     0.30270   0.18575   0.15785   0.00000  Uiso   1.00
H77    H     0.94093   0.19409   0.11645   0.00000  Uiso   1.00
H78    H     0.83061   0.30295   0.13097   0.00000  Uiso   1.00
H79    H     0.95871   0.06605   0.15803   0.00000  Uiso   1.00
H80    H     0.01662   0.21817   0.04419   0.00000  Uiso   1.00
H81    H     0.73490   0.41583   0.17258   0.00000  Uiso   1.00
H82    H     0.00502   0.91631   0.22964   0.00000  Uiso   1.00
H83    H     0.12714   0.23709   0.98958   0.00000  Uiso   1.00
O84    O     0.75381   0.46067   0.26982   0.00000  Uiso   1.00
O85    O     0.10820   0.80532   0.34467   0.00000  Uiso   1.00
O86    O     0.26841   0.22617   0.02972   0.00000  Uiso   1.00
N87    N     0.88430   0.36164   0.29925   0.00000  Uiso   1.00
N88    N     0.13682   0.89463   0.35259   0.00000  Uiso   1.00
N89    N     0.25101   0.19451   0.12816   0.00000  Uiso   1.00
N90    N     0.78982   0.38927   0.20870   0.00000  Uiso   1.00
N91    N     0.04235   0.92225   0.26205   0.00000  Uiso   1.00
N92    N     0.15654   0.22213   0.03762   0.00000  Uiso   1.00
C93    C     0.07858   0.39391   0.25980   0.00000  Uiso   1.00
C94    C     0.10124   0.38799   0.33049   0.00000  Uiso   1.00
C95    C     0.11822   0.33031   0.38463   0.00000  Uiso   1.00
C96    C     0.13767   0.33521   0.44513   0.00000  Uiso   1.00
C97    C     0.17245   0.31684   0.55396   0.00000  Uiso   1.00
C98    C     0.99752   0.46644   0.22021   0.00000  Uiso   1.00
C99    C     0.92730   0.47471   0.18163   0.00000  Uiso   1.00
C100   C     0.85944   0.54566   0.14929   0.00000  Uiso   1.00
C101   C     0.73321   0.64909   0.08688   0.00000  Uiso   1.00
C102   C     0.13996   0.40356   0.23635   0.00000  Uiso   1.00
C103   C     0.18949   0.35898   0.21131   0.00000  Uiso   1.00
C104   C     0.24154   0.37700   0.19255   0.00000  Uiso   1.00
C105   C     0.33646   0.38280   0.15519   0.00000  Uiso   1.00
C106   C     0.08293   0.50518   0.27096   0.00000  Uiso   1.00
C107   C     0.10360   0.44843   0.33654   0.00000  Uiso   1.00
C108   C     0.12303   0.45342   0.39698   0.00000  Uiso   1.00
C109   C     0.14004   0.39575   0.45121   0.00000  Uiso   1.00
C110   C     0.99988   0.52688   0.22627   0.00000  Uiso   1.00
C111   C     0.93211   0.59783   0.19398   0.00000  Uiso   1.00
C112   C     0.86180   0.60621   0.15536   0.00000  Uiso   1.00
C113   C     0.14232   0.46400   0.24241   0.00000  Uiso   1.00
C114   C     0.19430   0.48209   0.22367   0.00000  Uiso   1.00
C115   C     0.24390   0.43755   0.19862   0.00000  Uiso   1.00
H116   H     0.07674   0.34686   0.25507   0.00000  Uiso   1.00
H117   H     0.11638   0.28354   0.37992   0.00000  Uiso   1.00
H118   H     0.92549   0.42793   0.17694   0.00000  Uiso   1.00
H119   H     0.18764   0.31221   0.20663   0.00000  Uiso   1.00
H120   H     0.16134   0.24002   0.52100   0.00000  Uiso   1.00
H121   H     0.75885   0.54447   0.09300   0.00000  Uiso   1.00
H122   H     0.31164   0.30046   0.15560   0.00000  Uiso   1.00
H123   H     0.08477   0.55224   0.27568   0.00000  Uiso   1.00
H124   H     0.12485   0.50020   0.40166   0.00000  Uiso   1.00
H125   H     0.93396   0.64459   0.19868   0.00000  Uiso   1.00
H126   H     0.19611   0.52887   0.22837   0.00000  Uiso   1.00
H127   H     0.16821   0.41587   0.53864   0.00000  Uiso   1.00
H128   H     0.76572   0.72032   0.11064   0.00000  Uiso   1.00
H129   H     0.31851   0.47631   0.17324   0.00000  Uiso   1.00
O130   O     0.19097   0.29001   0.61232   0.00000  Uiso   1.00
O131   O     0.66293   0.68944   0.05079   0.00000  Uiso   1.00
O132   O     0.38818   0.36930   0.13292   0.00000  Uiso   1.00
N133   N     0.15747   0.28854   0.50786   0.00000  Uiso   1.00
N134   N     0.78116   0.57318   0.10772   0.00000  Uiso   1.00
N135   N     0.29796   0.34506   0.16623   0.00000  Uiso   1.00
N136   N     0.16117   0.38316   0.51736   0.00000  Uiso   1.00
N137   N     0.78486   0.66780   0.11721   0.00000  Uiso   1.00
N138   N     0.30166   0.43968   0.17572   0.00000  Uiso   1.00
C139   C     0.07072   0.82747   0.69501   0.00000  Uiso   1.00
C140   C     0.98838   0.84043   0.69174   0.00000  Uiso   1.00
C141   C     0.97280   0.80832   0.74298   0.00000  Uiso   1.00
C142   C     0.89343   0.82730   0.73011   0.00000  Uiso   1.00
C143   C     0.77494   0.83995   0.73447   0.00000  Uiso   1.00
C144   C     0.05985   0.90313   0.67454   0.00000  Uiso   1.00
C145   C     0.10437   0.92373   0.71132   0.00000  Uiso   1.00
C146   C     0.08516   0.99549   0.68397   0.00000  Uiso   1.00
C147   C     0.07766   0.10547   0.66160   0.00000  Uiso   1.00
C148   C     0.08630   0.80109   0.64064   0.00000  Uiso   1.00
C149   C     0.15307   0.73591   0.64891   0.00000  Uiso   1.00
C150   C     0.15614   0.72177   0.59301   0.00000  Uiso   1.00
C151   C     0.18971   0.67331   0.51801   0.00000  Uiso   1.00
C152   C     0.95746   0.91828   0.58105   0.00000  Uiso   1.00
C153   C     0.92687   0.88976   0.62984   0.00000  Uiso   1.00
C154   C     0.84750   0.90879   0.61689   0.00000  Uiso   1.00
C155   C     0.83180   0.87671   0.66810   0.00000  Uiso   1.00
C156   C     0.99834   0.95245   0.61265   0.00000  Uiso   1.00
C157   C     0.97907   0.02420   0.58523   0.00000  Uiso   1.00
C158   C     0.02354   0.04491   0.62196   0.00000  Uiso   1.00
C159   C     0.02479   0.85041   0.57874   0.00000  Uiso   1.00
C160   C     0.02776   0.83638   0.52282   0.00000  Uiso   1.00
C161   C     0.09452   0.77118   0.53100   0.00000  Uiso   1.00
H162   H     0.11861   0.78908   0.74320   0.00000  Uiso   1.00
H163   H     0.02042   0.77016   0.79087   0.00000  Uiso   1.00
H164   H     0.15197   0.88555   0.75921   0.00000  Uiso   1.00
H165   H     0.20066   0.69776   0.69682   0.00000  Uiso   1.00
H166   H     0.88443   0.77096   0.81644   0.00000  Uiso   1.00
H167   H     0.16183   0.01426   0.74967   0.00000  Uiso   1.00
H168   H     0.26450   0.61826   0.61810   0.00000  Uiso   1.00
H169   H     0.90957   0.95668   0.53285   0.00000  Uiso   1.00
H170   H     0.79991   0.94696   0.56899   0.00000  Uiso   1.00
H171   H     0.93146   0.06235   0.53733   0.00000  Uiso   1.00
H172   H     0.98015   0.87456   0.47493   0.00000  Uiso   1.00
H173   H     0.70545   0.91446   0.63635   0.00000  Uiso   1.00
H174   H     0.98286   0.15776   0.56958   0.00000  Uiso   1.00
H175   H     0.08552   0.76175   0.43801   0.00000  Uiso   1.00
O176   O     0.72657   0.83331   0.75397   0.00000  Uiso   1.00
O177   O     0.09052   0.15250   0.66637   0.00000  Uiso   1.00
O178   O     0.22522   0.63295   0.49374   0.00000  Uiso   1.00
N179   N     0.85736   0.80605   0.76910   0.00000  Uiso   1.00
N180   N     0.11670   0.03353   0.70668   0.00000  Uiso   1.00
N181   N     0.21271   0.66331   0.58366   0.00000  Uiso   1.00
N182   N     0.76106   0.88327   0.67219   0.00000  Uiso   1.00
N183   N     0.02040   0.11074   0.60977   0.00000  Uiso   1.00
N184   N     0.11640   0.74052   0.48675   0.00000  Uiso   1.00
C185   C     0.21658   0.54789   0.78985   0.00000  Uiso   1.00
C186   C     0.19816   0.54473   0.85166   0.00000  Uiso   1.00
C187   C     0.15322   0.60492   0.86523   0.00000  Uiso   1.00
C188   C     0.14322   0.59047   0.92446   0.00000  Uiso   1.00
C189   C     0.10945   0.59652   0.01372   0.00000  Uiso   1.00
C190   C     0.18570   0.50620   0.76022   0.00000  Uiso   1.00
C191   C     0.13029   0.53400   0.69690   0.00000  Uiso   1.00
C192   C     0.10981   0.48712   0.67915   0.00000  Uiso   1.00
C193   C     0.05674   0.43333   0.62643   0.00000  Uiso   1.00
C194   C     0.30847   0.50181   0.81322   0.00000  Uiso   1.00
C195   C     0.35629   0.52591   0.79446   0.00000  Uiso   1.00
C196   C     0.43918   0.47532   0.82132   0.00000  Uiso   1.00
C197   C     0.57673   0.41472   0.85090   0.00000  Uiso   1.00
C198   C     0.27874   0.41518   0.87091   0.00000  Uiso   1.00
C199   C     0.23192   0.47264   0.89569   0.00000  Uiso   1.00
C200   C     0.22200   0.45809   0.95491   0.00000  Uiso   1.00
C201   C     0.17705   0.51826   0.96857   0.00000  Uiso   1.00
C202   C     0.21946   0.43412   0.80424   0.00000  Uiso   1.00
C203   C     0.19907   0.38717   0.78658   0.00000  Uiso   1.00
C204   C     0.14364   0.41490   0.72325   0.00000  Uiso   1.00
C205   C     0.34224   0.42972   0.85725   0.00000  Uiso   1.00
C206   C     0.42507   0.37908   0.88414   0.00000  Uiso   1.00
C207   C     0.47300   0.40310   0.86543   0.00000  Uiso   1.00
H208   H     0.19029   0.60401   0.75557   0.00000  Uiso   1.00
H209   H     0.12709   0.66070   0.83114   0.00000  Uiso   1.00
H210   H     0.10417   0.58979   0.66284   0.00000  Uiso   1.00
H211   H     0.33014   0.58170   0.76039   0.00000  Uiso   1.00
H212   H     0.07189   0.69176   0.93433   0.00000  Uiso   1.00
H213   H     0.02359   0.54223   0.57944   0.00000  Uiso   1.00
H214   H     0.50008   0.52517   0.78514   0.00000  Uiso   1.00
H215   H     0.30503   0.35905   0.90519   0.00000  Uiso   1.00
H216   H     0.24813   0.40230   0.98897   0.00000  Uiso   1.00
H217   H     0.22521   0.33139   0.82066   0.00000  Uiso   1.00
H218   H     0.45118   0.32330   0.91821   0.00000  Uiso   1.00
H219   H     0.17013   0.48204   0.06243   0.00000  Uiso   1.00
H220   H     0.12183   0.33251   0.70754   0.00000  Uiso   1.00
H221   H     0.59832   0.31545   0.91324   0.00000  Uiso   1.00
O222   O     0.08149   0.61977   0.05079   0.00000  Uiso   1.00
O223   O     0.01813   0.42359   0.58518   0.00000  Uiso   1.00
O224   O     0.64327   0.40121   0.85506   0.00000  Uiso   1.00
N225   N     0.10283   0.63647   0.95299   0.00000  Uiso   1.00
N226   N     0.05766   0.49667   0.62119   0.00000  Uiso   1.00
N227   N     0.50314   0.48071   0.81349   0.00000  Uiso   1.00
N228   N     0.15570   0.52362   0.02192   0.00000  Uiso   1.00
N229   N     0.11053   0.38382   0.69012   0.00000  Uiso   1.00
N230   N     0.55600   0.36786   0.88242   0.00000  Uiso   1.00
C231   C     0.34558   0.67228   0.00030   0.00000  Uiso   1.00
C232   C     0.26558   0.71983   0.00569   0.00000  Uiso   1.00
C233   C     0.21634   0.69642   0.02232   0.00000  Uiso   1.00
C234   C     0.14563   0.74833   0.02460   0.00000  Uiso   1.00
C235   C     0.02458   0.81109   0.03511   0.00000  Uiso   1.00
C236   C     0.40850   0.67776   0.04662   0.00000  Uiso   1.00
C237   C     0.47942   0.61897   0.09765   0.00000  Uiso   1.00
C238   C     0.52901   0.63547   0.13438   0.00000  Uiso   1.00
C239   C     0.62987   0.63292   0.20839   0.00000  Uiso   1.00
C240   C     0.33661   0.71096   0.93112   0.00000  Uiso   1.00
C241   C     0.34710   0.68008   0.88504   0.00000  Uiso   1.00
C242   C     0.33618   0.72453   0.82453   0.00000  Uiso   1.00
C243   C     0.32541   0.77352   0.71921   0.00000  Uiso   1.00
C244   C     0.30757   0.80610   0.97479   0.00000  Uiso   1.00
C245   C     0.24494   0.79251   0.99184   0.00000  Uiso   1.00
C246   C     0.17428   0.84447   0.99409   0.00000  Uiso   1.00
C247   C     0.12494   0.82114   0.01072   0.00000  Uiso   1.00
C248   C     0.38785   0.75044   0.03276   0.00000  Uiso   1.00
C249   C     0.43736   0.76703   0.06942   0.00000  Uiso   1.00
C250   C     0.50833   0.70829   0.12050   0.00000  Uiso   1.00
C251   C     0.31596   0.78364   0.91726   0.00000  Uiso   1.00
C252   C     0.30503   0.82814   0.85681   0.00000  Uiso   1.00
C253   C     0.31550   0.79734   0.81064   0.00000  Uiso   1.00
H254   H     0.36166   0.61569   0.01109   0.00000  Uiso   1.00
H255   H     0.23234   0.64016   0.03305   0.00000  Uiso   1.00
H256   H     0.49538   0.56273   0.10836   0.00000  Uiso   1.00
H257   H     0.36307   0.62384   0.89578   0.00000  Uiso   1.00
H258   H     0.07988   0.69934   0.05129   0.00000  Uiso   1.00
H259   H     0.63453   0.53607   0.21008   0.00000  Uiso   1.00
H260   H     0.35554   0.66491   0.76182   0.00000  Uiso   1.00
H261   H     0.29149   0.86269   0.96400   0.00000  Uiso   1.00
H262   H     0.15832   0.90071   0.98337   0.00000  Uiso   1.00
H263   H     0.42136   0.82328   0.05868   0.00000  Uiso   1.00
H264   H     0.28906   0.88438   0.84610   0.00000  Uiso   1.00
H265   H     0.01980   0.91081   0.01098   0.00000  Uiso   1.00
H266   H     0.57446   0.74754   0.16976   0.00000  Uiso   1.00
H267   H     0.29546   0.87639   0.72150   0.00000  Uiso   1.00
O268   O     0.96352   0.82563   0.04475   0.00000  Uiso   1.00
O269   O     0.69120   0.61142   0.25306   0.00000  Uiso   1.00
O270   O     0.32517   0.78046   0.66495   0.00000  Uiso   1.00
N271   N     0.08401   0.74390   0.03913   0.00000  Uiso   1.00
N272   N     0.60257   0.59125   0.18760   0.00000  Uiso   1.00
N273   N     0.34175   0.71170   0.76851   0.00000  Uiso   1.00
N274   N     0.05168   0.85769   0.01744   0.00000  Uiso   1.00
N275   N     0.57024   0.70504   0.16590   0.00000  Uiso   1.00
N276   N     0.30943   0.82549   0.74682   0.00000  Uiso   1.00
C277   C     0.54298   0.64550   0.42893   0.00000  Uiso   1.00
C278   C     0.53067   0.72021   0.39523   0.00000  Uiso   1.00
C279   C     0.59090   0.73260   0.38836   0.00000  Uiso   1.00
C280   C     0.56731   0.80495   0.35595   0.00000  Uiso   1.00
C281   C     0.56051   0.91217   0.30734   0.00000  Uiso   1.00
C282   C     0.48720   0.63729   0.37822   0.00000  Uiso   1.00
C283   C     0.51088   0.57995   0.35704   0.00000  Uiso   1.00
C284   C     0.45068   0.58250   0.31032   0.00000  Uiso   1.00
C285   C     0.37638   0.56095   0.23532   0.00000  Uiso   1.00
C286   C     0.50895   0.65195   0.48229   0.00000  Uiso   1.00
C287   C     0.55091   0.60692   0.54861   0.00000  Uiso   1.00
C288   C     0.50901   0.62180   0.58951   0.00000  Uiso   1.00
C289   C     0.46848   0.62301   0.67610   0.00000  Uiso   1.00
C290   C     0.39396   0.75197   0.38361   0.00000  Uiso   1.00
C291   C     0.44973   0.77804   0.37061   0.00000  Uiso   1.00
C292   C     0.42604   0.85040   0.33821   0.00000  Uiso   1.00
C293   C     0.48623   0.86289   0.33129   0.00000  Uiso   1.00
C294   C     0.40626   0.69512   0.35360   0.00000  Uiso   1.00
C295   C     0.34601   0.69776   0.30690   0.00000  Uiso   1.00
C296   C     0.36960   0.64044   0.28565   0.00000  Uiso   1.00
C297   C     0.42801   0.70978   0.45767   0.00000  Uiso   1.00
C298   C     0.38604   0.72473   0.49847   0.00000  Uiso   1.00
C299   C     0.42793   0.67974   0.56485   0.00000  Uiso   1.00
H300   H     0.60599   0.60047   0.44810   0.00000  Uiso   1.00
H301   H     0.65353   0.68783   0.40741   0.00000  Uiso   1.00
H302   H     0.57351   0.53520   0.37611   0.00000  Uiso   1.00
H303   H     0.61354   0.56217   0.56765   0.00000  Uiso   1.00
H304   H     0.67054   0.81018   0.35143   0.00000  Uiso   1.00
H305   H     0.50182   0.48835   0.28543   0.00000  Uiso   1.00
H306   H     0.58622   0.54522   0.68933   0.00000  Uiso   1.00
H307   H     0.33095   0.79700   0.36444   0.00000  Uiso   1.00
H308   H     0.36340   0.89514   0.31917   0.00000  Uiso   1.00
H309   H     0.28339   0.74252   0.28786   0.00000  Uiso   1.00
H310   H     0.32341   0.76949   0.47940   0.00000  Uiso   1.00
H311   H     0.43506   0.97845   0.27980   0.00000  Uiso   1.00
H312   H     0.26634   0.65661   0.21381   0.00000  Uiso   1.00
H313   H     0.35074   0.71349   0.61771   0.00000  Uiso   1.00
O314   O     0.57911   0.95533   0.28732   0.00000  Uiso   1.00
O315   O     0.35776   0.53309   0.20075   0.00000  Uiso   1.00
O316   O     0.46848   0.60771   0.73066   0.00000  Uiso   1.00
N317   N     0.61067   0.83632   0.34079   0.00000  Uiso   1.00
N318   N     0.45293   0.53543   0.27909   0.00000  Uiso   1.00
N319   N     0.53183   0.58858   0.65670   0.00000  Uiso   1.00
N320   N     0.48396   0.92686   0.30225   0.00000  Uiso   1.00
N321   N     0.32622   0.62597   0.24055   0.00000  Uiso   1.00
N322   N     0.40512   0.67913   0.61816   0.00000  Uiso   1.00
C323   C     0.92722   0.40876   0.76929   0.00000  Uiso   1.00
C324   C     0.01150   0.34141   0.79079   0.00000  Uiso   1.00
C325   C     0.03190   0.28891   0.76380   0.00000  Uiso   1.00
C326   C     0.11231   0.23145   0.79034   0.00000  Uiso   1.00
C327   C     0.23438   0.12761   0.81585   0.00000  Uiso   1.00
C328   C     0.93577   0.47506   0.75169   0.00000  Uiso   1.00
C329   C     0.89249   0.53494   0.69184   0.00000  Uiso   1.00
C330   C     0.90914   0.58998   0.68548   0.00000  Uiso   1.00
C331   C     0.91359   0.69367   0.65031   0.00000  Uiso   1.00
C332   C     0.90741   0.40385   0.83056   0.00000  Uiso   1.00
C333   C     0.84027   0.40387   0.83701   0.00000  Uiso   1.00
C334   C     0.83304   0.39898   0.89705   0.00000  Uiso   1.00
C335   C     0.79346   0.39209   0.98432   0.00000  Uiso   1.00
C336   C     0.03376   0.40006   0.86441   0.00000  Uiso   1.00
C337   C     0.06936   0.33669   0.84245   0.00000  Uiso   1.00
C338   C     0.14977   0.27928   0.86904   0.00000  Uiso   1.00
C339   C     0.17028   0.22671   0.84210   0.00000  Uiso   1.00
C340   C     0.99363   0.47034   0.80336   0.00000  Uiso   1.00
C341   C     0.01035   0.52531   0.79708   0.00000  Uiso   1.00
C342   C     0.96711   0.58525   0.73724   0.00000  Uiso   1.00
C343   C     0.96528   0.39912   0.88223   0.00000  Uiso   1.00
C344   C     0.95814   0.39424   0.94226   0.00000  Uiso   1.00
C345   C     0.89101   0.39424   0.94881   0.00000  Uiso   1.00
H346   H     0.88217   0.41245   0.72906   0.00000  Uiso   1.00
H347   H     0.98710   0.29259   0.72381   0.00000  Uiso   1.00
H348   H     0.84771   0.53858   0.65187   0.00000  Uiso   1.00
H349   H     0.79551   0.40753   0.79702   0.00000  Uiso   1.00
H350   H     0.12896   0.15765   0.74077   0.00000  Uiso   1.00
H351   H     0.83501   0.67634   0.58908   0.00000  Uiso   1.00
H352   H     0.72494   0.39999   0.89516   0.00000  Uiso   1.00
H353   H     0.07881   0.39638   0.90463   0.00000  Uiso   1.00
H354   H     0.19453   0.27564   0.90903   0.00000  Uiso   1.00
H355   H     0.05513   0.52163   0.83708   0.00000  Uiso   1.00
H356   H     0.00293   0.39058   0.98223   0.00000  Uiso   1.00
H357   H     0.29732   0.14389   0.89109   0.00000  Uiso   1.00
H358   H     0.00337   0.66258   0.73940   0.00000  Uiso   1.00
H359   H     0.89329   0.38623   0.04548   0.00000  Uiso   1.00
O360   O     0.28572   0.07164   0.81564   0.00000  Uiso   1.00
O361   O     0.90006   0.75216   0.61663   0.00000  Uiso   1.00
O362   O     0.75565   0.38959   0.01820   0.00000  Uiso   1.00
N363   N     0.15270   0.17097   0.77555   0.00000  Uiso   1.00
N364   N     0.87788   0.65591   0.63373   0.00000  Uiso   1.00
N365   N     0.77496   0.39757   0.91988   0.00000  Uiso   1.00
N366   N     0.24329   0.16356   0.85644   0.00000  Uiso   1.00
N367   N     0.96848   0.64851   0.71461   0.00000  Uiso   1.00
N368   N     0.86555   0.39017   0.00077   0.00000  Uiso   1.00
C369   C     0.70215   0.31900   0.57208   0.00000  Uiso   1.00
C370   C     0.67862   0.33028   0.49995   0.00000  Uiso   1.00
C371   C     0.69908   0.36556   0.45479   0.00000  Uiso   1.00
C372   C     0.67174   0.37021   0.39116   0.00000  Uiso   1.00
C373   C     0.64227   0.39219   0.28186   0.00000  Uiso   1.00
C374   C     0.74651   0.23634   0.61108   0.00000  Uiso   1.00
C375   C     0.82404   0.19265   0.65938   0.00000  Uiso   1.00
C376   C     0.85384   0.11822   0.68930   0.00000  Uiso   1.00
C377   C     0.92974   0.99438   0.75258   0.00000  Uiso   1.00
C378   C     0.62312   0.35303   0.58280   0.00000  Uiso   1.00
C379   C     0.59691   0.40744   0.60734   0.00000  Uiso   1.00
C380   C     0.52285   0.43124   0.61347   0.00000  Uiso   1.00
C381   C     0.40717   0.48858   0.63284   0.00000  Uiso   1.00
C382   C     0.61723   0.26452   0.53937   0.00000  Uiso   1.00
C383   C     0.63250   0.30069   0.48218   0.00000  Uiso   1.00
C384   C     0.60512   0.30529   0.41860   0.00000  Uiso   1.00
C385   C     0.62553   0.34057   0.37336   0.00000  Uiso   1.00
C386   C     0.70039   0.20675   0.59332   0.00000  Uiso   1.00
C387   C     0.73008   0.13237   0.62318   0.00000  Uiso   1.00
C388   C     0.80764   0.08858   0.67151   0.00000  Uiso   1.00
C389   C     0.57700   0.32344   0.56504   0.00000  Uiso   1.00
C390   C     0.50296   0.34716   0.57114   0.00000  Uiso   1.00
C391   C     0.47664   0.40160   0.59567   0.00000  Uiso   1.00
H392   H     0.73806   0.34203   0.58592   0.00000  Uiso   1.00
H393   H     0.73478   0.38845   0.46856   0.00000  Uiso   1.00
H394   H     0.85971   0.21556   0.67312   0.00000  Uiso   1.00
H395   H     0.63263   0.43032   0.62108   0.00000  Uiso   1.00
H396   H     0.71083   0.42683   0.33062   0.00000  Uiso   1.00
H397   H     0.97425   0.06230   0.76196   0.00000  Uiso   1.00
H398   H     0.49539   0.51516   0.65223   0.00000  Uiso   1.00
H399   H     0.58132   0.24148   0.52554   0.00000  Uiso   1.00
H400   H     0.56943   0.28238   0.40486   0.00000  Uiso   1.00
H401   H     0.69437   0.10949   0.60942   0.00000  Uiso   1.00
H402   H     0.46728   0.32425   0.55739   0.00000  Uiso   1.00
H403   H     0.57663   0.34074   0.27892   0.00000  Uiso   1.00
H404   H     0.84005   0.97621   0.71026   0.00000  Uiso   1.00
H405   H     0.36119   0.42907   0.60053   0.00000  Uiso   1.00
O406   O     0.63876   0.41248   0.22648   0.00000  Uiso   1.00
O407   O     0.98435   0.93424   0.79239   0.00000  Uiso   1.00
O408   O     0.35610   0.52838   0.64843   0.00000  Uiso   1.00
N409   N     0.68086   0.40097   0.33501   0.00000  Uiso   1.00
N410   N     0.92715   0.06016   0.73828   0.00000  Uiso   1.00
N411   N     0.47946   0.48353   0.63571   0.00000  Uiso   1.00
N412   N     0.60865   0.35465   0.30719   0.00000  Uiso   1.00
N413   N     0.85493   0.01383   0.71046   0.00000  Uiso   1.00
N414   N     0.40725   0.43720   0.60789   0.00000  Uiso   1.00
C415   C     0.85692   0.73076   0.30318   0.00000  Uiso   1.00
C416   C     0.93412   0.72025   0.29458   0.00000  Uiso   1.00
C417   C     0.94106   0.74400   0.23522   0.00000  Uiso   1.00
C418   C     0.01692   0.72904   0.23775   0.00000  Uiso   1.00
C419   C     0.12669   0.71838   0.21530   0.00000  Uiso   1.00
C420   C     0.87659   0.65402   0.34101   0.00000  Uiso   1.00
C421   C     0.83514   0.62208   0.32069   0.00000  Uiso   1.00
C422   C     0.86257   0.55137   0.36232   0.00000  Uiso   1.00
C423   C     0.88297   0.43790   0.41198   0.00000  Uiso   1.00
C424   C     0.84394   0.77084   0.34936   0.00000  Uiso   1.00
C425   C     0.77503   0.83713   0.33608   0.00000  Uiso   1.00
C426   C     0.77496   0.86476   0.38474   0.00000  Uiso   1.00
C427   C     0.74467   0.93269   0.44737   0.00000  Uiso   1.00
C428   C     0.97932   0.66196   0.41324   0.00000  Uiso   1.00
C429   C     0.00060   0.68288   0.35436   0.00000  Uiso   1.00
C430   C     0.07648   0.66788   0.35698   0.00000  Uiso   1.00
C431   C     0.08352   0.69160   0.29764   0.00000  Uiso   1.00
C432   C     0.94307   0.61665   0.40079   0.00000  Uiso   1.00
C433   C     0.97056   0.54597   0.44246   0.00000  Uiso   1.00
C434   C     0.92917   0.51393   0.42220   0.00000  Uiso   1.00
C435   C     0.91042   0.73348   0.40914   0.00000  Uiso   1.00
C436   C     0.91045   0.76101   0.45784   0.00000  Uiso   1.00
C437   C     0.84156   0.82733   0.44463   0.00000  Uiso   1.00
H438   H     0.80516   0.75984   0.25664   0.00000  Uiso   1.00
H439   H     0.88960   0.77291   0.18896   0.00000  Uiso   1.00
H440   H     0.78369   0.65102   0.27443   0.00000  Uiso   1.00
H441   H     0.72360   0.86603   0.28981   0.00000  Uiso   1.00
H442   H     0.01253   0.77089   0.14030   0.00000  Uiso   1.00
H443   H     0.78920   0.51388   0.32051   0.00000  Uiso   1.00
H444   H     0.66248   0.96728   0.35295   0.00000  Uiso   1.00
H445   H     0.03108   0.63287   0.45978   0.00000  Uiso   1.00
H446   H     0.12791   0.63897   0.40325   0.00000  Uiso   1.00
H447   H     0.02200   0.51707   0.48872   0.00000  Uiso   1.00
H448   H     0.96191   0.73208   0.50410   0.00000  Uiso   1.00
H449   H     0.20596   0.66217   0.31422   0.00000  Uiso   1.00
H450   H     0.98262   0.40517   0.49444   0.00000  Uiso   1.00
H451   H     0.85590   0.85856   0.52687   0.00000  Uiso   1.00
O452   O     0.16887   0.72281   0.18641   0.00000  Uiso   1.00
O453   O     0.87586   0.38564   0.42285   0.00000  Uiso   1.00
O454   O     0.70961   0.98048   0.46540   0.00000  Uiso   1.00
N455   N     0.04476   0.74448   0.18899   0.00000  Uiso   1.00
N456   N     0.83597   0.50419   0.35748   0.00000  Uiso   1.00
N457   N     0.71748   0.92807   0.38781   0.00000  Uiso   1.00
N458   N     0.14884   0.68598   0.28258   0.00000  Uiso   1.00
N459   N     0.94005   0.44569   0.45106   0.00000  Uiso   1.00
N460   N     0.82157   0.86957   0.48139   0.00000  Uiso   1.00
C461   C     0.80369   0.01577   0.23348   0.00000  Uiso   1.00
C462   C     0.81433   0.02971   0.16819   0.00000  Uiso   1.00
C463   C     0.84601   0.97731   0.14241   0.00000  Uiso   1.00
C464   C     0.85072   0.00106   0.08199   0.00000  Uiso   1.00
C465   C     0.87123   0.01151   0.98570   0.00000  Uiso   1.00
C466   C     0.84950   0.04162   0.27267   0.00000  Uiso   1.00
C467   C     0.91075   0.99924   0.33474   0.00000  Uiso   1.00
C468   C     0.94506   0.03303   0.36227   0.00000  Uiso   1.00
C469   C     0.02015   0.06199   0.42821   0.00000  Uiso   1.00
C470   C     0.71437   0.06873   0.21748   0.00000  Uiso   1.00
C471   C     0.66200   0.04916   0.23315   0.00000  Uiso   1.00
C472   C     0.58254   0.10578   0.21423   0.00000  Uiso   1.00
C473   C     0.44781   0.17683   0.19447   0.00000  Uiso   1.00
C474   C     0.75572   0.15112   0.17203   0.00000  Uiso   1.00
C475   C     0.78827   0.10322   0.13482   0.00000  Uiso   1.00
C476   C     0.79293   0.12706   0.07442   0.00000  Uiso   1.00
C477   C     0.82461   0.07471   0.04855   0.00000  Uiso   1.00
C478   C     0.82345   0.11513   0.23930   0.00000  Uiso   1.00
C479   C     0.85767   0.14899   0.26675   0.00000  Uiso   1.00
C480   C     0.91895   0.10667   0.32883   0.00000  Uiso   1.00
C481   C     0.68831   0.14225   0.18410   0.00000  Uiso   1.00
C482   C     0.60892   0.19891   0.16516   0.00000  Uiso   1.00
C483   C     0.55643   0.17942   0.18079   0.00000  Uiso   1.00
H484   H     0.82398   0.95854   0.25947   0.00000  Uiso   1.00
H485   H     0.86618   0.92042   0.16826   0.00000  Uiso   1.00
H486   H     0.93090   0.94236   0.36055   0.00000  Uiso   1.00
H487   H     0.68219   0.99227   0.25898   0.00000  Uiso   1.00
H488   H     0.90149   0.91059   0.05242   0.00000  Uiso   1.00
H489   H     0.03794   0.95684   0.45790   0.00000  Uiso   1.00
H490   H     0.51348   0.06208   0.24371   0.00000  Uiso   1.00
H491   H     0.73543   0.20835   0.14605   0.00000  Uiso   1.00
H492   H     0.77276   0.18395   0.04860   0.00000  Uiso   1.00
H493   H     0.83749   0.20588   0.24091   0.00000  Uiso   1.00
H494   H     0.58878   0.25579   0.13933   0.00000  Uiso   1.00
H495   H     0.82567   0.12447   0.95530   0.00000  Uiso   1.00
H496   H     0.96213   0.17072   0.36079   0.00000  Uiso   1.00
H497   H     0.43767   0.27597   0.14660   0.00000  Uiso   1.00
O498   O     0.88976   0.99696   0.94182   0.00000  Uiso   1.00
O499   O     0.06877   0.05765   0.47380   0.00000  Uiso   1.00
O500   O     0.38070   0.19572   0.19279   0.00000  Uiso   1.00
N501   N     0.87851   0.96428   0.04293   0.00000  Uiso   1.00
N502   N     0.00609   0.00751   0.42203   0.00000  Uiso   1.00
N503   N     0.51577   0.10591   0.22179   0.00000  Uiso   1.00
N504   N     0.83771   0.07937   0.99067   0.00000  Uiso   1.00
N505   N     0.96530   0.12260   0.36977   0.00000  Uiso   1.00
N506   N     0.47498   0.22100   0.16954   0.00000  Uiso   1.00
C507   C     0.54833   0.11197   0.92503   0.00000  Uiso   1.00
C508   C     0.60207   0.04558   0.91229   0.00000  Uiso   1.00
C509   C     0.68435   0.01397   0.92685   0.00000  Uiso   1.00
C510   C     0.72264   0.95354   0.91138   0.00000  Uiso   1.00
C511   C     0.81256   0.85470   0.89597   0.00000  Uiso   1.00
C512   C     0.48006   0.16841   0.85890   0.00000  Uiso   1.00
C513   C     0.45975   0.24008   0.82858   0.00000  Uiso   1.00
C514   C     0.39532   0.28306   0.76816   0.00000  Uiso   1.00
C515   C     0.29578   0.37493   0.66989   0.00000  Uiso   1.00
C516   C     0.50918   0.08692   0.96732   0.00000  Uiso   1.00
C517   C     0.51333   0.09008   0.02815   0.00000  Uiso   1.00
C518   C     0.47340   0.06446   0.05901   0.00000  Uiso   1.00
C519   C     0.41907   0.02980   0.12907   0.00000  Uiso   1.00
C520   C     0.47003   0.06089   0.87166   0.00000  Uiso   1.00
C521   C     0.55954   0.01784   0.88330   0.00000  Uiso   1.00
C522   C     0.59772   0.95745   0.86780   0.00000  Uiso   1.00
C523   C     0.68004   0.92574   0.88234   0.00000  Uiso   1.00
C524   C     0.43753   0.14067   0.82991   0.00000  Uiso   1.00
C525   C     0.37312   0.18356   0.76953   0.00000  Uiso   1.00
C526   C     0.35272   0.25526   0.73912   0.00000  Uiso   1.00
C527   C     0.46665   0.05917   0.93833   0.00000  Uiso   1.00
C528   C     0.42671   0.03355   0.96910   0.00000  Uiso   1.00
C529   C     0.43080   0.03667   0.02996   0.00000  Uiso   1.00
H530   H     0.58143   0.13358   0.94760   0.00000  Uiso   1.00
H531   H     0.71724   0.03546   0.94928   0.00000  Uiso   1.00
H532   H     0.49266   0.26153   0.85103   0.00000  Uiso   1.00
H533   H     0.54624   0.11155   0.05057   0.00000  Uiso   1.00
H534   H     0.84905   0.91445   0.93834   0.00000  Uiso   1.00
H535   H     0.37550   0.39115   0.73118   0.00000  Uiso   1.00
H536   H     0.48848   0.07490   0.15195   0.00000  Uiso   1.00
H537   H     0.43691   0.03929   0.84908   0.00000  Uiso   1.00
H538   H     0.56480   0.93599   0.84536   0.00000  Uiso   1.00
H539   H     0.34022   0.16207   0.74711   0.00000  Uiso   1.00
H540   H     0.39380   0.01209   0.94665   0.00000  Uiso   1.00
H541   H     0.72532   0.83372   0.85399   0.00000  Uiso   1.00
H542   H     0.25177   0.31043   0.64683   0.00000  Uiso   1.00
H543   H     0.36475   0.99416   0.06760   0.00000  Uiso   1.00
O544   O     0.87391   0.80785   0.89548   0.00000  Uiso   1.00
O545   O     0.25263   0.43327   0.62370   0.00000  Uiso   1.00
O546   O     0.40086   0.01834   0.17573   0.00000  Uiso   1.00
N547   N     0.80238   0.90962   0.91902   0.00000  Uiso   1.00
N548   N     0.35965   0.35530   0.72532   0.00000  Uiso   1.00
N549   N     0.46526   0.05965   0.11870   0.00000  Uiso   1.00
N550   N     0.73580   0.86618   0.87363   0.00000  Uiso   1.00
N551   N     0.29308   0.31186   0.67994   0.00000  Uiso   1.00
N552   N     0.39868   0.01621   0.07331   0.00000  Uiso   1.00
