data_job_02305
_audit_creation_date              2018-12-19
_audit_creation_method            'Materials Studio'
_symmetry_space_group_name_H-M    'P1'
_symmetry_Int_Tables_number       1
_symmetry_cell_setting            triclinic
loop_
_symmetry_equiv_pos_as_xyz
  x,y,z
_cell_length_a                    19.3079
_cell_length_b                    15.2144
_cell_length_c                    26.2153
_cell_angle_alpha                 90.0000
_cell_angle_beta                  139.5456
_cell_angle_gamma                 90.0000
loop_
_atom_site_label
_atom_site_type_symbol
_atom_site_fract_x
_atom_site_fract_y
_atom_site_fract_z
_atom_site_U_iso_or_equiv
_atom_site_adp_type
_atom_site_occupancy
C1     C     0.81431   0.75710   0.03214   0.00000  Uiso   1.00
C2     C     0.73871   0.83287   0.97773   0.00000  Uiso   1.00
C3     C     0.64592   0.85304   0.95216   0.00000  Uiso   1.00
C4     C     0.58774   0.92498   0.90256   0.00000  Uiso   1.00
C5     C     0.46523   0.03500   0.82156   0.00000  Uiso   1.00
C6     C     0.82252   0.70299   0.98793   0.00000  Uiso   1.00
C7     C     0.80021   0.61397   0.97096   0.00000  Uiso   1.00
C8     C     0.81260   0.57658   0.92996   0.00000  Uiso   1.00
C9     C     0.82028   0.48497   0.86485   0.00000  Uiso   1.00
C10    C     0.92396   0.79839   0.10153   0.00000  Uiso   1.00
C11    C     0.98697   0.78957   0.18009   0.00000  Uiso   1.00
C12    C     0.08478   0.83248   0.23473   0.00000  Uiso   1.00
C13    C     0.24997   0.88899   0.34601   0.00000  Uiso   1.00
C14    C     0.87600   0.84897   0.98951   0.00000  Uiso   1.00
C15    C     0.77222   0.88276   0.95457   0.00000  Uiso   1.00
C16    C     0.71417   0.95469   0.90499   0.00000  Uiso   1.00
C17    C     0.62131   0.97497   0.87936   0.00000  Uiso   1.00
C18    C     0.85602   0.75289   0.96478   0.00000  Uiso   1.00
C19    C     0.86846   0.71562   0.92379   0.00000  Uiso   1.00
C20    C     0.84617   0.62657   0.90676   0.00000  Uiso   1.00
C21    C     0.95747   0.84830   0.07838   0.00000  Uiso   1.00
C22    C     0.05521   0.89122   0.13291   0.00000  Uiso   1.00
C23    C     0.11835   0.88247   0.21153   0.00000  Uiso   1.00
H24    H     0.78822   0.71824   0.05017   0.00000  Uiso   1.00
H25    H     0.62001   0.81440   0.97009   0.00000  Uiso   1.00
H26    H     0.77429   0.57537   0.98890   0.00000  Uiso   1.00
H27    H     0.96101   0.75095   0.19798   0.00000  Uiso   1.00
H28    H     0.44827   0.94300   0.87108   0.00000  Uiso   1.00
H29    H     0.77361   0.43899   0.91075   0.00000  Uiso   1.00
H30    H     0.16735   0.80921   0.35166   0.00000  Uiso   1.00
H31    H     0.90209   0.88782   0.97148   0.00000  Uiso   1.00
H32    H     0.74012   0.99329   0.88708   0.00000  Uiso   1.00
H33    H     0.89440   0.75426   0.90589   0.00000  Uiso   1.00
H34    H     0.08112   0.92983   0.11497   0.00000  Uiso   1.00
H35    H     0.54576   0.08819   0.80370   0.00000  Uiso   1.00
H36    H     0.87110   0.58417   0.84338   0.00000  Uiso   1.00
H37    H     0.26484   0.95441   0.28428   0.00000  Uiso   1.00
O38    O     0.38840   0.08190   0.78327   0.00000  Uiso   1.00
O39    O     0.81525   0.42065   0.83534   0.00000  Uiso   1.00
O40    O     0.33182   0.90638   0.41379   0.00000  Uiso   1.00
N41    N     0.49345   0.96271   0.86682   0.00000  Uiso   1.00
N42    N     0.79761   0.49149   0.90390   0.00000  Uiso   1.00
N43    N     0.16574   0.83760   0.31611   0.00000  Uiso   1.00
N44    N     0.54591   0.04084   0.83056   0.00000  Uiso   1.00
N45    N     0.85006   0.56961   0.86764   0.00000  Uiso   1.00
N46    N     0.21819   0.91573   0.27985   0.00000  Uiso   1.00
C47    C     0.18269   0.23712   0.47262   0.00000  Uiso   1.00
C48    C     0.21239   0.15477   0.51923   0.00000  Uiso   1.00
C49    C     0.16761   0.12866   0.54012   0.00000  Uiso   1.00
C50    C     0.20571   0.05125   0.58280   0.00000  Uiso   1.00
C51    C     0.23970   0.93092   0.65202   0.00000  Uiso   1.00
C52    C     0.28614   0.28855   0.52359   0.00000  Uiso   1.00
C53    C     0.30335   0.37492   0.54814   0.00000  Uiso   1.00
C54    C     0.40353   0.41013   0.59449   0.00000  Uiso   1.00
C55    C     0.55198   0.49752   0.67043   0.00000  Uiso   1.00
C56    C     0.15048   0.20566   0.40153   0.00000  Uiso   1.00
C57    C     0.05364   0.22236   0.32344   0.00000  Uiso   1.00
C58    C     0.03961   0.18780   0.26702   0.00000  Uiso   1.00
C59    C     0.97743   0.14650   0.15344   0.00000  Uiso   1.00
C60    C     0.32997   0.14607   0.51127   0.00000  Uiso   1.00
C61    C     0.29239   0.10531   0.54022   0.00000  Uiso   1.00
C62    C     0.33056   0.02792   0.58288   0.00000  Uiso   1.00
C63    C     0.28585   0.00170   0.60383   0.00000  Uiso   1.00
C64    C     0.36613   0.23910   0.54458   0.00000  Uiso   1.00
C65    C     0.46630   0.27419   0.59090   0.00000  Uiso   1.00
C66    C     0.48367   0.36059   0.61552   0.00000  Uiso   1.00
C67    C     0.23047   0.15620   0.42252   0.00000  Uiso   1.00
C68    C     0.21659   0.12162   0.36621   0.00000  Uiso   1.00
C69    C     0.11975   0.13826   0.28805   0.00000  Uiso   1.00
H70    H     0.12041   0.27563   0.45628   0.00000  Uiso   1.00
H71    H     0.10571   0.16695   0.52387   0.00000  Uiso   1.00
H72    H     0.24143   0.41318   0.53188   0.00000  Uiso   1.00
H73    H     0.99176   0.26064   0.30722   0.00000  Uiso   1.00
H74    H     0.12472   0.02467   0.60809   0.00000  Uiso   1.00
H75    H     0.41087   0.54387   0.62496   0.00000  Uiso   1.00
H76    H     0.88439   0.22220   0.15122   0.00000  Uiso   1.00
H77    H     0.39226   0.10757   0.52761   0.00000  Uiso   1.00
H78    H     0.39247   0.98966   0.59912   0.00000  Uiso   1.00
H79    H     0.52819   0.23590   0.60713   0.00000  Uiso   1.00
H80    H     0.27852   0.08335   0.38247   0.00000  Uiso   1.00
H81    H     0.35747   0.88078   0.66917   0.00000  Uiso   1.00
H82    H     0.64362   0.39998   0.68603   0.00000  Uiso   1.00
H83    H     0.11714   0.07831   0.21230   0.00000  Uiso   1.00
O84    O     0.23636   0.87822   0.68441   0.00000  Uiso   1.00
O85    O     0.61177   0.55938   0.70652   0.00000  Uiso   1.00
O86    O     0.92103   0.13736   0.08499   0.00000  Uiso   1.00
N87    N     0.17946   0.00698   0.61264   0.00000  Uiso   1.00
N88    N     0.44699   0.49239   0.62842   0.00000  Uiso   1.00
N89    N     0.95479   0.19168   0.18552   0.00000  Uiso   1.00
N90    N     0.30469   0.92955   0.64550   0.00000  Uiso   1.00
N91    N     0.57223   0.41496   0.66129   0.00000  Uiso   1.00
N92    N     0.08002   0.11425   0.21838   0.00000  Uiso   1.00
C93    C     0.31431   0.25710   0.03214   0.00000  Uiso   1.00
C94    C     0.23871   0.33287   0.97773   0.00000  Uiso   1.00
C95    C     0.14592   0.35304   0.95216   0.00000  Uiso   1.00
C96    C     0.08774   0.42498   0.90256   0.00000  Uiso   1.00
C97    C     0.96523   0.53500   0.82156   0.00000  Uiso   1.00
C98    C     0.32252   0.20299   0.98793   0.00000  Uiso   1.00
C99    C     0.30021   0.11397   0.97096   0.00000  Uiso   1.00
C100   C     0.31260   0.07658   0.92996   0.00000  Uiso   1.00
C101   C     0.32028   0.98497   0.86485   0.00000  Uiso   1.00
C102   C     0.42396   0.29839   0.10153   0.00000  Uiso   1.00
C103   C     0.48697   0.28957   0.18009   0.00000  Uiso   1.00
C104   C     0.58478   0.33248   0.23473   0.00000  Uiso   1.00
C105   C     0.74997   0.38899   0.34601   0.00000  Uiso   1.00
C106   C     0.37600   0.34897   0.98951   0.00000  Uiso   1.00
C107   C     0.27222   0.38276   0.95457   0.00000  Uiso   1.00
C108   C     0.21417   0.45469   0.90499   0.00000  Uiso   1.00
C109   C     0.12131   0.47497   0.87936   0.00000  Uiso   1.00
C110   C     0.35602   0.25289   0.96478   0.00000  Uiso   1.00
C111   C     0.36846   0.21562   0.92379   0.00000  Uiso   1.00
C112   C     0.34617   0.12657   0.90676   0.00000  Uiso   1.00
C113   C     0.45747   0.34830   0.07838   0.00000  Uiso   1.00
C114   C     0.55521   0.39122   0.13291   0.00000  Uiso   1.00
C115   C     0.61835   0.38247   0.21153   0.00000  Uiso   1.00
H116   H     0.28822   0.21824   0.05017   0.00000  Uiso   1.00
H117   H     0.12001   0.31440   0.97009   0.00000  Uiso   1.00
H118   H     0.27429   0.07537   0.98890   0.00000  Uiso   1.00
H119   H     0.46101   0.25095   0.19798   0.00000  Uiso   1.00
H120   H     0.94827   0.44300   0.87108   0.00000  Uiso   1.00
H121   H     0.27361   0.93899   0.91075   0.00000  Uiso   1.00
H122   H     0.66735   0.30921   0.35166   0.00000  Uiso   1.00
H123   H     0.40209   0.38782   0.97148   0.00000  Uiso   1.00
H124   H     0.24012   0.49329   0.88708   0.00000  Uiso   1.00
H125   H     0.39440   0.25426   0.90589   0.00000  Uiso   1.00
H126   H     0.58112   0.42983   0.11497   0.00000  Uiso   1.00
H127   H     0.04576   0.58819   0.80370   0.00000  Uiso   1.00
H128   H     0.37110   0.08417   0.84338   0.00000  Uiso   1.00
H129   H     0.76484   0.45441   0.28428   0.00000  Uiso   1.00
O130   O     0.88840   0.58190   0.78327   0.00000  Uiso   1.00
O131   O     0.31525   0.92065   0.83534   0.00000  Uiso   1.00
O132   O     0.83182   0.40638   0.41379   0.00000  Uiso   1.00
N133   N     0.99345   0.46271   0.86682   0.00000  Uiso   1.00
N134   N     0.29761   0.99149   0.90390   0.00000  Uiso   1.00
N135   N     0.66574   0.33760   0.31611   0.00000  Uiso   1.00
N136   N     0.04591   0.54084   0.83056   0.00000  Uiso   1.00
N137   N     0.35006   0.06961   0.86764   0.00000  Uiso   1.00
N138   N     0.71819   0.41573   0.27985   0.00000  Uiso   1.00
C139   C     0.68269   0.73712   0.47262   0.00000  Uiso   1.00
C140   C     0.71239   0.65477   0.51923   0.00000  Uiso   1.00
C141   C     0.66761   0.62866   0.54012   0.00000  Uiso   1.00
C142   C     0.70571   0.55125   0.58280   0.00000  Uiso   1.00
C143   C     0.73970   0.43092   0.65202   0.00000  Uiso   1.00
C144   C     0.78614   0.78855   0.52359   0.00000  Uiso   1.00
C145   C     0.80335   0.87492   0.54814   0.00000  Uiso   1.00
C146   C     0.90353   0.91013   0.59449   0.00000  Uiso   1.00
C147   C     0.05198   0.99752   0.67043   0.00000  Uiso   1.00
C148   C     0.65048   0.70566   0.40153   0.00000  Uiso   1.00
C149   C     0.55364   0.72236   0.32344   0.00000  Uiso   1.00
C150   C     0.53961   0.68780   0.26702   0.00000  Uiso   1.00
C151   C     0.47743   0.64650   0.15344   0.00000  Uiso   1.00
C152   C     0.82997   0.64607   0.51127   0.00000  Uiso   1.00
C153   C     0.79239   0.60531   0.54022   0.00000  Uiso   1.00
C154   C     0.83056   0.52792   0.58288   0.00000  Uiso   1.00
C155   C     0.78585   0.50170   0.60383   0.00000  Uiso   1.00
C156   C     0.86613   0.73910   0.54458   0.00000  Uiso   1.00
C157   C     0.96630   0.77419   0.59090   0.00000  Uiso   1.00
C158   C     0.98367   0.86059   0.61552   0.00000  Uiso   1.00
C159   C     0.73047   0.65620   0.42252   0.00000  Uiso   1.00
C160   C     0.71659   0.62162   0.36621   0.00000  Uiso   1.00
C161   C     0.61975   0.63826   0.28805   0.00000  Uiso   1.00
H162   H     0.62041   0.77563   0.45628   0.00000  Uiso   1.00
H163   H     0.60571   0.66695   0.52387   0.00000  Uiso   1.00
H164   H     0.74143   0.91318   0.53188   0.00000  Uiso   1.00
H165   H     0.49176   0.76064   0.30722   0.00000  Uiso   1.00
H166   H     0.62472   0.52467   0.60809   0.00000  Uiso   1.00
H167   H     0.91087   0.04387   0.62496   0.00000  Uiso   1.00
H168   H     0.38439   0.72220   0.15122   0.00000  Uiso   1.00
H169   H     0.89226   0.60757   0.52761   0.00000  Uiso   1.00
H170   H     0.89247   0.48966   0.59912   0.00000  Uiso   1.00
H171   H     0.02819   0.73590   0.60713   0.00000  Uiso   1.00
H172   H     0.77852   0.58335   0.38247   0.00000  Uiso   1.00
H173   H     0.85747   0.38078   0.66917   0.00000  Uiso   1.00
H174   H     0.14362   0.89998   0.68603   0.00000  Uiso   1.00
H175   H     0.61714   0.57831   0.21230   0.00000  Uiso   1.00
O176   O     0.73636   0.37822   0.68441   0.00000  Uiso   1.00
O177   O     0.11177   0.05938   0.70652   0.00000  Uiso   1.00
O178   O     0.42103   0.63736   0.08499   0.00000  Uiso   1.00
N179   N     0.67946   0.50698   0.61264   0.00000  Uiso   1.00
N180   N     0.94699   0.99239   0.62842   0.00000  Uiso   1.00
N181   N     0.45479   0.69168   0.18552   0.00000  Uiso   1.00
N182   N     0.80469   0.42955   0.64550   0.00000  Uiso   1.00
N183   N     0.07223   0.91496   0.66129   0.00000  Uiso   1.00
N184   N     0.58002   0.61425   0.21838   0.00000  Uiso   1.00
C185   C     0.18569   0.75710   0.96786   0.00000  Uiso   1.00
C186   C     0.26129   0.83287   0.02227   0.00000  Uiso   1.00
C187   C     0.35408   0.85304   0.04784   0.00000  Uiso   1.00
C188   C     0.41226   0.92498   0.09744   0.00000  Uiso   1.00
C189   C     0.53477   0.03500   0.17844   0.00000  Uiso   1.00
C190   C     0.17748   0.70299   0.01207   0.00000  Uiso   1.00
C191   C     0.19979   0.61397   0.02904   0.00000  Uiso   1.00
C192   C     0.18740   0.57658   0.07004   0.00000  Uiso   1.00
C193   C     0.17972   0.48497   0.13515   0.00000  Uiso   1.00
C194   C     0.07604   0.79839   0.89847   0.00000  Uiso   1.00
C195   C     0.01303   0.78957   0.81991   0.00000  Uiso   1.00
C196   C     0.91522   0.83248   0.76527   0.00000  Uiso   1.00
C197   C     0.75003   0.88899   0.65399   0.00000  Uiso   1.00
C198   C     0.12400   0.84897   0.01049   0.00000  Uiso   1.00
C199   C     0.22778   0.88276   0.04543   0.00000  Uiso   1.00
C200   C     0.28583   0.95469   0.09501   0.00000  Uiso   1.00
C201   C     0.37869   0.97497   0.12064   0.00000  Uiso   1.00
C202   C     0.14398   0.75289   0.03522   0.00000  Uiso   1.00
C203   C     0.13154   0.71562   0.07621   0.00000  Uiso   1.00
C204   C     0.15383   0.62657   0.09324   0.00000  Uiso   1.00
C205   C     0.04253   0.84830   0.92162   0.00000  Uiso   1.00
C206   C     0.94479   0.89122   0.86709   0.00000  Uiso   1.00
C207   C     0.88165   0.88247   0.78847   0.00000  Uiso   1.00
H208   H     0.21178   0.71824   0.94983   0.00000  Uiso   1.00
H209   H     0.37999   0.81440   0.02991   0.00000  Uiso   1.00
H210   H     0.22571   0.57537   0.01110   0.00000  Uiso   1.00
H211   H     0.03899   0.75095   0.80202   0.00000  Uiso   1.00
H212   H     0.55173   0.94300   0.12892   0.00000  Uiso   1.00
H213   H     0.22639   0.43899   0.08925   0.00000  Uiso   1.00
H214   H     0.83265   0.80921   0.64834   0.00000  Uiso   1.00
H215   H     0.09791   0.88782   0.02852   0.00000  Uiso   1.00
H216   H     0.25988   0.99329   0.11292   0.00000  Uiso   1.00
H217   H     0.10560   0.75426   0.09411   0.00000  Uiso   1.00
H218   H     0.91888   0.92983   0.88503   0.00000  Uiso   1.00
H219   H     0.45424   0.08819   0.19630   0.00000  Uiso   1.00
H220   H     0.12890   0.58417   0.15662   0.00000  Uiso   1.00
H221   H     0.73516   0.95441   0.71572   0.00000  Uiso   1.00
O222   O     0.61160   0.08190   0.21673   0.00000  Uiso   1.00
O223   O     0.18475   0.42065   0.16466   0.00000  Uiso   1.00
O224   O     0.66818   0.90638   0.58621   0.00000  Uiso   1.00
N225   N     0.50655   0.96271   0.13318   0.00000  Uiso   1.00
N226   N     0.20239   0.49149   0.09610   0.00000  Uiso   1.00
N227   N     0.83426   0.83760   0.68389   0.00000  Uiso   1.00
N228   N     0.45409   0.04084   0.16944   0.00000  Uiso   1.00
N229   N     0.14994   0.56961   0.13236   0.00000  Uiso   1.00
N230   N     0.78181   0.91573   0.72015   0.00000  Uiso   1.00
C231   C     0.81731   0.23712   0.52738   0.00000  Uiso   1.00
C232   C     0.78761   0.15477   0.48077   0.00000  Uiso   1.00
C233   C     0.83239   0.12866   0.45988   0.00000  Uiso   1.00
C234   C     0.79429   0.05125   0.41720   0.00000  Uiso   1.00
C235   C     0.76030   0.93092   0.34798   0.00000  Uiso   1.00
C236   C     0.71386   0.28855   0.47641   0.00000  Uiso   1.00
C237   C     0.69665   0.37492   0.45186   0.00000  Uiso   1.00
C238   C     0.59647   0.41013   0.40551   0.00000  Uiso   1.00
C239   C     0.44802   0.49752   0.32957   0.00000  Uiso   1.00
C240   C     0.84952   0.20566   0.59847   0.00000  Uiso   1.00
C241   C     0.94636   0.22236   0.67656   0.00000  Uiso   1.00
C242   C     0.96039   0.18780   0.73298   0.00000  Uiso   1.00
C243   C     0.02257   0.14650   0.84656   0.00000  Uiso   1.00
C244   C     0.67003   0.14607   0.48873   0.00000  Uiso   1.00
C245   C     0.70761   0.10531   0.45978   0.00000  Uiso   1.00
C246   C     0.66944   0.02792   0.41712   0.00000  Uiso   1.00
C247   C     0.71415   0.00170   0.39617   0.00000  Uiso   1.00
C248   C     0.63387   0.23910   0.45542   0.00000  Uiso   1.00
C249   C     0.53370   0.27419   0.40910   0.00000  Uiso   1.00
C250   C     0.51633   0.36059   0.38448   0.00000  Uiso   1.00
C251   C     0.76953   0.15620   0.57748   0.00000  Uiso   1.00
C252   C     0.78341   0.12162   0.63379   0.00000  Uiso   1.00
C253   C     0.88025   0.13826   0.71195   0.00000  Uiso   1.00
H254   H     0.87959   0.27563   0.54372   0.00000  Uiso   1.00
H255   H     0.89429   0.16695   0.47613   0.00000  Uiso   1.00
H256   H     0.75857   0.41318   0.46812   0.00000  Uiso   1.00
H257   H     0.00824   0.26064   0.69278   0.00000  Uiso   1.00
H258   H     0.87528   0.02467   0.39191   0.00000  Uiso   1.00
H259   H     0.58913   0.54387   0.37504   0.00000  Uiso   1.00
H260   H     0.11561   0.22220   0.84878   0.00000  Uiso   1.00
H261   H     0.60774   0.10757   0.47239   0.00000  Uiso   1.00
H262   H     0.60753   0.98966   0.40088   0.00000  Uiso   1.00
H263   H     0.47181   0.23590   0.39287   0.00000  Uiso   1.00
H264   H     0.72148   0.08335   0.61753   0.00000  Uiso   1.00
H265   H     0.64253   0.88078   0.33083   0.00000  Uiso   1.00
H266   H     0.35638   0.39998   0.31397   0.00000  Uiso   1.00
H267   H     0.88286   0.07831   0.78770   0.00000  Uiso   1.00
O268   O     0.76364   0.87822   0.31559   0.00000  Uiso   1.00
O269   O     0.38823   0.55938   0.29348   0.00000  Uiso   1.00
O270   O     0.07897   0.13736   0.91501   0.00000  Uiso   1.00
N271   N     0.82054   0.00698   0.38736   0.00000  Uiso   1.00
N272   N     0.55301   0.49239   0.37158   0.00000  Uiso   1.00
N273   N     0.04521   0.19168   0.81448   0.00000  Uiso   1.00
N274   N     0.69531   0.92955   0.35450   0.00000  Uiso   1.00
N275   N     0.42777   0.41496   0.33871   0.00000  Uiso   1.00
N276   N     0.91998   0.11425   0.78162   0.00000  Uiso   1.00
C277   C     0.68569   0.25710   0.96786   0.00000  Uiso   1.00
C278   C     0.76129   0.33287   0.02227   0.00000  Uiso   1.00
C279   C     0.85408   0.35304   0.04784   0.00000  Uiso   1.00
C280   C     0.91226   0.42498   0.09744   0.00000  Uiso   1.00
C281   C     0.03477   0.53500   0.17844   0.00000  Uiso   1.00
C282   C     0.67748   0.20299   0.01207   0.00000  Uiso   1.00
C283   C     0.69979   0.11397   0.02904   0.00000  Uiso   1.00
C284   C     0.68740   0.07658   0.07004   0.00000  Uiso   1.00
C285   C     0.67972   0.98497   0.13515   0.00000  Uiso   1.00
C286   C     0.57604   0.29839   0.89847   0.00000  Uiso   1.00
C287   C     0.51303   0.28957   0.81991   0.00000  Uiso   1.00
C288   C     0.41522   0.33248   0.76527   0.00000  Uiso   1.00
C289   C     0.25003   0.38899   0.65399   0.00000  Uiso   1.00
C290   C     0.62400   0.34897   0.01049   0.00000  Uiso   1.00
C291   C     0.72778   0.38276   0.04543   0.00000  Uiso   1.00
C292   C     0.78583   0.45469   0.09501   0.00000  Uiso   1.00
C293   C     0.87869   0.47497   0.12064   0.00000  Uiso   1.00
C294   C     0.64398   0.25289   0.03522   0.00000  Uiso   1.00
C295   C     0.63154   0.21562   0.07621   0.00000  Uiso   1.00
C296   C     0.65383   0.12657   0.09324   0.00000  Uiso   1.00
C297   C     0.54253   0.34830   0.92162   0.00000  Uiso   1.00
C298   C     0.44479   0.39122   0.86709   0.00000  Uiso   1.00
C299   C     0.38165   0.38247   0.78847   0.00000  Uiso   1.00
H300   H     0.71178   0.21824   0.94983   0.00000  Uiso   1.00
H301   H     0.87999   0.31440   0.02991   0.00000  Uiso   1.00
H302   H     0.72571   0.07537   0.01110   0.00000  Uiso   1.00
H303   H     0.53899   0.25095   0.80202   0.00000  Uiso   1.00
H304   H     0.05173   0.44300   0.12892   0.00000  Uiso   1.00
H305   H     0.72639   0.93899   0.08925   0.00000  Uiso   1.00
H306   H     0.33265   0.30921   0.64834   0.00000  Uiso   1.00
H307   H     0.59791   0.38782   0.02852   0.00000  Uiso   1.00
H308   H     0.75988   0.49329   0.11292   0.00000  Uiso   1.00
H309   H     0.60560   0.25426   0.09411   0.00000  Uiso   1.00
H310   H     0.41888   0.42983   0.88503   0.00000  Uiso   1.00
H311   H     0.95424   0.58819   0.19630   0.00000  Uiso   1.00
H312   H     0.62890   0.08417   0.15662   0.00000  Uiso   1.00
H313   H     0.23516   0.45441   0.71572   0.00000  Uiso   1.00
O314   O     0.11160   0.58190   0.21673   0.00000  Uiso   1.00
O315   O     0.68475   0.92065   0.16466   0.00000  Uiso   1.00
O316   O     0.16818   0.40638   0.58621   0.00000  Uiso   1.00
N317   N     0.00655   0.46271   0.13318   0.00000  Uiso   1.00
N318   N     0.70239   0.99149   0.09610   0.00000  Uiso   1.00
N319   N     0.33426   0.33760   0.68389   0.00000  Uiso   1.00
N320   N     0.95409   0.54084   0.16944   0.00000  Uiso   1.00
N321   N     0.64994   0.06961   0.13236   0.00000  Uiso   1.00
N322   N     0.28181   0.41573   0.72015   0.00000  Uiso   1.00
C323   C     0.31731   0.73712   0.52738   0.00000  Uiso   1.00
C324   C     0.28761   0.65477   0.48077   0.00000  Uiso   1.00
C325   C     0.33239   0.62866   0.45988   0.00000  Uiso   1.00
C326   C     0.29429   0.55125   0.41720   0.00000  Uiso   1.00
C327   C     0.26030   0.43092   0.34798   0.00000  Uiso   1.00
C328   C     0.21386   0.78855   0.47641   0.00000  Uiso   1.00
C329   C     0.19665   0.87492   0.45186   0.00000  Uiso   1.00
C330   C     0.09647   0.91013   0.40551   0.00000  Uiso   1.00
C331   C     0.94802   0.99752   0.32957   0.00000  Uiso   1.00
C332   C     0.34952   0.70566   0.59847   0.00000  Uiso   1.00
C333   C     0.44636   0.72236   0.67656   0.00000  Uiso   1.00
C334   C     0.46039   0.68780   0.73298   0.00000  Uiso   1.00
C335   C     0.52257   0.64650   0.84656   0.00000  Uiso   1.00
C336   C     0.17003   0.64607   0.48873   0.00000  Uiso   1.00
C337   C     0.20761   0.60531   0.45978   0.00000  Uiso   1.00
C338   C     0.16944   0.52792   0.41712   0.00000  Uiso   1.00
C339   C     0.21415   0.50170   0.39617   0.00000  Uiso   1.00
C340   C     0.13387   0.73910   0.45542   0.00000  Uiso   1.00
C341   C     0.03370   0.77419   0.40910   0.00000  Uiso   1.00
C342   C     0.01633   0.86059   0.38448   0.00000  Uiso   1.00
C343   C     0.26953   0.65620   0.57748   0.00000  Uiso   1.00
C344   C     0.28341   0.62162   0.63379   0.00000  Uiso   1.00
C345   C     0.38025   0.63826   0.71195   0.00000  Uiso   1.00
H346   H     0.37959   0.77563   0.54372   0.00000  Uiso   1.00
H347   H     0.39429   0.66695   0.47613   0.00000  Uiso   1.00
H348   H     0.25857   0.91318   0.46812   0.00000  Uiso   1.00
H349   H     0.50824   0.76064   0.69278   0.00000  Uiso   1.00
H350   H     0.37528   0.52467   0.39191   0.00000  Uiso   1.00
H351   H     0.08913   0.04387   0.37504   0.00000  Uiso   1.00
H352   H     0.61561   0.72220   0.84878   0.00000  Uiso   1.00
H353   H     0.10774   0.60757   0.47239   0.00000  Uiso   1.00
H354   H     0.10753   0.48966   0.40088   0.00000  Uiso   1.00
H355   H     0.97181   0.73590   0.39287   0.00000  Uiso   1.00
H356   H     0.22148   0.58335   0.61753   0.00000  Uiso   1.00
H357   H     0.14253   0.38078   0.33083   0.00000  Uiso   1.00
H358   H     0.85638   0.89998   0.31397   0.00000  Uiso   1.00
H359   H     0.38286   0.57831   0.78770   0.00000  Uiso   1.00
O360   O     0.26364   0.37822   0.31559   0.00000  Uiso   1.00
O361   O     0.88823   0.05938   0.29348   0.00000  Uiso   1.00
O362   O     0.57897   0.63736   0.91501   0.00000  Uiso   1.00
N363   N     0.32054   0.50698   0.38736   0.00000  Uiso   1.00
N364   N     0.05301   0.99239   0.37158   0.00000  Uiso   1.00
N365   N     0.54521   0.69168   0.81448   0.00000  Uiso   1.00
N366   N     0.19531   0.42955   0.35450   0.00000  Uiso   1.00
N367   N     0.92777   0.91496   0.33871   0.00000  Uiso   1.00
N368   N     0.41998   0.61425   0.78162   0.00000  Uiso   1.00
