data_job_07007
_audit_creation_date              2018-12-19
_audit_creation_method            'Materials Studio'
_symmetry_space_group_name_H-M    'P1'
_symmetry_Int_Tables_number       1
_symmetry_cell_setting            triclinic
loop_
_symmetry_equiv_pos_as_xyz
  x,y,z
_cell_length_a                    20.7481
_cell_length_b                    21.7683
_cell_length_c                    21.0839
_cell_angle_alpha                 103.8660
_cell_angle_beta                  108.8550
_cell_angle_gamma                 95.3537
loop_
_atom_site_label
_atom_site_type_symbol
_atom_site_fract_x
_atom_site_fract_y
_atom_site_fract_z
_atom_site_U_iso_or_equiv
_atom_site_adp_type
_atom_site_occupancy
C1     C     0.68893   0.41589   0.57753   0.00000  Uiso   1.00
C2     C     0.72342   0.35800   0.56234   0.00000  Uiso   1.00
C3     C     0.76283   0.34893   0.51991   0.00000  Uiso   1.00
C4     C     0.78990   0.29277   0.51267   0.00000  Uiso   1.00
C5     C     0.84524   0.20978   0.48388   0.00000  Uiso   1.00
C6     C     0.61212   0.38875   0.55624   0.00000  Uiso   1.00
C7     C     0.55794   0.40553   0.50869   0.00000  Uiso   1.00
C8     C     0.49132   0.37526   0.49633   0.00000  Uiso   1.00
C9     C     0.37385   0.34004   0.45811   0.00000  Uiso   1.00
C10    C     0.71619   0.44362   0.65691   0.00000  Uiso   1.00
C11    C     0.74949   0.50654   0.69400   0.00000  Uiso   1.00
C12    C     0.77048   0.52247   0.76639   0.00000  Uiso   1.00
C13    C     0.81460   0.57244   0.88446   0.00000  Uiso   1.00
C14    C     0.66695   0.33228   0.64013   0.00000  Uiso   1.00
C15    C     0.71148   0.31259   0.59634   0.00000  Uiso   1.00
C16    C     0.73851   0.25643   0.58917   0.00000  Uiso   1.00
C17    C     0.77794   0.24728   0.54674   0.00000  Uiso   1.00
C18    C     0.60018   0.34334   0.59024   0.00000  Uiso   1.00
C19    C     0.53362   0.31303   0.57795   0.00000  Uiso   1.00
C20    C     0.47935   0.32977   0.53039   0.00000  Uiso   1.00
C21    C     0.70425   0.39821   0.69091   0.00000  Uiso   1.00
C22    C     0.72518   0.41404   0.76326   0.00000  Uiso   1.00
C23    C     0.75851   0.47698   0.80045   0.00000  Uiso   1.00
H24    H     0.69822   0.45124   0.55106   0.00000  Uiso   1.00
H25    H     0.77205   0.38408   0.49360   0.00000  Uiso   1.00
H26    H     0.56719   0.44068   0.48239   0.00000  Uiso   1.00
H27    H     0.75872   0.54167   0.66767   0.00000  Uiso   1.00
H28    H     0.84861   0.28958   0.44487   0.00000  Uiso   1.00
H29    H     0.41666   0.40894   0.42125   0.00000  Uiso   1.00
H30    H     0.82054   0.62190   0.81194   0.00000  Uiso   1.00
H31    H     0.65765   0.29693   0.66661   0.00000  Uiso   1.00
H32    H     0.72926   0.22130   0.61549   0.00000  Uiso   1.00
H33    H     0.52440   0.27790   0.60428   0.00000  Uiso   1.00
H34    H     0.71593   0.37889   0.78955   0.00000  Uiso   1.00
H35    H     0.81388   0.15746   0.54379   0.00000  Uiso   1.00
H36    H     0.38193   0.27682   0.52018   0.00000  Uiso   1.00
H37    H     0.78580   0.48978   0.91087   0.00000  Uiso   1.00
O38    O     0.87906   0.17654   0.45860   0.00000  Uiso   1.00
O39    O     0.31236   0.33315   0.42763   0.00000  Uiso   1.00
O40    O     0.84224   0.61254   0.94020   0.00000  Uiso   1.00
N41    N     0.83062   0.26887   0.47518   0.00000  Uiso   1.00
N42    N     0.42678   0.38046   0.45309   0.00000  Uiso   1.00
N43    N     0.80435   0.57956   0.81835   0.00000  Uiso   1.00
N44    N     0.81193   0.19778   0.52841   0.00000  Uiso   1.00
N45    N     0.40809   0.30937   0.50632   0.00000  Uiso   1.00
N46    N     0.78566   0.50847   0.87158   0.00000  Uiso   1.00
C47    C     0.63632   0.72454   0.35498   0.00000  Uiso   1.00
C48    C     0.59786   0.75346   0.29772   0.00000  Uiso   1.00
C49    C     0.56342   0.80472   0.30659   0.00000  Uiso   1.00
C50    C     0.53143   0.82400   0.24770   0.00000  Uiso   1.00
C51    C     0.47132   0.87359   0.16874   0.00000  Uiso   1.00
C52    C     0.60402   0.65316   0.32961   0.00000  Uiso   1.00
C53    C     0.57476   0.62008   0.36529   0.00000  Uiso   1.00
C54    C     0.54796   0.55493   0.33324   0.00000  Uiso   1.00
C55    C     0.49746   0.44879   0.30380   0.00000  Uiso   1.00
C56    C     0.71011   0.72801   0.35512   0.00000  Uiso   1.00
C57    C     0.77006   0.75786   0.41226   0.00000  Uiso   1.00
C58    C     0.83259   0.75572   0.40170   0.00000  Uiso   1.00
C59    C     0.94681   0.76580   0.41188   0.00000  Uiso   1.00
C60    C     0.64077   0.66765   0.23463   0.00000  Uiso   1.00
C61    C     0.60028   0.72256   0.23235   0.00000  Uiso   1.00
C62    C     0.56834   0.74177   0.17344   0.00000  Uiso   1.00
C63    C     0.53385   0.79305   0.18221   0.00000  Uiso   1.00
C64    C     0.60643   0.62226   0.26424   0.00000  Uiso   1.00
C65    C     0.57968   0.55714   0.23213   0.00000  Uiso   1.00
C66    C     0.55038   0.52397   0.26775   0.00000  Uiso   1.00
C67    C     0.71253   0.69711   0.28975   0.00000  Uiso   1.00
C68    C     0.77498   0.69492   0.27910   0.00000  Uiso   1.00
C69    C     0.83501   0.72476   0.33621   0.00000  Uiso   1.00
H70    H     0.63444   0.74860   0.40587   0.00000  Uiso   1.00
H71    H     0.56155   0.82862   0.35719   0.00000  Uiso   1.00
H72    H     0.57290   0.64401   0.41588   0.00000  Uiso   1.00
H73    H     0.76817   0.78177   0.46284   0.00000  Uiso   1.00
H74    H     0.48180   0.90369   0.27438   0.00000  Uiso   1.00
H75    H     0.50574   0.51443   0.39814   0.00000  Uiso   1.00
H76    H     0.91751   0.80493   0.49718   0.00000  Uiso   1.00
H77    H     0.64265   0.64359   0.18373   0.00000  Uiso   1.00
H78    H     0.57022   0.71785   0.12285   0.00000  Uiso   1.00
H79    H     0.58156   0.53324   0.18155   0.00000  Uiso   1.00
H80    H     0.77683   0.67100   0.22851   0.00000  Uiso   1.00
H81    H     0.48882   0.81378   0.08419   0.00000  Uiso   1.00
H82    H     0.51277   0.42452   0.20795   0.00000  Uiso   1.00
H83    H     0.92453   0.71502   0.30698   0.00000  Uiso   1.00
O84    O     0.43749   0.90947   0.14324   0.00000  Uiso   1.00
O85    O     0.46892   0.39878   0.30562   0.00000  Uiso   1.00
O86    O     0.00914   0.77990   0.43555   0.00000  Uiso   1.00
N87    N     0.49340   0.87235   0.23797   0.00000  Uiso   1.00
N88    N     0.51578   0.50842   0.35368   0.00000  Uiso   1.00
N89    N     0.90075   0.77999   0.44628   0.00000  Uiso   1.00
N90    N     0.49718   0.82397   0.13563   0.00000  Uiso   1.00
N91    N     0.51956   0.46004   0.25134   0.00000  Uiso   1.00
N92    N     0.90453   0.73161   0.34393   0.00000  Uiso   1.00
C93    C     0.26047   0.51467   0.57264   0.00000  Uiso   1.00
C94    C     0.22242   0.53795   0.62218   0.00000  Uiso   1.00
C95    C     0.22736   0.51971   0.68205   0.00000  Uiso   1.00
C96    C     0.18839   0.54639   0.72034   0.00000  Uiso   1.00
C97    C     0.13572   0.57592   0.80043   0.00000  Uiso   1.00
C98    C     0.20459   0.48566   0.50036   0.00000  Uiso   1.00
C99    C     0.19455   0.42345   0.45781   0.00000  Uiso   1.00
C100   C     0.14057   0.40611   0.39355   0.00000  Uiso   1.00
C101   C     0.06025   0.35447   0.28449   0.00000  Uiso   1.00
C102   C     0.30095   0.57510   0.56899   0.00000  Uiso   1.00
C103   C     0.37193   0.58809   0.58413   0.00000  Uiso   1.00
C104   C     0.39908   0.64605   0.57764   0.00000  Uiso   1.00
C105   C     0.46838   0.73327   0.57514   0.00000  Uiso   1.00
C106   C     0.18247   0.59448   0.53416   0.00000  Uiso   1.00
C107   C     0.18005   0.58130   0.60128   0.00000  Uiso   1.00
C108   C     0.14106   0.60802   0.63949   0.00000  Uiso   1.00
C109   C     0.14595   0.58982   0.69941   0.00000  Uiso   1.00
C110   C     0.16222   0.52900   0.47946   0.00000  Uiso   1.00
C111   C     0.10825   0.51175   0.41524   0.00000  Uiso   1.00
C112   C     0.09813   0.44954   0.37261   0.00000  Uiso   1.00
C113   C     0.25858   0.61845   0.54810   0.00000  Uiso   1.00
C114   C     0.28562   0.67639   0.54157   0.00000  Uiso   1.00
C115   C     0.35663   0.68947   0.55670   0.00000  Uiso   1.00
H116   H     0.29346   0.48092   0.58890   0.00000  Uiso   1.00
H117   H     0.26015   0.48616   0.69821   0.00000  Uiso   1.00
H118   H     0.22735   0.38992   0.47399   0.00000  Uiso   1.00
H119   H     0.40470   0.55453   0.60030   0.00000  Uiso   1.00
H120   H     0.20453   0.51107   0.81016   0.00000  Uiso   1.00
H121   H     0.13537   0.30814   0.33739   0.00000  Uiso   1.00
H122   H     0.50936   0.65526   0.60373   0.00000  Uiso   1.00
H123   H     0.14948   0.62824   0.51789   0.00000  Uiso   1.00
H124   H     0.10827   0.64156   0.62330   0.00000  Uiso   1.00
H125   H     0.07547   0.54532   0.39909   0.00000  Uiso   1.00
H126   H     0.25282   0.70993   0.52540   0.00000  Uiso   1.00
H127   H     0.08125   0.63720   0.74937   0.00000  Uiso   1.00
H128   H     0.01210   0.43427   0.27659   0.00000  Uiso   1.00
H129   H     0.38608   0.78139   0.54293   0.00000  Uiso   1.00
O130   O     0.11836   0.58022   0.85038   0.00000  Uiso   1.00
O131   O     0.02765   0.31400   0.23011   0.00000  Uiso   1.00
O132   O     0.51830   0.76941   0.57955   0.00000  Uiso   1.00
N133   N     0.18118   0.53893   0.78140   0.00000  Uiso   1.00
N134   N     0.11652   0.34921   0.33938   0.00000  Uiso   1.00
N135   N     0.46616   0.67372   0.58837   0.00000  Uiso   1.00
N136   N     0.11485   0.60680   0.74868   0.00000  Uiso   1.00
N137   N     0.05019   0.41708   0.30667   0.00000  Uiso   1.00
N138   N     0.39983   0.74159   0.55566   0.00000  Uiso   1.00
C139   C     0.25289   0.10422   0.80658   0.00000  Uiso   1.00
C140   C     0.31832   0.08462   0.79632   0.00000  Uiso   1.00
C141   C     0.37041   0.06576   0.84401   0.00000  Uiso   1.00
C142   C     0.42604   0.04969   0.82481   0.00000  Uiso   1.00
C143   C     0.52711   0.01882   0.81869   0.00000  Uiso   1.00
C144   C     0.19222   0.05994   0.74469   0.00000  Uiso   1.00
C145   C     0.13828   0.02033   0.74897   0.00000  Uiso   1.00
C146   C     0.08775   0.98350   0.68631   0.00000  Uiso   1.00
C147   C     0.99303   0.91434   0.60003   0.00000  Uiso   1.00
C148   C     0.25234   0.17152   0.79725   0.00000  Uiso   1.00
C149   C     0.24894   0.22574   0.84571   0.00000  Uiso   1.00
C150   C     0.24901   0.28285   0.82729   0.00000  Uiso   1.00
C151   C     0.24763   0.38694   0.82261   0.00000  Uiso   1.00
C152   C     0.25904   0.10923   0.68769   0.00000  Uiso   1.00
C153   C     0.32166   0.08734   0.73174   0.00000  Uiso   1.00
C154   C     0.37722   0.07130   0.71247   0.00000  Uiso   1.00
C155   C     0.42939   0.05242   0.76012   0.00000  Uiso   1.00
C156   C     0.19556   0.06266   0.68011   0.00000  Uiso   1.00
C157   C     0.14510   0.02587   0.61743   0.00000  Uiso   1.00
C158   C     0.09110   0.98622   0.62161   0.00000  Uiso   1.00
C159   C     0.25569   0.17424   0.73267   0.00000  Uiso   1.00
C160   C     0.25576   0.23128   0.71417   0.00000  Uiso   1.00
C161   C     0.25236   0.28557   0.76259   0.00000  Uiso   1.00
H162   H     0.25028   0.10209   0.85686   0.00000  Uiso   1.00
H163   H     0.36780   0.06365   0.89398   0.00000  Uiso   1.00
H164   H     0.13571   0.01824   0.79895   0.00000  Uiso   1.00
H165   H     0.24635   0.22361   0.89568   0.00000  Uiso   1.00
H166   H     0.49956   0.02221   0.90665   0.00000  Uiso   1.00
H167   H     0.01016   0.92647   0.70628   0.00000  Uiso   1.00
H168   H     0.24347   0.35954   0.91025   0.00000  Uiso   1.00
H169   H     0.26165   0.11134   0.63740   0.00000  Uiso   1.00
H170   H     0.37980   0.07341   0.66249   0.00000  Uiso   1.00
H171   H     0.14770   0.02800   0.56746   0.00000  Uiso   1.00
H172   H     0.25834   0.23337   0.66419   0.00000  Uiso   1.00
H173   H     0.50929   0.03013   0.71876   0.00000  Uiso   1.00
H174   H     0.01989   0.93439   0.51839   0.00000  Uiso   1.00
H175   H     0.25321   0.36746   0.72236   0.00000  Uiso   1.00
O176   O     0.58193   0.00103   0.83315   0.00000  Uiso   1.00
O177   O     0.93986   0.87543   0.57028   0.00000  Uiso   1.00
O178   O     0.24596   0.44361   0.83788   0.00000  Uiso   1.00
N179   N     0.48564   0.02929   0.85899   0.00000  Uiso   1.00
N180   N     0.02809   0.93977   0.67166   0.00000  Uiso   1.00
N181   N     0.24620   0.34465   0.86234   0.00000  Uiso   1.00
N182   N     0.49088   0.03355   0.75789   0.00000  Uiso   1.00
N183   N     0.03333   0.94403   0.57056   0.00000  Uiso   1.00
N184   N     0.25144   0.34891   0.76124   0.00000  Uiso   1.00
C185   C     0.08927   0.85025   0.15612   0.00000  Uiso   1.00
C186   C     0.10459   0.80529   0.20238   0.00000  Uiso   1.00
C187   C     0.07949   0.80376   0.25564   0.00000  Uiso   1.00
C188   C     0.09949   0.75909   0.29188   0.00000  Uiso   1.00
C189   C     0.11662   0.69559   0.36620   0.00000  Uiso   1.00
C190   C     0.05861   0.80691   0.08097   0.00000  Uiso   1.00
C191   C     0.99487   0.80676   0.03215   0.00000  Uiso   1.00
C192   C     0.97618   0.76347   0.96618   0.00000  Uiso   1.00
C193   C     0.92195   0.70252   0.85198   0.00000  Uiso   1.00
C194   C     0.15953   0.88606   0.16421   0.00000  Uiso   1.00
C195   C     0.18064   0.95245   0.18536   0.00000  Uiso   1.00
C196   C     0.24691   0.97580   0.18947   0.00000  Uiso   1.00
C197   C     0.34938   0.03773   0.20452   0.00000  Uiso   1.00
C198   C     0.16941   0.77366   0.12577   0.00000  Uiso   1.00
C199   C     0.14811   0.76369   0.18589   0.00000  Uiso   1.00
C200   C     0.16816   0.71902   0.22206   0.00000  Uiso   1.00
C201   C     0.14310   0.71742   0.27537   0.00000  Uiso   1.00
C202   C     0.10214   0.76531   0.06448   0.00000  Uiso   1.00
C203   C     0.08354   0.72202   0.99857   0.00000  Uiso   1.00
C204   C     0.01978   0.72179   0.94966   0.00000  Uiso   1.00
C205   C     0.20306   0.84446   0.14773   0.00000  Uiso   1.00
C206   C     0.26931   0.86771   0.15179   0.00000  Uiso   1.00
C207   C     0.29051   0.93412   0.17295   0.00000  Uiso   1.00
H208   H     0.05538   0.88264   0.16895   0.00000  Uiso   1.00
H209   H     0.04580   0.83595   0.26838   0.00000  Uiso   1.00
H210   H     0.96120   0.83896   0.04492   0.00000  Uiso   1.00
H211   H     0.14694   0.98463   0.19812   0.00000  Uiso   1.00
H212   H     0.05436   0.76584   0.37133   0.00000  Uiso   1.00
H213   H     0.87598   0.77219   0.90014   0.00000  Uiso   1.00
H214   H     0.26765   0.07936   0.22319   0.00000  Uiso   1.00
H215   H     0.20330   0.74127   0.11293   0.00000  Uiso   1.00
H216   H     0.20184   0.68683   0.20929   0.00000  Uiso   1.00
H217   H     0.11724   0.68984   0.98583   0.00000  Uiso   1.00
H218   H     0.30298   0.83550   0.13903   0.00000  Uiso   1.00
H219   H     0.18100   0.64480   0.32337   0.00000  Uiso   1.00
H220   H     0.00262   0.65115   0.85218   0.00000  Uiso   1.00
H221   H     0.39430   0.95832   0.17523   0.00000  Uiso   1.00
O222   O     0.11403   0.67204   0.41173   0.00000  Uiso   1.00
O223   O     0.88001   0.68039   0.79355   0.00000  Uiso   1.00
O224   O     0.39387   0.08338   0.21738   0.00000  Uiso   1.00
N225   N     0.08438   0.74483   0.34683   0.00000  Uiso   1.00
N226   N     0.91760   0.75076   0.90630   0.00000  Uiso   1.00
N227   N     0.28377   0.03794   0.20830   0.00000  Uiso   1.00
N228   N     0.15252   0.67970   0.32102   0.00000  Uiso   1.00
N229   N     0.98574   0.68563   0.88049   0.00000  Uiso   1.00
N230   N     0.35192   0.97281   0.18249   0.00000  Uiso   1.00
C231   C     0.91460   0.14650   0.94881   0.00000  Uiso   1.00
C232   C     0.88116   0.20519   0.96367   0.00000  Uiso   1.00
C233   C     0.87834   0.25380   0.93117   0.00000  Uiso   1.00
C234   C     0.84544   0.30334   0.95210   0.00000  Uiso   1.00
C235   C     0.79790   0.39432   0.96730   0.00000  Uiso   1.00
C236   C     0.85813   0.08788   0.92906   0.00000  Uiso   1.00
C237   C     0.83596   0.03786   0.86747   0.00000  Uiso   1.00
C238   C     0.78368   0.98864   0.85927   0.00000  Uiso   1.00
C239   C     0.70043   0.89748   0.82076   0.00000  Uiso   1.00
C240   C     0.96788   0.14748   0.01878   0.00000  Uiso   1.00
C241   C     0.03799   0.14756   0.03263   0.00000  Uiso   1.00
C242   C     0.07811   0.14850   0.09996   0.00000  Uiso   1.00
C243   C     0.16526   0.14988   0.20075   0.00000  Uiso   1.00
C244   C     0.86117   0.14803   0.04377   0.00000  Uiso   1.00
C245   C     0.85214   0.20601   0.01524   0.00000  Uiso   1.00
C246   C     0.81923   0.25549   0.03623   0.00000  Uiso   1.00
C247   C     0.81637   0.30417   0.00377   0.00000  Uiso   1.00
C248   C     0.82911   0.08871   0.98063   0.00000  Uiso   1.00
C249   C     0.77685   0.03955   0.97253   0.00000  Uiso   1.00
C250   C     0.75460   0.98947   0.91094   0.00000  Uiso   1.00
C251   C     0.93886   0.14831   0.07036   0.00000  Uiso   1.00
C252   C     0.97888   0.14925   0.13768   0.00000  Uiso   1.00
C253   C     0.04903   0.14933   0.15163   0.00000  Uiso   1.00
H254   H     0.93719   0.14585   0.90866   0.00000  Uiso   1.00
H255   H     0.90080   0.25314   0.89126   0.00000  Uiso   1.00
H256   H     0.85844   0.03723   0.82757   0.00000  Uiso   1.00
H257   H     0.06043   0.14692   0.99270   0.00000  Uiso   1.00
H258   H     0.84764   0.37244   0.89469   0.00000  Uiso   1.00
H259   H     0.75832   0.91717   0.76041   0.00000  Uiso   1.00
H260   H     0.18427   0.14846   0.10862   0.00000  Uiso   1.00
H261   H     0.83857   0.14867   0.08392   0.00000  Uiso   1.00
H262   H     0.79678   0.25612   0.07614   0.00000  Uiso   1.00
H263   H     0.75441   0.04020   0.01245   0.00000  Uiso   1.00
H264   H     0.95640   0.14989   0.17758   0.00000  Uiso   1.00
H265   H     0.76321   0.37485   0.04475   0.00000  Uiso   1.00
H266   H     0.67389   0.91958   0.91047   0.00000  Uiso   1.00
H267   H     0.09984   0.15087   0.25868   0.00000  Uiso   1.00
O268   O     0.77969   0.44427   0.96142   0.00000  Uiso   1.00
O269   O     0.66252   0.84697   0.78526   0.00000  Uiso   1.00
O270   O     0.22135   0.15041   0.24210   0.00000  Uiso   1.00
N271   N     0.83352   0.35827   0.93109   0.00000  Uiso   1.00
N272   N     0.75000   0.93263   0.80554   0.00000  Uiso   1.00
N273   N     0.14822   0.14884   0.13108   0.00000  Uiso   1.00
N274   N     0.78808   0.35957   0.01183   0.00000  Uiso   1.00
N275   N     0.70457   0.93392   0.88628   0.00000  Uiso   1.00
N276   N     0.10279   0.15014   0.21182   0.00000  Uiso   1.00
C277   C     0.07105   0.37817   0.11831   0.00000  Uiso   1.00
C278   C     0.02061   0.42322   0.12745   0.00000  Uiso   1.00
C279   C     0.96081   0.40819   0.14099   0.00000  Uiso   1.00
C280   C     0.92162   0.45604   0.14760   0.00000  Uiso   1.00
C281   C     0.84028   0.51678   0.16285   0.00000  Uiso   1.00
C282   C     0.14187   0.41314   0.17212   0.00000  Uiso   1.00
C283   C     0.18402   0.38961   0.22320   0.00000  Uiso   1.00
C284   C     0.24691   0.42897   0.26741   0.00000  Uiso   1.00
C285   C     0.35385   0.47403   0.35198   0.00000  Uiso   1.00
C286   C     0.07585   0.37471   0.04692   0.00000  Uiso   1.00
C287   C     0.06251   0.31889   0.99273   0.00000  Uiso   1.00
C288   C     0.06982   0.32590   0.93153   0.00000  Uiso   1.00
C289   C     0.07426   0.31130   0.82170   0.00000  Uiso   1.00
C290   C     0.10779   0.48989   0.10598   0.00000  Uiso   1.00
C291   C     0.04057   0.48390   0.12076   0.00000  Uiso   1.00
C292   C     0.00145   0.53179   0.12735   0.00000  Uiso   1.00
C293   C     0.94160   0.51683   0.14089   0.00000  Uiso   1.00
C294   C     0.16182   0.47381   0.16543   0.00000  Uiso   1.00
C295   C     0.22466   0.51322   0.20957   0.00000  Uiso   1.00
C296   C     0.26689   0.48976   0.26071   0.00000  Uiso   1.00
C297   C     0.09580   0.43539   0.04022   0.00000  Uiso   1.00
C298   C     0.10315   0.44249   0.97910   0.00000  Uiso   1.00
C299   C     0.08981   0.38669   0.92483   0.00000  Uiso   1.00
H300   H     0.05552   0.33093   0.12352   0.00000  Uiso   1.00
H301   H     0.94539   0.36122   0.14617   0.00000  Uiso   1.00
H302   H     0.16857   0.34265   0.22837   0.00000  Uiso   1.00
H303   H     0.04707   0.27194   0.99793   0.00000  Uiso   1.00
H304   H     0.83211   0.42158   0.16835   0.00000  Uiso   1.00
H305   H     0.30270   0.38241   0.34165   0.00000  Uiso   1.00
H306   H     0.04650   0.23329   0.85574   0.00000  Uiso   1.00
H307   H     0.12332   0.53713   0.10077   0.00000  Uiso   1.00
H308   H     0.01691   0.57875   0.12217   0.00000  Uiso   1.00
H309   H     0.24009   0.56017   0.20437   0.00000  Uiso   1.00
H310   H     0.11859   0.48946   0.97393   0.00000  Uiso   1.00
H311   H     0.89015   0.59813   0.14887   0.00000  Uiso   1.00
H312   H     0.36074   0.55895   0.32218   0.00000  Uiso   1.00
H313   H     0.10454   0.40984   0.83626   0.00000  Uiso   1.00
O314   O     0.78992   0.53352   0.17312   0.00000  Uiso   1.00
O315   O     0.40732   0.48211   0.40048   0.00000  Uiso   1.00
O316   O     0.07118   0.28648   0.76297   0.00000  Uiso   1.00
N317   N     0.86036   0.45742   0.16082   0.00000  Uiso   1.00
N318   N     0.30033   0.42080   0.32285   0.00000  Uiso   1.00
N319   N     0.06082   0.28138   0.86857   0.00000  Uiso   1.00
N320   N     0.89160   0.55242   0.15034   0.00000  Uiso   1.00
N321   N     0.33157   0.51579   0.31237   0.00000  Uiso   1.00
N322   N     0.09206   0.37638   0.85809   0.00000  Uiso   1.00
C323   C     0.14020   0.03944   0.32831   0.00000  Uiso   1.00
C324   C     0.16202   0.98707   0.36312   0.00000  Uiso   1.00
C325   C     0.21298   0.95208   0.35547   0.00000  Uiso   1.00
C326   C     0.22524   0.90631   0.39170   0.00000  Uiso   1.00
C327   C     0.26483   0.82660   0.43933   0.00000  Uiso   1.00
C328   C     0.14896   0.09948   0.38749   0.00000  Uiso   1.00
C329   C     0.18893   0.15899   0.40033   0.00000  Uiso   1.00
C330   C     0.19019   0.20784   0.45708   0.00000  Uiso   1.00
C331   C     0.20947   0.30265   0.54252   0.00000  Uiso   1.00
C332   C     0.06244   0.01871   0.28774   0.00000  Uiso   1.00
C333   C     0.02967   0.01033   0.21671   0.00000  Uiso   1.00
C334   C     0.95809   0.99119   0.18948   0.00000  Uiso   1.00
C335   C     0.84304   0.96059   0.12005   0.00000  Uiso   1.00
C336   C     0.07134   0.02037   0.40625   0.00000  Uiso   1.00
C337   C     0.12462   0.97672   0.40545   0.00000  Uiso   1.00
C338   C     0.13680   0.93098   0.44170   0.00000  Uiso   1.00
C339   C     0.18777   0.89593   0.43411   0.00000  Uiso   1.00
C340   C     0.11156   0.08912   0.42983   0.00000  Uiso   1.00
C341   C     0.11275   0.13789   0.48657   0.00000  Uiso   1.00
C342   C     0.15273   0.19747   0.49949   0.00000  Uiso   1.00
C343   C     0.02504   0.00835   0.33008   0.00000  Uiso   1.00
C344   C     0.95349   0.98922   0.30295   0.00000  Uiso   1.00
C345   C     0.92062   0.98082   0.23189   0.00000  Uiso   1.00
H346   H     0.16932   0.04751   0.29535   0.00000  Uiso   1.00
H347   H     0.24192   0.96012   0.32271   0.00000  Uiso   1.00
H348   H     0.21786   0.16700   0.36756   0.00000  Uiso   1.00
H349   H     0.05863   0.01835   0.18397   0.00000  Uiso   1.00
H350   H     0.30593   0.85868   0.37172   0.00000  Uiso   1.00
H351   H     0.25520   0.29490   0.46628   0.00000  Uiso   1.00
H352   H     0.91942   0.98145   0.07915   0.00000  Uiso   1.00
H353   H     0.04222   0.01230   0.43921   0.00000  Uiso   1.00
H354   H     0.10785   0.92298   0.47446   0.00000  Uiso   1.00
H355   H     0.08380   0.12986   0.51931   0.00000  Uiso   1.00
H356   H     0.92457   0.98121   0.33573   0.00000  Uiso   1.00
H357   H     0.19712   0.82853   0.49489   0.00000  Uiso   1.00
H358   H     0.14639   0.26476   0.58945   0.00000  Uiso   1.00
H359   H     0.81061   0.95131   0.20232   0.00000  Uiso   1.00
O360   O     0.29701   0.78550   0.45392   0.00000  Uiso   1.00
O361   O     0.23044   0.35780   0.57796   0.00000  Uiso   1.00
O362   O     0.78991   0.94657   0.07006   0.00000  Uiso   1.00
N363   N     0.27131   0.86383   0.39586   0.00000  Uiso   1.00
N364   N     0.22389   0.27167   0.48427   0.00000  Uiso   1.00
N365   N     0.90996   0.97864   0.12234   0.00000  Uiso   1.00
N366   N     0.21276   0.84761   0.46214   0.00000  Uiso   1.00
N367   N     0.16534   0.25545   0.55055   0.00000  Uiso   1.00
N368   N     0.85141   0.96242   0.18862   0.00000  Uiso   1.00
C369   C     0.50206   0.14780   0.04506   0.00000  Uiso   1.00
C370   C     0.52779   0.17321   0.99445   0.00000  Uiso   1.00
C371   C     0.48725   0.19215   0.93849   0.00000  Uiso   1.00
C372   C     0.52057   0.21401   0.89841   0.00000  Uiso   1.00
C373   C     0.54968   0.25307   0.81751   0.00000  Uiso   1.00
C374   C     0.54542   0.19158   0.11798   0.00000  Uiso   1.00
C375   C     0.51970   0.22596   0.16590   0.00000  Uiso   1.00
C376   C     0.56786   0.26328   0.22981   0.00000  Uiso   1.00
C377   C     0.62434   0.33082   0.34072   0.00000  Uiso   1.00
C378   C     0.52294   0.08213   0.04215   0.00000  Uiso   1.00
C379   C     0.47831   0.02449   0.02631   0.00000  Uiso   1.00
C380   C     0.50754   0.96966   0.02639   0.00000  Uiso   1.00
C381   C     0.52911   0.86727   0.01955   0.00000  Uiso   1.00
C382   C     0.63334   0.15293   0.07337   0.00000  Uiso   1.00
C383   C     0.59910   0.17600   0.00983   0.00000  Uiso   1.00
C384   C     0.63249   0.19783   0.96982   0.00000  Uiso   1.00
C385   C     0.59200   0.21680   0.91381   0.00000  Uiso   1.00
C386   C     0.61672   0.19437   0.13337   0.00000  Uiso   1.00
C387   C     0.66494   0.23164   0.19722   0.00000  Uiso   1.00
C388   C     0.63929   0.26607   0.24522   0.00000  Uiso   1.00
C389   C     0.59424   0.08492   0.05752   0.00000  Uiso   1.00
C390   C     0.62355   0.03017   0.05763   0.00000  Uiso   1.00
C391   C     0.57898   0.97245   0.04180   0.00000  Uiso   1.00
H392   H     0.44655   0.14563   0.03309   0.00000  Uiso   1.00
H393   H     0.43207   0.18999   0.92661   0.00000  Uiso   1.00
H394   H     0.46452   0.22379   0.15398   0.00000  Uiso   1.00
H395   H     0.42314   0.02235   0.01441   0.00000  Uiso   1.00
H396   H     0.44747   0.24042   0.81536   0.00000  Uiso   1.00
H397   H     0.51587   0.31167   0.29479   0.00000  Uiso   1.00
H398   H     0.42861   0.88690   0.00049   0.00000  Uiso   1.00
H399   H     0.68885   0.15511   0.08535   0.00000  Uiso   1.00
H400   H     0.68767   0.19999   0.98173   0.00000  Uiso   1.00
H401   H     0.72011   0.23379   0.20911   0.00000  Uiso   1.00
H402   H     0.67873   0.03235   0.06954   0.00000  Uiso   1.00
H403   H     0.65492   0.24854   0.86010   0.00000  Uiso   1.00
H404   H     0.72332   0.31979   0.33954   0.00000  Uiso   1.00
H405   H     0.63607   0.89501   0.04523   0.00000  Uiso   1.00
O406   O     0.54605   0.27385   0.76865   0.00000  Uiso   1.00
O407   O     0.63579   0.36732   0.39764   0.00000  Uiso   1.00
O408   O     0.52131   0.81002   0.01152   0.00000  Uiso   1.00
N409   N     0.49645   0.23616   0.84010   0.00000  Uiso   1.00
N410   N     0.56041   0.30278   0.28834   0.00000  Uiso   1.00
N411   N     0.47883   0.90566   0.01320   0.00000  Uiso   1.00
N412   N     0.60808   0.24053   0.86418   0.00000  Uiso   1.00
N413   N     0.67203   0.30715   0.31241   0.00000  Uiso   1.00
N414   N     0.59046   0.91002   0.03728   0.00000  Uiso   1.00
C415   C     0.47085   0.60148   0.84792   0.00000  Uiso   1.00
C416   C     0.46389   0.60427   0.91833   0.00000  Uiso   1.00
C417   C     0.41670   0.63338   0.94328   0.00000  Uiso   1.00
C418   C     0.41860   0.63072   0.00899   0.00000  Uiso   1.00
C419   C     0.40060   0.63975   0.11236   0.00000  Uiso   1.00
C420   C     0.54599   0.63116   0.86423   0.00000  Uiso   1.00
C421   C     0.56783   0.68288   0.84368   0.00000  Uiso   1.00
C422   C     0.63884   0.70286   0.86384   0.00000  Uiso   1.00
C423   C     0.74831   0.75361   0.88317   0.00000  Uiso   1.00
C424   C     0.46249   0.53029   0.81077   0.00000  Uiso   1.00
C425   C     0.41413   0.49720   0.74525   0.00000  Uiso   1.00
C426   C     0.41486   0.43225   0.72039   0.00000  Uiso   1.00
C427   C     0.39468   0.32639   0.65670   0.00000  Uiso   1.00
C428   C     0.55814   0.54498   0.92025   0.00000  Uiso   1.00
C429   C     0.51131   0.57358   0.95762   0.00000  Uiso   1.00
C430   C     0.51328   0.57087   0.02330   0.00000  Uiso   1.00
C431   C     0.46609   0.59998   0.04834   0.00000  Uiso   1.00
C432   C     0.59340   0.60048   0.90352   0.00000  Uiso   1.00
C433   C     0.66440   0.62037   0.92370   0.00000  Uiso   1.00
C434   C     0.68634   0.67211   0.90320   0.00000  Uiso   1.00
C435   C     0.50990   0.49960   0.85005   0.00000  Uiso   1.00
C436   C     0.51071   0.43469   0.82528   0.00000  Uiso   1.00
C437   C     0.46235   0.40151   0.75974   0.00000  Uiso   1.00
H438   H     0.43394   0.62537   0.81734   0.00000  Uiso   1.00
H439   H     0.38002   0.65713   0.91287   0.00000  Uiso   1.00
H440   H     0.53112   0.70662   0.81328   0.00000  Uiso   1.00
H441   H     0.37745   0.52096   0.71487   0.00000  Uiso   1.00
H442   H     0.34117   0.67883   0.03611   0.00000  Uiso   1.00
H443   H     0.65978   0.78316   0.82611   0.00000  Uiso   1.00
H444   H     0.33572   0.39168   0.61858   0.00000  Uiso   1.00
H445   H     0.59506   0.52109   0.95083   0.00000  Uiso   1.00
H446   H     0.54997   0.54712   0.05369   0.00000  Uiso   1.00
H447   H     0.70108   0.59661   0.95410   0.00000  Uiso   1.00
H448   H     0.54740   0.41096   0.85569   0.00000  Uiso   1.00
H449   H     0.47911   0.58955   0.15041   0.00000  Uiso   1.00
H450   H     0.79772   0.69388   0.94040   0.00000  Uiso   1.00
H451   H     0.47367   0.30239   0.73288   0.00000  Uiso   1.00
O452   O     0.37759   0.65322   0.15853   0.00000  Uiso   1.00
O453   O     0.79559   0.79009   0.88299   0.00000  Uiso   1.00
O454   O     0.37044   0.27647   0.61073   0.00000  Uiso   1.00
N455   N     0.37981   0.65423   0.04889   0.00000  Uiso   1.00
N456   N     0.67769   0.75178   0.85256   0.00000  Uiso   1.00
N457   N     0.37474   0.38578   0.65853   0.00000  Uiso   1.00
N458   N     0.45403   0.60619   0.11040   0.00000  Uiso   1.00
N459   N     0.75191   0.70374   0.91406   0.00000  Uiso   1.00
N460   N     0.44897   0.33774   0.72004   0.00000  Uiso   1.00
C461   C     0.73305   0.94718   0.54687   0.00000  Uiso   1.00
C462   C     0.72673   0.96161   0.47803   0.00000  Uiso   1.00
C463   C     0.73613   0.92091   0.42137   0.00000  Uiso   1.00
C464   C     0.72805   0.94296   0.36319   0.00000  Uiso   1.00
C465   C     0.72083   0.95616   0.25653   0.00000  Uiso   1.00
C466   C     0.78698   0.00210   0.60418   0.00000  Uiso   1.00
C467   C     0.84704   0.99544   0.65358   0.00000  Uiso   1.00
C468   C     0.88969   0.05158   0.70160   0.00000  Uiso   1.00
C469   C     0.97599   0.12763   0.79082   0.00000  Uiso   1.00
C470   C     0.66417   0.95429   0.55665   0.00000  Uiso   1.00
C471   C     0.62097   0.90743   0.56611   0.00000  Uiso   1.00
C472   C     0.56023   0.92333   0.57413   0.00000  Uiso   1.00
C473   C     0.45585   0.92515   0.58954   0.00000  Uiso   1.00
C474   C     0.70200   0.05874   0.54431   0.00000  Uiso   1.00
C475   C     0.70986   0.02221   0.47664   0.00000  Uiso   1.00
C476   C     0.70177   0.04433   0.41854   0.00000  Uiso   1.00
C477   C     0.71115   0.00366   0.36180   0.00000  Uiso   1.00
C478   C     0.77012   0.06270   0.60279   0.00000  Uiso   1.00
C479   C     0.81269   0.11886   0.65075   0.00000  Uiso   1.00
C480   C     0.87279   0.11228   0.70021   0.00000  Uiso   1.00
C481   C     0.64730   0.01489   0.55525   0.00000  Uiso   1.00
C482   C     0.58662   0.03086   0.56327   0.00000  Uiso   1.00
C483   C     0.54333   0.98403   0.57274   0.00000  Uiso   1.00
H484   H     0.74619   0.90001   0.54795   0.00000  Uiso   1.00
H485   H     0.74919   0.87402   0.42247   0.00000  Uiso   1.00
H486   H     0.86008   0.94854   0.65465   0.00000  Uiso   1.00
H487   H     0.63404   0.86055   0.56718   0.00000  Uiso   1.00
H488   H     0.74510   0.87193   0.28274   0.00000  Uiso   1.00
H489   H     0.97891   0.02906   0.77232   0.00000  Uiso   1.00
H490   H     0.50227   0.84351   0.58788   0.00000  Uiso   1.00
H491   H     0.68887   0.10592   0.54323   0.00000  Uiso   1.00
H492   H     0.68872   0.09123   0.41748   0.00000  Uiso   1.00
H493   H     0.79961   0.16574   0.64966   0.00000  Uiso   1.00
H494   H     0.57358   0.07775   0.56219   0.00000  Uiso   1.00
H495   H     0.69602   0.04823   0.27869   0.00000  Uiso   1.00
H496   H     0.92984   0.20535   0.76828   0.00000  Uiso   1.00
H497   H     0.45320   0.01981   0.58383   0.00000  Uiso   1.00
O498   O     0.72152   0.94671   0.19808   0.00000  Uiso   1.00
O499   O     0.02826   0.15284   0.84041   0.00000  Uiso   1.00
O500   O     0.40293   0.90942   0.59842   0.00000  Uiso   1.00
N501   N     0.73355   0.91543   0.29904   0.00000  Uiso   1.00
N502   N     0.95216   0.06234   0.75676   0.00000  Uiso   1.00
N503   N     0.50655   0.88888   0.58434   0.00000  Uiso   1.00
N504   N     0.70715   0.01030   0.29686   0.00000  Uiso   1.00
N505   N     0.92575   0.15720   0.75458   0.00000  Uiso   1.00
N506   N     0.48015   0.98374   0.58216   0.00000  Uiso   1.00
C507   C     0.86552   0.52225   0.55328   0.00000  Uiso   1.00
C508   C     0.92525   0.48530   0.56363   0.00000  Uiso   1.00
C509   C     0.93479   0.43891   0.59920   0.00000  Uiso   1.00
C510   C     0.99270   0.41068   0.60289   0.00000  Uiso   1.00
C511   C     0.07837   0.35066   0.62367   0.00000  Uiso   1.00
C512   C     0.89876   0.59344   0.58284   0.00000  Uiso   1.00
C513   C     0.88604   0.63797   0.63457   0.00000  Uiso   1.00
C514   C     0.92165   0.70078   0.65442   0.00000  Uiso   1.00
C515   C     0.96616   0.80865   0.70501   0.00000  Uiso   1.00
C516   C     0.83140   0.51019   0.47450   0.00000  Uiso   1.00
C517   C     0.76203   0.48474   0.43513   0.00000  Uiso   1.00
C518   C     0.74093   0.47747   0.36376   0.00000  Uiso   1.00
C519   C     0.68085   0.45609   0.24613   0.00000  Uiso   1.00
C520   C     0.95139   0.55461   0.49655   0.00000  Uiso   1.00
C521   C     0.97189   0.50288   0.53282   0.00000  Uiso   1.00
C522   C     0.02980   0.47471   0.53644   0.00000  Uiso   1.00
C523   C     0.03943   0.42829   0.57202   0.00000  Uiso   1.00
C524   C     0.94540   0.61101   0.55203   0.00000  Uiso   1.00
C525   C     0.98104   0.67377   0.57181   0.00000  Uiso   1.00
C526   C     0.96838   0.71839   0.62356   0.00000  Uiso   1.00
C527   C     0.87804   0.52776   0.44369   0.00000  Uiso   1.00
C528   C     0.85704   0.52054   0.37237   0.00000  Uiso   1.00
C529   C     0.78766   0.49508   0.33290   0.00000  Uiso   1.00
H530   H     0.82921   0.50857   0.57727   0.00000  Uiso   1.00
H531   H     0.89869   0.42533   0.62305   0.00000  Uiso   1.00
H532   H     0.84994   0.62435   0.65840   0.00000  Uiso   1.00
H533   H     0.72596   0.47115   0.45899   0.00000  Uiso   1.00
H534   H     0.99630   0.34080   0.66023   0.00000  Uiso   1.00
H535   H     0.89349   0.76047   0.73476   0.00000  Uiso   1.00
H536   H     0.63205   0.43741   0.31427   0.00000  Uiso   1.00
H537   H     0.98770   0.56829   0.47256   0.00000  Uiso   1.00
H538   H     0.06588   0.48832   0.51260   0.00000  Uiso   1.00
H539   H     0.01713   0.68736   0.54795   0.00000  Uiso   1.00
H540   H     0.89315   0.53415   0.34854   0.00000  Uiso   1.00
H541   H     0.13200   0.39194   0.57059   0.00000  Uiso   1.00
H542   H     0.02918   0.81161   0.64512   0.00000  Uiso   1.00
H543   H     0.76775   0.48854   0.22463   0.00000  Uiso   1.00
O544   O     0.11273   0.31270   0.64366   0.00000  Uiso   1.00
O545   O     0.97783   0.86329   0.74143   0.00000  Uiso   1.00
O546   O     0.63483   0.43944   0.18975   0.00000  Uiso   1.00
N547   N     0.01750   0.36380   0.63363   0.00000  Uiso   1.00
N548   N     0.92138   0.75617   0.70332   0.00000  Uiso   1.00
N549   N     0.67696   0.45414   0.31020   0.00000  Uiso   1.00
N550   N     0.09052   0.39132   0.58539   0.00000  Uiso   1.00
N551   N     0.99440   0.78368   0.65508   0.00000  Uiso   1.00
N552   N     0.74998   0.48166   0.26196   0.00000  Uiso   1.00
