data_job_04222
_audit_creation_date              2018-12-19
_audit_creation_method            'Materials Studio'
_symmetry_space_group_name_H-M    'P1'
_symmetry_Int_Tables_number       1
_symmetry_cell_setting            triclinic
loop_
_symmetry_equiv_pos_as_xyz
  x,y,z
_cell_length_a                    38.7652
_cell_length_b                    7.6316
_cell_length_c                    26.6941
_cell_angle_alpha                 90.0000
_cell_angle_beta                  90.0000
_cell_angle_gamma                 90.0000
loop_
_atom_site_label
_atom_site_type_symbol
_atom_site_fract_x
_atom_site_fract_y
_atom_site_fract_z
_atom_site_U_iso_or_equiv
_atom_site_adp_type
_atom_site_occupancy
C1     C     0.43334   0.58646   0.80348   0.00000  Uiso   1.00
C2     C     0.43203   0.47200   0.75669   0.00000  Uiso   1.00
C3     C     0.44788   0.50895   0.71129   0.00000  Uiso   1.00
C4     C     0.44359   0.38763   0.67304   0.00000  Uiso   1.00
C5     C     0.44450   0.23318   0.59932   0.00000  Uiso   1.00
C6     C     0.39592   0.62441   0.81737   0.00000  Uiso   1.00
C7     C     0.38142   0.78951   0.82299   0.00000  Uiso   1.00
C8     C     0.34673   0.79648   0.83582   0.00000  Uiso   1.00
C9     C     0.29159   0.87864   0.85634   0.00000  Uiso   1.00
C10    C     0.44753   0.47030   0.84514   0.00000  Uiso   1.00
C11    C     0.47641   0.50585   0.87413   0.00000  Uiso   1.00
C12    C     0.48517   0.38309   0.91035   0.00000  Uiso   1.00
C13    C     0.51016   0.22599   0.97399   0.00000  Uiso   1.00
C14    C     0.39753   0.30529   0.81627   0.00000  Uiso   1.00
C15    C     0.41258   0.31928   0.76364   0.00000  Uiso   1.00
C16    C     0.40826   0.19787   0.72545   0.00000  Uiso   1.00
C17    C     0.42411   0.23463   0.68000   0.00000  Uiso   1.00
C18    C     0.37647   0.47169   0.82432   0.00000  Uiso   1.00
C19    C     0.34180   0.47842   0.83714   0.00000  Uiso   1.00
C20    C     0.32725   0.64349   0.84278   0.00000  Uiso   1.00
C21    C     0.42808   0.31758   0.85209   0.00000  Uiso   1.00
C22    C     0.43680   0.19476   0.88828   0.00000  Uiso   1.00
C23    C     0.46569   0.23010   0.91731   0.00000  Uiso   1.00
H24    H     0.44848   0.70536   0.79807   0.00000  Uiso   1.00
H25    H     0.46293   0.62716   0.70593   0.00000  Uiso   1.00
H26    H     0.39647   0.90767   0.81761   0.00000  Uiso   1.00
H27    H     0.49145   0.62404   0.86874   0.00000  Uiso   1.00
H28    H     0.47036   0.47314   0.60683   0.00000  Uiso   1.00
H29    H     0.33024   0.06460   0.84234   0.00000  Uiso   1.00
H30    H     0.53053   0.46653   0.95015   0.00000  Uiso   1.00
H31    H     0.38239   0.18639   0.82168   0.00000  Uiso   1.00
H32    H     0.39321   0.07970   0.73083   0.00000  Uiso   1.00
H33    H     0.32676   0.36021   0.84252   0.00000  Uiso   1.00
H34    H     0.42174   0.07659   0.89364   0.00000  Uiso   1.00
H35    H     0.41377   0.02880   0.62705   0.00000  Uiso   1.00
H36    H     0.27366   0.62027   0.86256   0.00000  Uiso   1.00
H37    H     0.47395   0.02220   0.97036   0.00000  Uiso   1.00
O38    O     0.45037   0.19018   0.55674   0.00000  Uiso   1.00
O39    O     0.26655   0.96616   0.86574   0.00000  Uiso   1.00
O40    O     0.52932   0.18150   0.00717   0.00000  Uiso   1.00
N41    N     0.45556   0.38319   0.62406   0.00000  Uiso   1.00
N42    N     0.32456   0.93618   0.84424   0.00000  Uiso   1.00
N43    N     0.51181   0.37705   0.94504   0.00000  Uiso   1.00
N44    N     0.42511   0.14409   0.63494   0.00000  Uiso   1.00
N45    N     0.29411   0.69708   0.85512   0.00000  Uiso   1.00
N46    N     0.48136   0.13796   0.95592   0.00000  Uiso   1.00
C47    C     0.06666   0.91354   0.80348   0.00000  Uiso   1.00
C48    C     0.06797   0.02800   0.75669   0.00000  Uiso   1.00
C49    C     0.05212   0.99105   0.71129   0.00000  Uiso   1.00
C50    C     0.05641   0.11237   0.67304   0.00000  Uiso   1.00
C51    C     0.05550   0.26682   0.59932   0.00000  Uiso   1.00
C52    C     0.10408   0.87559   0.81737   0.00000  Uiso   1.00
C53    C     0.11858   0.71049   0.82299   0.00000  Uiso   1.00
C54    C     0.15327   0.70352   0.83582   0.00000  Uiso   1.00
C55    C     0.20841   0.62136   0.85634   0.00000  Uiso   1.00
C56    C     0.05247   0.02970   0.84514   0.00000  Uiso   1.00
C57    C     0.02359   0.99415   0.87413   0.00000  Uiso   1.00
C58    C     0.01483   0.11691   0.91035   0.00000  Uiso   1.00
C59    C     0.98984   0.27401   0.97399   0.00000  Uiso   1.00
C60    C     0.10247   0.19471   0.81627   0.00000  Uiso   1.00
C61    C     0.08742   0.18072   0.76364   0.00000  Uiso   1.00
C62    C     0.09174   0.30213   0.72545   0.00000  Uiso   1.00
C63    C     0.07589   0.26537   0.68000   0.00000  Uiso   1.00
C64    C     0.12353   0.02831   0.82432   0.00000  Uiso   1.00
C65    C     0.15820   0.02158   0.83714   0.00000  Uiso   1.00
C66    C     0.17275   0.85651   0.84278   0.00000  Uiso   1.00
C67    C     0.07192   0.18242   0.85209   0.00000  Uiso   1.00
C68    C     0.06320   0.30524   0.88828   0.00000  Uiso   1.00
C69    C     0.03431   0.26990   0.91731   0.00000  Uiso   1.00
H70    H     0.05152   0.79464   0.79807   0.00000  Uiso   1.00
H71    H     0.03707   0.87284   0.70593   0.00000  Uiso   1.00
H72    H     0.10353   0.59233   0.81761   0.00000  Uiso   1.00
H73    H     0.00855   0.87596   0.86874   0.00000  Uiso   1.00
H74    H     0.02964   0.02686   0.60683   0.00000  Uiso   1.00
H75    H     0.16976   0.43540   0.84234   0.00000  Uiso   1.00
H76    H     0.96947   0.03347   0.95015   0.00000  Uiso   1.00
H77    H     0.11761   0.31361   0.82168   0.00000  Uiso   1.00
H78    H     0.10679   0.42030   0.73083   0.00000  Uiso   1.00
H79    H     0.17324   0.13979   0.84252   0.00000  Uiso   1.00
H80    H     0.07826   0.42341   0.89364   0.00000  Uiso   1.00
H81    H     0.08623   0.47120   0.62705   0.00000  Uiso   1.00
H82    H     0.22634   0.87973   0.86256   0.00000  Uiso   1.00
H83    H     0.02605   0.47780   0.97036   0.00000  Uiso   1.00
O84    O     0.04963   0.30982   0.55674   0.00000  Uiso   1.00
O85    O     0.23345   0.53384   0.86574   0.00000  Uiso   1.00
O86    O     0.97068   0.31850   0.00717   0.00000  Uiso   1.00
N87    N     0.04444   0.11681   0.62406   0.00000  Uiso   1.00
N88    N     0.17544   0.56382   0.84424   0.00000  Uiso   1.00
N89    N     0.98819   0.12295   0.94504   0.00000  Uiso   1.00
N90    N     0.07489   0.35591   0.63494   0.00000  Uiso   1.00
N91    N     0.20589   0.80292   0.85512   0.00000  Uiso   1.00
N92    N     0.01864   0.36204   0.95592   0.00000  Uiso   1.00
C93    C     0.56666   0.08646   0.69652   0.00000  Uiso   1.00
C94    C     0.56797   0.97200   0.74331   0.00000  Uiso   1.00
C95    C     0.55212   0.00895   0.78871   0.00000  Uiso   1.00
C96    C     0.55641   0.88763   0.82696   0.00000  Uiso   1.00
C97    C     0.55550   0.73318   0.90068   0.00000  Uiso   1.00
C98    C     0.60408   0.12441   0.68263   0.00000  Uiso   1.00
C99    C     0.61858   0.28951   0.67701   0.00000  Uiso   1.00
C100   C     0.65327   0.29648   0.66418   0.00000  Uiso   1.00
C101   C     0.70841   0.37864   0.64366   0.00000  Uiso   1.00
C102   C     0.55247   0.97030   0.65486   0.00000  Uiso   1.00
C103   C     0.52359   0.00585   0.62587   0.00000  Uiso   1.00
C104   C     0.51483   0.88309   0.58965   0.00000  Uiso   1.00
C105   C     0.48984   0.72599   0.52601   0.00000  Uiso   1.00
C106   C     0.60247   0.80529   0.68373   0.00000  Uiso   1.00
C107   C     0.58742   0.81928   0.73636   0.00000  Uiso   1.00
C108   C     0.59174   0.69787   0.77455   0.00000  Uiso   1.00
C109   C     0.57589   0.73463   0.82000   0.00000  Uiso   1.00
C110   C     0.62353   0.97169   0.67568   0.00000  Uiso   1.00
C111   C     0.65820   0.97842   0.66286   0.00000  Uiso   1.00
C112   C     0.67275   0.14349   0.65722   0.00000  Uiso   1.00
C113   C     0.57192   0.81758   0.64791   0.00000  Uiso   1.00
C114   C     0.56320   0.69476   0.61172   0.00000  Uiso   1.00
C115   C     0.53431   0.73010   0.58269   0.00000  Uiso   1.00
H116   H     0.55152   0.20536   0.70193   0.00000  Uiso   1.00
H117   H     0.53707   0.12716   0.79407   0.00000  Uiso   1.00
H118   H     0.60353   0.40767   0.68239   0.00000  Uiso   1.00
H119   H     0.50855   0.12404   0.63126   0.00000  Uiso   1.00
H120   H     0.52964   0.97314   0.89317   0.00000  Uiso   1.00
H121   H     0.66976   0.56460   0.65766   0.00000  Uiso   1.00
H122   H     0.46947   0.96653   0.54985   0.00000  Uiso   1.00
H123   H     0.61761   0.68639   0.67832   0.00000  Uiso   1.00
H124   H     0.60679   0.57970   0.76917   0.00000  Uiso   1.00
H125   H     0.67324   0.86021   0.65748   0.00000  Uiso   1.00
H126   H     0.57826   0.57659   0.60636   0.00000  Uiso   1.00
H127   H     0.58623   0.52880   0.87295   0.00000  Uiso   1.00
H128   H     0.72634   0.12027   0.63744   0.00000  Uiso   1.00
H129   H     0.52605   0.52220   0.52964   0.00000  Uiso   1.00
O130   O     0.54963   0.69018   0.94326   0.00000  Uiso   1.00
O131   O     0.73345   0.46616   0.63426   0.00000  Uiso   1.00
O132   O     0.47068   0.68150   0.49283   0.00000  Uiso   1.00
N133   N     0.54444   0.88319   0.87594   0.00000  Uiso   1.00
N134   N     0.67544   0.43618   0.65576   0.00000  Uiso   1.00
N135   N     0.48819   0.87705   0.55496   0.00000  Uiso   1.00
N136   N     0.57489   0.64409   0.86506   0.00000  Uiso   1.00
N137   N     0.70589   0.19708   0.64488   0.00000  Uiso   1.00
N138   N     0.51864   0.63796   0.54408   0.00000  Uiso   1.00
C139   C     0.93334   0.41354   0.69652   0.00000  Uiso   1.00
C140   C     0.93203   0.52800   0.74331   0.00000  Uiso   1.00
C141   C     0.94788   0.49105   0.78871   0.00000  Uiso   1.00
C142   C     0.94359   0.61237   0.82696   0.00000  Uiso   1.00
C143   C     0.94450   0.76682   0.90068   0.00000  Uiso   1.00
C144   C     0.89592   0.37559   0.68263   0.00000  Uiso   1.00
C145   C     0.88142   0.21049   0.67701   0.00000  Uiso   1.00
C146   C     0.84673   0.20352   0.66418   0.00000  Uiso   1.00
C147   C     0.79159   0.12136   0.64366   0.00000  Uiso   1.00
C148   C     0.94753   0.52970   0.65486   0.00000  Uiso   1.00
C149   C     0.97641   0.49415   0.62587   0.00000  Uiso   1.00
C150   C     0.98517   0.61691   0.58965   0.00000  Uiso   1.00
C151   C     0.01016   0.77401   0.52601   0.00000  Uiso   1.00
C152   C     0.89753   0.69471   0.68373   0.00000  Uiso   1.00
C153   C     0.91258   0.68072   0.73636   0.00000  Uiso   1.00
C154   C     0.90826   0.80213   0.77455   0.00000  Uiso   1.00
C155   C     0.92411   0.76537   0.82000   0.00000  Uiso   1.00
C156   C     0.87647   0.52831   0.67568   0.00000  Uiso   1.00
C157   C     0.84180   0.52158   0.66286   0.00000  Uiso   1.00
C158   C     0.82725   0.35651   0.65722   0.00000  Uiso   1.00
C159   C     0.92808   0.68242   0.64791   0.00000  Uiso   1.00
C160   C     0.93680   0.80524   0.61172   0.00000  Uiso   1.00
C161   C     0.96569   0.76990   0.58269   0.00000  Uiso   1.00
H162   H     0.94848   0.29464   0.70193   0.00000  Uiso   1.00
H163   H     0.96293   0.37284   0.79407   0.00000  Uiso   1.00
H164   H     0.89647   0.09233   0.68239   0.00000  Uiso   1.00
H165   H     0.99145   0.37596   0.63126   0.00000  Uiso   1.00
H166   H     0.97036   0.52686   0.89317   0.00000  Uiso   1.00
H167   H     0.83024   0.93540   0.65766   0.00000  Uiso   1.00
H168   H     0.03053   0.53347   0.54985   0.00000  Uiso   1.00
H169   H     0.88239   0.81361   0.67832   0.00000  Uiso   1.00
H170   H     0.89321   0.92030   0.76917   0.00000  Uiso   1.00
H171   H     0.82676   0.63979   0.65748   0.00000  Uiso   1.00
H172   H     0.92174   0.92341   0.60636   0.00000  Uiso   1.00
H173   H     0.91377   0.97120   0.87295   0.00000  Uiso   1.00
H174   H     0.77366   0.37973   0.63744   0.00000  Uiso   1.00
H175   H     0.97395   0.97780   0.52964   0.00000  Uiso   1.00
O176   O     0.95037   0.80982   0.94326   0.00000  Uiso   1.00
O177   O     0.76655   0.03384   0.63426   0.00000  Uiso   1.00
O178   O     0.02932   0.81850   0.49283   0.00000  Uiso   1.00
N179   N     0.95556   0.61681   0.87594   0.00000  Uiso   1.00
N180   N     0.82456   0.06382   0.65576   0.00000  Uiso   1.00
N181   N     0.01181   0.62295   0.55496   0.00000  Uiso   1.00
N182   N     0.92511   0.85591   0.86506   0.00000  Uiso   1.00
N183   N     0.79411   0.30292   0.64488   0.00000  Uiso   1.00
N184   N     0.98136   0.86204   0.54408   0.00000  Uiso   1.00
C185   C     0.56666   0.41354   0.19652   0.00000  Uiso   1.00
C186   C     0.56797   0.52800   0.24331   0.00000  Uiso   1.00
C187   C     0.55212   0.49105   0.28871   0.00000  Uiso   1.00
C188   C     0.55641   0.61237   0.32696   0.00000  Uiso   1.00
C189   C     0.55550   0.76682   0.40068   0.00000  Uiso   1.00
C190   C     0.60408   0.37559   0.18263   0.00000  Uiso   1.00
C191   C     0.61858   0.21049   0.17701   0.00000  Uiso   1.00
C192   C     0.65327   0.20352   0.16418   0.00000  Uiso   1.00
C193   C     0.70841   0.12136   0.14366   0.00000  Uiso   1.00
C194   C     0.55247   0.52970   0.15486   0.00000  Uiso   1.00
C195   C     0.52359   0.49415   0.12587   0.00000  Uiso   1.00
C196   C     0.51483   0.61691   0.08965   0.00000  Uiso   1.00
C197   C     0.48984   0.77401   0.02601   0.00000  Uiso   1.00
C198   C     0.60247   0.69471   0.18373   0.00000  Uiso   1.00
C199   C     0.58742   0.68072   0.23636   0.00000  Uiso   1.00
C200   C     0.59174   0.80213   0.27455   0.00000  Uiso   1.00
C201   C     0.57589   0.76537   0.32000   0.00000  Uiso   1.00
C202   C     0.62353   0.52831   0.17568   0.00000  Uiso   1.00
C203   C     0.65820   0.52158   0.16286   0.00000  Uiso   1.00
C204   C     0.67275   0.35651   0.15722   0.00000  Uiso   1.00
C205   C     0.57192   0.68242   0.14791   0.00000  Uiso   1.00
C206   C     0.56320   0.80524   0.11172   0.00000  Uiso   1.00
C207   C     0.53431   0.76990   0.08269   0.00000  Uiso   1.00
H208   H     0.55152   0.29464   0.20193   0.00000  Uiso   1.00
H209   H     0.53707   0.37284   0.29407   0.00000  Uiso   1.00
H210   H     0.60353   0.09233   0.18239   0.00000  Uiso   1.00
H211   H     0.50855   0.37596   0.13126   0.00000  Uiso   1.00
H212   H     0.52964   0.52686   0.39317   0.00000  Uiso   1.00
H213   H     0.66976   0.93540   0.15766   0.00000  Uiso   1.00
H214   H     0.46947   0.53347   0.04985   0.00000  Uiso   1.00
H215   H     0.61761   0.81361   0.17832   0.00000  Uiso   1.00
H216   H     0.60679   0.92030   0.26917   0.00000  Uiso   1.00
H217   H     0.67324   0.63979   0.15748   0.00000  Uiso   1.00
H218   H     0.57826   0.92341   0.10636   0.00000  Uiso   1.00
H219   H     0.58623   0.97120   0.37295   0.00000  Uiso   1.00
H220   H     0.72634   0.37973   0.13744   0.00000  Uiso   1.00
H221   H     0.52605   0.97780   0.02964   0.00000  Uiso   1.00
O222   O     0.54963   0.80982   0.44326   0.00000  Uiso   1.00
O223   O     0.73345   0.03384   0.13426   0.00000  Uiso   1.00
O224   O     0.47068   0.81850   0.99283   0.00000  Uiso   1.00
N225   N     0.54444   0.61681   0.37594   0.00000  Uiso   1.00
N226   N     0.67544   0.06382   0.15576   0.00000  Uiso   1.00
N227   N     0.48819   0.62295   0.05496   0.00000  Uiso   1.00
N228   N     0.57489   0.85591   0.36506   0.00000  Uiso   1.00
N229   N     0.70589   0.30292   0.14488   0.00000  Uiso   1.00
N230   N     0.51864   0.86204   0.04408   0.00000  Uiso   1.00
C231   C     0.93334   0.08646   0.19652   0.00000  Uiso   1.00
C232   C     0.93203   0.97200   0.24331   0.00000  Uiso   1.00
C233   C     0.94788   0.00895   0.28871   0.00000  Uiso   1.00
C234   C     0.94359   0.88763   0.32696   0.00000  Uiso   1.00
C235   C     0.94450   0.73318   0.40068   0.00000  Uiso   1.00
C236   C     0.89592   0.12441   0.18263   0.00000  Uiso   1.00
C237   C     0.88142   0.28951   0.17701   0.00000  Uiso   1.00
C238   C     0.84673   0.29648   0.16418   0.00000  Uiso   1.00
C239   C     0.79159   0.37864   0.14366   0.00000  Uiso   1.00
C240   C     0.94753   0.97030   0.15486   0.00000  Uiso   1.00
C241   C     0.97641   0.00585   0.12587   0.00000  Uiso   1.00
C242   C     0.98517   0.88309   0.08965   0.00000  Uiso   1.00
C243   C     0.01016   0.72599   0.02601   0.00000  Uiso   1.00
C244   C     0.89753   0.80529   0.18373   0.00000  Uiso   1.00
C245   C     0.91258   0.81928   0.23636   0.00000  Uiso   1.00
C246   C     0.90826   0.69787   0.27455   0.00000  Uiso   1.00
C247   C     0.92411   0.73463   0.32000   0.00000  Uiso   1.00
C248   C     0.87647   0.97169   0.17568   0.00000  Uiso   1.00
C249   C     0.84180   0.97842   0.16286   0.00000  Uiso   1.00
C250   C     0.82725   0.14349   0.15722   0.00000  Uiso   1.00
C251   C     0.92808   0.81758   0.14791   0.00000  Uiso   1.00
C252   C     0.93680   0.69476   0.11172   0.00000  Uiso   1.00
C253   C     0.96569   0.73010   0.08269   0.00000  Uiso   1.00
H254   H     0.94848   0.20536   0.20193   0.00000  Uiso   1.00
H255   H     0.96293   0.12716   0.29407   0.00000  Uiso   1.00
H256   H     0.89647   0.40767   0.18239   0.00000  Uiso   1.00
H257   H     0.99145   0.12404   0.13126   0.00000  Uiso   1.00
H258   H     0.97036   0.97314   0.39317   0.00000  Uiso   1.00
H259   H     0.83024   0.56460   0.15766   0.00000  Uiso   1.00
H260   H     0.03053   0.96653   0.04985   0.00000  Uiso   1.00
H261   H     0.88239   0.68639   0.17832   0.00000  Uiso   1.00
H262   H     0.89321   0.57970   0.26917   0.00000  Uiso   1.00
H263   H     0.82676   0.86021   0.15748   0.00000  Uiso   1.00
H264   H     0.92174   0.57659   0.10636   0.00000  Uiso   1.00
H265   H     0.91377   0.52880   0.37295   0.00000  Uiso   1.00
H266   H     0.77366   0.12027   0.13744   0.00000  Uiso   1.00
H267   H     0.97395   0.52220   0.02964   0.00000  Uiso   1.00
O268   O     0.95037   0.69018   0.44326   0.00000  Uiso   1.00
O269   O     0.76655   0.46616   0.13426   0.00000  Uiso   1.00
O270   O     0.02932   0.68150   0.99283   0.00000  Uiso   1.00
N271   N     0.95556   0.88319   0.37594   0.00000  Uiso   1.00
N272   N     0.82456   0.43618   0.15576   0.00000  Uiso   1.00
N273   N     0.01181   0.87705   0.05496   0.00000  Uiso   1.00
N274   N     0.92511   0.64409   0.36506   0.00000  Uiso   1.00
N275   N     0.79411   0.19708   0.14488   0.00000  Uiso   1.00
N276   N     0.98136   0.63796   0.04408   0.00000  Uiso   1.00
C277   C     0.43334   0.91354   0.30348   0.00000  Uiso   1.00
C278   C     0.43203   0.02800   0.25669   0.00000  Uiso   1.00
C279   C     0.44788   0.99105   0.21129   0.00000  Uiso   1.00
C280   C     0.44359   0.11237   0.17304   0.00000  Uiso   1.00
C281   C     0.44450   0.26682   0.09932   0.00000  Uiso   1.00
C282   C     0.39592   0.87559   0.31737   0.00000  Uiso   1.00
C283   C     0.38142   0.71049   0.32299   0.00000  Uiso   1.00
C284   C     0.34673   0.70352   0.33582   0.00000  Uiso   1.00
C285   C     0.29159   0.62136   0.35634   0.00000  Uiso   1.00
C286   C     0.44753   0.02970   0.34514   0.00000  Uiso   1.00
C287   C     0.47641   0.99415   0.37413   0.00000  Uiso   1.00
C288   C     0.48517   0.11691   0.41035   0.00000  Uiso   1.00
C289   C     0.51016   0.27401   0.47399   0.00000  Uiso   1.00
C290   C     0.39753   0.19471   0.31627   0.00000  Uiso   1.00
C291   C     0.41258   0.18072   0.26364   0.00000  Uiso   1.00
C292   C     0.40826   0.30213   0.22545   0.00000  Uiso   1.00
C293   C     0.42411   0.26537   0.18000   0.00000  Uiso   1.00
C294   C     0.37647   0.02831   0.32432   0.00000  Uiso   1.00
C295   C     0.34180   0.02158   0.33714   0.00000  Uiso   1.00
C296   C     0.32725   0.85651   0.34278   0.00000  Uiso   1.00
C297   C     0.42808   0.18242   0.35209   0.00000  Uiso   1.00
C298   C     0.43680   0.30524   0.38828   0.00000  Uiso   1.00
C299   C     0.46569   0.26990   0.41731   0.00000  Uiso   1.00
H300   H     0.44848   0.79464   0.29807   0.00000  Uiso   1.00
H301   H     0.46293   0.87284   0.20593   0.00000  Uiso   1.00
H302   H     0.39647   0.59233   0.31761   0.00000  Uiso   1.00
H303   H     0.49145   0.87596   0.36874   0.00000  Uiso   1.00
H304   H     0.47036   0.02686   0.10683   0.00000  Uiso   1.00
H305   H     0.33024   0.43540   0.34234   0.00000  Uiso   1.00
H306   H     0.53053   0.03347   0.45015   0.00000  Uiso   1.00
H307   H     0.38239   0.31361   0.32168   0.00000  Uiso   1.00
H308   H     0.39321   0.42030   0.23083   0.00000  Uiso   1.00
H309   H     0.32676   0.13979   0.34252   0.00000  Uiso   1.00
H310   H     0.42174   0.42341   0.39364   0.00000  Uiso   1.00
H311   H     0.41377   0.47120   0.12705   0.00000  Uiso   1.00
H312   H     0.27366   0.87973   0.36256   0.00000  Uiso   1.00
H313   H     0.47395   0.47780   0.47036   0.00000  Uiso   1.00
O314   O     0.45037   0.30982   0.05674   0.00000  Uiso   1.00
O315   O     0.26655   0.53384   0.36574   0.00000  Uiso   1.00
O316   O     0.52932   0.31850   0.50717   0.00000  Uiso   1.00
N317   N     0.45556   0.11681   0.12406   0.00000  Uiso   1.00
N318   N     0.32456   0.56382   0.34424   0.00000  Uiso   1.00
N319   N     0.51181   0.12295   0.44504   0.00000  Uiso   1.00
N320   N     0.42511   0.35591   0.13494   0.00000  Uiso   1.00
N321   N     0.29411   0.80292   0.35512   0.00000  Uiso   1.00
N322   N     0.48136   0.36204   0.45592   0.00000  Uiso   1.00
C323   C     0.06666   0.58646   0.30348   0.00000  Uiso   1.00
C324   C     0.06797   0.47200   0.25669   0.00000  Uiso   1.00
C325   C     0.05212   0.50895   0.21129   0.00000  Uiso   1.00
C326   C     0.05641   0.38763   0.17304   0.00000  Uiso   1.00
C327   C     0.05550   0.23318   0.09932   0.00000  Uiso   1.00
C328   C     0.10408   0.62441   0.31737   0.00000  Uiso   1.00
C329   C     0.11858   0.78951   0.32299   0.00000  Uiso   1.00
C330   C     0.15327   0.79648   0.33582   0.00000  Uiso   1.00
C331   C     0.20841   0.87864   0.35634   0.00000  Uiso   1.00
C332   C     0.05247   0.47030   0.34514   0.00000  Uiso   1.00
C333   C     0.02359   0.50585   0.37413   0.00000  Uiso   1.00
C334   C     0.01483   0.38309   0.41035   0.00000  Uiso   1.00
C335   C     0.98984   0.22599   0.47399   0.00000  Uiso   1.00
C336   C     0.10247   0.30529   0.31627   0.00000  Uiso   1.00
C337   C     0.08742   0.31928   0.26364   0.00000  Uiso   1.00
C338   C     0.09174   0.19787   0.22545   0.00000  Uiso   1.00
C339   C     0.07589   0.23463   0.18000   0.00000  Uiso   1.00
C340   C     0.12353   0.47169   0.32432   0.00000  Uiso   1.00
C341   C     0.15820   0.47842   0.33714   0.00000  Uiso   1.00
C342   C     0.17275   0.64349   0.34278   0.00000  Uiso   1.00
C343   C     0.07192   0.31758   0.35209   0.00000  Uiso   1.00
C344   C     0.06320   0.19476   0.38828   0.00000  Uiso   1.00
C345   C     0.03431   0.23010   0.41731   0.00000  Uiso   1.00
H346   H     0.05152   0.70536   0.29807   0.00000  Uiso   1.00
H347   H     0.03707   0.62716   0.20593   0.00000  Uiso   1.00
H348   H     0.10353   0.90767   0.31761   0.00000  Uiso   1.00
H349   H     0.00855   0.62404   0.36874   0.00000  Uiso   1.00
H350   H     0.02964   0.47314   0.10683   0.00000  Uiso   1.00
H351   H     0.16976   0.06460   0.34234   0.00000  Uiso   1.00
H352   H     0.96947   0.46653   0.45015   0.00000  Uiso   1.00
H353   H     0.11761   0.18639   0.32168   0.00000  Uiso   1.00
H354   H     0.10679   0.07970   0.23083   0.00000  Uiso   1.00
H355   H     0.17324   0.36021   0.34252   0.00000  Uiso   1.00
H356   H     0.07826   0.07659   0.39364   0.00000  Uiso   1.00
H357   H     0.08623   0.02880   0.12705   0.00000  Uiso   1.00
H358   H     0.22634   0.62027   0.36256   0.00000  Uiso   1.00
H359   H     0.02605   0.02220   0.47036   0.00000  Uiso   1.00
O360   O     0.04963   0.19018   0.05674   0.00000  Uiso   1.00
O361   O     0.23345   0.96616   0.36574   0.00000  Uiso   1.00
O362   O     0.97068   0.18150   0.50717   0.00000  Uiso   1.00
N363   N     0.04444   0.38319   0.12406   0.00000  Uiso   1.00
N364   N     0.17544   0.93618   0.34424   0.00000  Uiso   1.00
N365   N     0.98819   0.37705   0.44504   0.00000  Uiso   1.00
N366   N     0.07489   0.14409   0.13494   0.00000  Uiso   1.00
N367   N     0.20589   0.69708   0.35512   0.00000  Uiso   1.00
N368   N     0.01864   0.13796   0.45592   0.00000  Uiso   1.00
