data_job_00323
_audit_creation_date              2018-12-19
_audit_creation_method            'Materials Studio'
_symmetry_space_group_name_H-M    'P1'
_symmetry_Int_Tables_number       1
_symmetry_cell_setting            triclinic
loop_
_symmetry_equiv_pos_as_xyz
  x,y,z
_cell_length_a                    18.7551
_cell_length_b                    18.7551
_cell_length_c                    12.2131
_cell_angle_alpha                 90.0000
_cell_angle_beta                  90.0000
_cell_angle_gamma                 90.0000
loop_
_atom_site_label
_atom_site_type_symbol
_atom_site_fract_x
_atom_site_fract_y
_atom_site_fract_z
_atom_site_U_iso_or_equiv
_atom_site_adp_type
_atom_site_occupancy
C1     C     0.65082   0.60846   0.04633   0.00000  Uiso   1.00
C2     C     0.63238   0.66448   0.96038   0.00000  Uiso   1.00
C3     C     0.60467   0.65088   0.85710   0.00000  Uiso   1.00
C4     C     0.59145   0.70942   0.79054   0.00000  Uiso   1.00
C5     C     0.56073   0.78581   0.65165   0.00000  Uiso   1.00
C6     C     0.72909   0.62021   0.07490   0.00000  Uiso   1.00
C7     C     0.78269   0.56939   0.06792   0.00000  Uiso   1.00
C8     C     0.85088   0.59067   0.09778   0.00000  Uiso   1.00
C9     C     0.97029   0.59832   0.13676   0.00000  Uiso   1.00
C10    C     0.60866   0.62849   0.14856   0.00000  Uiso   1.00
C11    C     0.56102   0.58464   0.20356   0.00000  Uiso   1.00
C12    C     0.52783   0.61288   0.29546   0.00000  Uiso   1.00
C13    C     0.46026   0.63340   0.44881   0.00000  Uiso   1.00
C14    C     0.67661   0.73659   0.11177   0.00000  Uiso   1.00
C15    C     0.64639   0.73407   0.99592   0.00000  Uiso   1.00
C16    C     0.63321   0.79264   0.92950   0.00000  Uiso   1.00
C17    C     0.60548   0.77914   0.82615   0.00000  Uiso   1.00
C18    C     0.74310   0.68980   0.11044   0.00000  Uiso   1.00
C19    C     0.81123   0.71116   0.14032   0.00000  Uiso   1.00
C20    C     0.86492   0.66039   0.13339   0.00000  Uiso   1.00
C21    C     0.62267   0.69809   0.18411   0.00000  Uiso   1.00
C22    C     0.58955   0.72640   0.27595   0.00000  Uiso   1.00
C23    C     0.54186   0.68260   0.33106   0.00000  Uiso   1.00
H24    H     0.63992   0.55427   0.01866   0.00000  Uiso   1.00
H25    H     0.59384   0.59702   0.82962   0.00000  Uiso   1.00
H26    H     0.77183   0.51554   0.04042   0.00000  Uiso   1.00
H27    H     0.55019   0.53079   0.17603   0.00000  Uiso   1.00
H28    H     0.54897   0.67509   0.63570   0.00000  Uiso   1.00
H29    H     0.92426   0.50329   0.08022   0.00000  Uiso   1.00
H30    H     0.45689   0.53543   0.36617   0.00000  Uiso   1.00
H31    H     0.68752   0.79077   0.13945   0.00000  Uiso   1.00
H32    H     0.64405   0.84650   0.95703   0.00000  Uiso   1.00
H33    H     0.82205   0.76502   0.16783   0.00000  Uiso   1.00
H34    H     0.60041   0.78026   0.30343   0.00000  Uiso   1.00
H35    H     0.58972   0.87758   0.73911   0.00000  Uiso   1.00
H36    H     0.96502   0.70577   0.18363   0.00000  Uiso   1.00
H37    H     0.49765   0.73792   0.46957   0.00000  Uiso   1.00
O38    O     0.53992   0.80872   0.56521   0.00000  Uiso   1.00
O39    O     0.03229   0.58332   0.14842   0.00000  Uiso   1.00
O40    O     0.41911   0.62549   0.52357   0.00000  Uiso   1.00
N41    N     0.56451   0.71510   0.68508   0.00000  Uiso   1.00
N42    N     0.91539   0.55448   0.10066   0.00000  Uiso   1.00
N43    N     0.47845   0.58452   0.36801   0.00000  Uiso   1.00
N44    N     0.58644   0.82406   0.74072   0.00000  Uiso   1.00
N45    N     0.93732   0.66344   0.15630   0.00000  Uiso   1.00
N46    N     0.50038   0.69348   0.42366   0.00000  Uiso   1.00
C47    C     0.34918   0.39154   0.04633   0.00000  Uiso   1.00
C48    C     0.36762   0.33552   0.96038   0.00000  Uiso   1.00
C49    C     0.39533   0.34912   0.85710   0.00000  Uiso   1.00
C50    C     0.40855   0.29058   0.79054   0.00000  Uiso   1.00
C51    C     0.43927   0.21419   0.65165   0.00000  Uiso   1.00
C52    C     0.27091   0.37979   0.07490   0.00000  Uiso   1.00
C53    C     0.21731   0.43061   0.06792   0.00000  Uiso   1.00
C54    C     0.14912   0.40933   0.09778   0.00000  Uiso   1.00
C55    C     0.02971   0.40168   0.13676   0.00000  Uiso   1.00
C56    C     0.39134   0.37151   0.14856   0.00000  Uiso   1.00
C57    C     0.43898   0.41536   0.20356   0.00000  Uiso   1.00
C58    C     0.47217   0.38712   0.29546   0.00000  Uiso   1.00
C59    C     0.53974   0.36660   0.44881   0.00000  Uiso   1.00
C60    C     0.32339   0.26341   0.11177   0.00000  Uiso   1.00
C61    C     0.35361   0.26593   0.99592   0.00000  Uiso   1.00
C62    C     0.36679   0.20736   0.92950   0.00000  Uiso   1.00
C63    C     0.39452   0.22086   0.82615   0.00000  Uiso   1.00
C64    C     0.25690   0.31020   0.11044   0.00000  Uiso   1.00
C65    C     0.18877   0.28884   0.14032   0.00000  Uiso   1.00
C66    C     0.13508   0.33961   0.13339   0.00000  Uiso   1.00
C67    C     0.37733   0.30191   0.18411   0.00000  Uiso   1.00
C68    C     0.41045   0.27360   0.27595   0.00000  Uiso   1.00
C69    C     0.45814   0.31740   0.33106   0.00000  Uiso   1.00
H70    H     0.36008   0.44573   0.01866   0.00000  Uiso   1.00
H71    H     0.40616   0.40298   0.82962   0.00000  Uiso   1.00
H72    H     0.22817   0.48446   0.04042   0.00000  Uiso   1.00
H73    H     0.44981   0.46921   0.17603   0.00000  Uiso   1.00
H74    H     0.45103   0.32491   0.63570   0.00000  Uiso   1.00
H75    H     0.07574   0.49671   0.08022   0.00000  Uiso   1.00
H76    H     0.54311   0.46457   0.36617   0.00000  Uiso   1.00
H77    H     0.31248   0.20923   0.13945   0.00000  Uiso   1.00
H78    H     0.35595   0.15350   0.95703   0.00000  Uiso   1.00
H79    H     0.17795   0.23498   0.16783   0.00000  Uiso   1.00
H80    H     0.39959   0.21974   0.30343   0.00000  Uiso   1.00
H81    H     0.41028   0.12242   0.73911   0.00000  Uiso   1.00
H82    H     0.03498   0.29423   0.18363   0.00000  Uiso   1.00
H83    H     0.50235   0.26208   0.46957   0.00000  Uiso   1.00
O84    O     0.46008   0.19128   0.56521   0.00000  Uiso   1.00
O85    O     0.96771   0.41668   0.14842   0.00000  Uiso   1.00
O86    O     0.58089   0.37451   0.52357   0.00000  Uiso   1.00
N87    N     0.43549   0.28490   0.68508   0.00000  Uiso   1.00
N88    N     0.08461   0.44552   0.10066   0.00000  Uiso   1.00
N89    N     0.52155   0.41548   0.36801   0.00000  Uiso   1.00
N90    N     0.41356   0.17594   0.74072   0.00000  Uiso   1.00
N91    N     0.06268   0.33656   0.15630   0.00000  Uiso   1.00
N92    N     0.49962   0.30652   0.42366   0.00000  Uiso   1.00
C93    C     0.60846   0.34918   0.95367   0.00000  Uiso   1.00
C94    C     0.66448   0.36762   0.03962   0.00000  Uiso   1.00
C95    C     0.65088   0.39533   0.14290   0.00000  Uiso   1.00
C96    C     0.70942   0.40855   0.20946   0.00000  Uiso   1.00
C97    C     0.78581   0.43927   0.34835   0.00000  Uiso   1.00
C98    C     0.62021   0.27091   0.92510   0.00000  Uiso   1.00
C99    C     0.56939   0.21731   0.93208   0.00000  Uiso   1.00
C100   C     0.59067   0.14912   0.90222   0.00000  Uiso   1.00
C101   C     0.59832   0.02971   0.86324   0.00000  Uiso   1.00
C102   C     0.62849   0.39134   0.85144   0.00000  Uiso   1.00
C103   C     0.58464   0.43898   0.79644   0.00000  Uiso   1.00
C104   C     0.61288   0.47217   0.70454   0.00000  Uiso   1.00
C105   C     0.63340   0.53974   0.55119   0.00000  Uiso   1.00
C106   C     0.73659   0.32339   0.88823   0.00000  Uiso   1.00
C107   C     0.73407   0.35361   0.00408   0.00000  Uiso   1.00
C108   C     0.79264   0.36679   0.07050   0.00000  Uiso   1.00
C109   C     0.77914   0.39452   0.17385   0.00000  Uiso   1.00
C110   C     0.68980   0.25690   0.88956   0.00000  Uiso   1.00
C111   C     0.71116   0.18877   0.85968   0.00000  Uiso   1.00
C112   C     0.66039   0.13508   0.86661   0.00000  Uiso   1.00
C113   C     0.69809   0.37733   0.81589   0.00000  Uiso   1.00
C114   C     0.72640   0.41045   0.72405   0.00000  Uiso   1.00
C115   C     0.68260   0.45814   0.66894   0.00000  Uiso   1.00
H116   H     0.55427   0.36008   0.98134   0.00000  Uiso   1.00
H117   H     0.59702   0.40616   0.17038   0.00000  Uiso   1.00
H118   H     0.51554   0.22817   0.95958   0.00000  Uiso   1.00
H119   H     0.53079   0.44981   0.82397   0.00000  Uiso   1.00
H120   H     0.67509   0.45103   0.36430   0.00000  Uiso   1.00
H121   H     0.50329   0.07574   0.91978   0.00000  Uiso   1.00
H122   H     0.53543   0.54311   0.63383   0.00000  Uiso   1.00
H123   H     0.79077   0.31248   0.86055   0.00000  Uiso   1.00
H124   H     0.84650   0.35595   0.04297   0.00000  Uiso   1.00
H125   H     0.76502   0.17795   0.83217   0.00000  Uiso   1.00
H126   H     0.78026   0.39959   0.69657   0.00000  Uiso   1.00
H127   H     0.87758   0.41028   0.26089   0.00000  Uiso   1.00
H128   H     0.70577   0.03498   0.81637   0.00000  Uiso   1.00
H129   H     0.73792   0.50235   0.53043   0.00000  Uiso   1.00
O130   O     0.80872   0.46008   0.43479   0.00000  Uiso   1.00
O131   O     0.58332   0.96771   0.85158   0.00000  Uiso   1.00
O132   O     0.62549   0.58089   0.47643   0.00000  Uiso   1.00
N133   N     0.71510   0.43549   0.31492   0.00000  Uiso   1.00
N134   N     0.55448   0.08461   0.89934   0.00000  Uiso   1.00
N135   N     0.58452   0.52155   0.63199   0.00000  Uiso   1.00
N136   N     0.82406   0.41356   0.25928   0.00000  Uiso   1.00
N137   N     0.66344   0.06268   0.84370   0.00000  Uiso   1.00
N138   N     0.69348   0.49962   0.57634   0.00000  Uiso   1.00
C139   C     0.39154   0.65082   0.95367   0.00000  Uiso   1.00
C140   C     0.33552   0.63238   0.03962   0.00000  Uiso   1.00
C141   C     0.34912   0.60467   0.14290   0.00000  Uiso   1.00
C142   C     0.29058   0.59145   0.20946   0.00000  Uiso   1.00
C143   C     0.21419   0.56073   0.34835   0.00000  Uiso   1.00
C144   C     0.37979   0.72909   0.92510   0.00000  Uiso   1.00
C145   C     0.43061   0.78269   0.93208   0.00000  Uiso   1.00
C146   C     0.40933   0.85088   0.90222   0.00000  Uiso   1.00
C147   C     0.40168   0.97029   0.86324   0.00000  Uiso   1.00
C148   C     0.37151   0.60866   0.85144   0.00000  Uiso   1.00
C149   C     0.41536   0.56102   0.79644   0.00000  Uiso   1.00
C150   C     0.38712   0.52783   0.70454   0.00000  Uiso   1.00
C151   C     0.36660   0.46026   0.55119   0.00000  Uiso   1.00
C152   C     0.26341   0.67661   0.88823   0.00000  Uiso   1.00
C153   C     0.26593   0.64639   0.00408   0.00000  Uiso   1.00
C154   C     0.20736   0.63321   0.07050   0.00000  Uiso   1.00
C155   C     0.22086   0.60548   0.17385   0.00000  Uiso   1.00
C156   C     0.31020   0.74310   0.88956   0.00000  Uiso   1.00
C157   C     0.28884   0.81123   0.85968   0.00000  Uiso   1.00
C158   C     0.33961   0.86492   0.86661   0.00000  Uiso   1.00
C159   C     0.30191   0.62267   0.81589   0.00000  Uiso   1.00
C160   C     0.27360   0.58955   0.72405   0.00000  Uiso   1.00
C161   C     0.31740   0.54186   0.66894   0.00000  Uiso   1.00
H162   H     0.44573   0.63992   0.98134   0.00000  Uiso   1.00
H163   H     0.40298   0.59384   0.17038   0.00000  Uiso   1.00
H164   H     0.48446   0.77183   0.95958   0.00000  Uiso   1.00
H165   H     0.46921   0.55019   0.82397   0.00000  Uiso   1.00
H166   H     0.32491   0.54897   0.36430   0.00000  Uiso   1.00
H167   H     0.49671   0.92426   0.91978   0.00000  Uiso   1.00
H168   H     0.46457   0.45689   0.63383   0.00000  Uiso   1.00
H169   H     0.20923   0.68752   0.86055   0.00000  Uiso   1.00
H170   H     0.15350   0.64405   0.04297   0.00000  Uiso   1.00
H171   H     0.23498   0.82205   0.83217   0.00000  Uiso   1.00
H172   H     0.21974   0.60041   0.69657   0.00000  Uiso   1.00
H173   H     0.12242   0.58972   0.26089   0.00000  Uiso   1.00
H174   H     0.29423   0.96502   0.81637   0.00000  Uiso   1.00
H175   H     0.26208   0.49765   0.53043   0.00000  Uiso   1.00
O176   O     0.19128   0.53992   0.43479   0.00000  Uiso   1.00
O177   O     0.41668   0.03229   0.85158   0.00000  Uiso   1.00
O178   O     0.37451   0.41911   0.47643   0.00000  Uiso   1.00
N179   N     0.28490   0.56451   0.31492   0.00000  Uiso   1.00
N180   N     0.44552   0.91539   0.89934   0.00000  Uiso   1.00
N181   N     0.41548   0.47845   0.63199   0.00000  Uiso   1.00
N182   N     0.17594   0.58644   0.25928   0.00000  Uiso   1.00
N183   N     0.33656   0.93732   0.84370   0.00000  Uiso   1.00
N184   N     0.30652   0.50038   0.57634   0.00000  Uiso   1.00
C185   C     0.84918   0.10846   0.45367   0.00000  Uiso   1.00
C186   C     0.86762   0.16448   0.53962   0.00000  Uiso   1.00
C187   C     0.89533   0.15088   0.64290   0.00000  Uiso   1.00
C188   C     0.90855   0.20942   0.70946   0.00000  Uiso   1.00
C189   C     0.93927   0.28581   0.84835   0.00000  Uiso   1.00
C190   C     0.77091   0.12021   0.42510   0.00000  Uiso   1.00
C191   C     0.71731   0.06939   0.43208   0.00000  Uiso   1.00
C192   C     0.64912   0.09067   0.40222   0.00000  Uiso   1.00
C193   C     0.52971   0.09832   0.36324   0.00000  Uiso   1.00
C194   C     0.89134   0.12849   0.35144   0.00000  Uiso   1.00
C195   C     0.93898   0.08464   0.29644   0.00000  Uiso   1.00
C196   C     0.97217   0.11288   0.20454   0.00000  Uiso   1.00
C197   C     0.03974   0.13340   0.05119   0.00000  Uiso   1.00
C198   C     0.82339   0.23659   0.38823   0.00000  Uiso   1.00
C199   C     0.85361   0.23407   0.50408   0.00000  Uiso   1.00
C200   C     0.86679   0.29264   0.57050   0.00000  Uiso   1.00
C201   C     0.89452   0.27914   0.67385   0.00000  Uiso   1.00
C202   C     0.75690   0.18980   0.38956   0.00000  Uiso   1.00
C203   C     0.68877   0.21116   0.35968   0.00000  Uiso   1.00
C204   C     0.63508   0.16039   0.36661   0.00000  Uiso   1.00
C205   C     0.87733   0.19809   0.31589   0.00000  Uiso   1.00
C206   C     0.91045   0.22640   0.22405   0.00000  Uiso   1.00
C207   C     0.95814   0.18260   0.16894   0.00000  Uiso   1.00
H208   H     0.86008   0.05427   0.48134   0.00000  Uiso   1.00
H209   H     0.90616   0.09702   0.67038   0.00000  Uiso   1.00
H210   H     0.72817   0.01554   0.45958   0.00000  Uiso   1.00
H211   H     0.94981   0.03079   0.32397   0.00000  Uiso   1.00
H212   H     0.95103   0.17509   0.86430   0.00000  Uiso   1.00
H213   H     0.57574   0.00329   0.41978   0.00000  Uiso   1.00
H214   H     0.04311   0.03543   0.13383   0.00000  Uiso   1.00
H215   H     0.81248   0.29077   0.36055   0.00000  Uiso   1.00
H216   H     0.85595   0.34650   0.54297   0.00000  Uiso   1.00
H217   H     0.67795   0.26502   0.33217   0.00000  Uiso   1.00
H218   H     0.89959   0.28026   0.19657   0.00000  Uiso   1.00
H219   H     0.91028   0.37758   0.76089   0.00000  Uiso   1.00
H220   H     0.53498   0.20577   0.31637   0.00000  Uiso   1.00
H221   H     0.00235   0.23792   0.03043   0.00000  Uiso   1.00
O222   O     0.96008   0.30872   0.93479   0.00000  Uiso   1.00
O223   O     0.46771   0.08332   0.35158   0.00000  Uiso   1.00
O224   O     0.08089   0.12549   0.97643   0.00000  Uiso   1.00
N225   N     0.93549   0.21510   0.81492   0.00000  Uiso   1.00
N226   N     0.58461   0.05448   0.39934   0.00000  Uiso   1.00
N227   N     0.02155   0.08452   0.13199   0.00000  Uiso   1.00
N228   N     0.91356   0.32406   0.75928   0.00000  Uiso   1.00
N229   N     0.56268   0.16344   0.34370   0.00000  Uiso   1.00
N230   N     0.99962   0.19348   0.07634   0.00000  Uiso   1.00
C231   C     0.15082   0.89154   0.45367   0.00000  Uiso   1.00
C232   C     0.13238   0.83552   0.53962   0.00000  Uiso   1.00
C233   C     0.10467   0.84912   0.64290   0.00000  Uiso   1.00
C234   C     0.09145   0.79058   0.70946   0.00000  Uiso   1.00
C235   C     0.06073   0.71419   0.84835   0.00000  Uiso   1.00
C236   C     0.22909   0.87979   0.42510   0.00000  Uiso   1.00
C237   C     0.28269   0.93061   0.43208   0.00000  Uiso   1.00
C238   C     0.35088   0.90933   0.40222   0.00000  Uiso   1.00
C239   C     0.47029   0.90168   0.36324   0.00000  Uiso   1.00
C240   C     0.10866   0.87151   0.35144   0.00000  Uiso   1.00
C241   C     0.06102   0.91536   0.29644   0.00000  Uiso   1.00
C242   C     0.02783   0.88712   0.20454   0.00000  Uiso   1.00
C243   C     0.96026   0.86660   0.05119   0.00000  Uiso   1.00
C244   C     0.17661   0.76341   0.38823   0.00000  Uiso   1.00
C245   C     0.14639   0.76593   0.50408   0.00000  Uiso   1.00
C246   C     0.13321   0.70736   0.57050   0.00000  Uiso   1.00
C247   C     0.10548   0.72086   0.67385   0.00000  Uiso   1.00
C248   C     0.24310   0.81020   0.38956   0.00000  Uiso   1.00
C249   C     0.31123   0.78884   0.35968   0.00000  Uiso   1.00
C250   C     0.36492   0.83961   0.36661   0.00000  Uiso   1.00
C251   C     0.12267   0.80191   0.31589   0.00000  Uiso   1.00
C252   C     0.08955   0.77360   0.22405   0.00000  Uiso   1.00
C253   C     0.04186   0.81740   0.16894   0.00000  Uiso   1.00
H254   H     0.13992   0.94573   0.48134   0.00000  Uiso   1.00
H255   H     0.09384   0.90298   0.67038   0.00000  Uiso   1.00
H256   H     0.27183   0.98446   0.45958   0.00000  Uiso   1.00
H257   H     0.05019   0.96921   0.32397   0.00000  Uiso   1.00
H258   H     0.04897   0.82491   0.86430   0.00000  Uiso   1.00
H259   H     0.42426   0.99671   0.41978   0.00000  Uiso   1.00
H260   H     0.95689   0.96457   0.13383   0.00000  Uiso   1.00
H261   H     0.18752   0.70923   0.36055   0.00000  Uiso   1.00
H262   H     0.14405   0.65350   0.54297   0.00000  Uiso   1.00
H263   H     0.32205   0.73498   0.33217   0.00000  Uiso   1.00
H264   H     0.10041   0.71974   0.19657   0.00000  Uiso   1.00
H265   H     0.08972   0.62242   0.76089   0.00000  Uiso   1.00
H266   H     0.46502   0.79423   0.31637   0.00000  Uiso   1.00
H267   H     0.99765   0.76208   0.03043   0.00000  Uiso   1.00
O268   O     0.03992   0.69128   0.93479   0.00000  Uiso   1.00
O269   O     0.53229   0.91668   0.35158   0.00000  Uiso   1.00
O270   O     0.91911   0.87451   0.97643   0.00000  Uiso   1.00
N271   N     0.06451   0.78490   0.81492   0.00000  Uiso   1.00
N272   N     0.41539   0.94552   0.39934   0.00000  Uiso   1.00
N273   N     0.97845   0.91548   0.13199   0.00000  Uiso   1.00
N274   N     0.08644   0.67594   0.75928   0.00000  Uiso   1.00
N275   N     0.43732   0.83656   0.34370   0.00000  Uiso   1.00
N276   N     0.00038   0.80652   0.07634   0.00000  Uiso   1.00
C277   C     0.89154   0.84918   0.54633   0.00000  Uiso   1.00
C278   C     0.83552   0.86762   0.46038   0.00000  Uiso   1.00
C279   C     0.84912   0.89533   0.35710   0.00000  Uiso   1.00
C280   C     0.79058   0.90855   0.29054   0.00000  Uiso   1.00
C281   C     0.71419   0.93927   0.15165   0.00000  Uiso   1.00
C282   C     0.87979   0.77091   0.57490   0.00000  Uiso   1.00
C283   C     0.93061   0.71731   0.56792   0.00000  Uiso   1.00
C284   C     0.90933   0.64912   0.59778   0.00000  Uiso   1.00
C285   C     0.90168   0.52971   0.63676   0.00000  Uiso   1.00
C286   C     0.87151   0.89134   0.64856   0.00000  Uiso   1.00
C287   C     0.91536   0.93898   0.70356   0.00000  Uiso   1.00
C288   C     0.88712   0.97217   0.79546   0.00000  Uiso   1.00
C289   C     0.86660   0.03974   0.94881   0.00000  Uiso   1.00
C290   C     0.76341   0.82339   0.61177   0.00000  Uiso   1.00
C291   C     0.76593   0.85361   0.49592   0.00000  Uiso   1.00
C292   C     0.70736   0.86679   0.42950   0.00000  Uiso   1.00
C293   C     0.72086   0.89452   0.32615   0.00000  Uiso   1.00
C294   C     0.81020   0.75690   0.61044   0.00000  Uiso   1.00
C295   C     0.78884   0.68877   0.64032   0.00000  Uiso   1.00
C296   C     0.83961   0.63508   0.63339   0.00000  Uiso   1.00
C297   C     0.80191   0.87733   0.68411   0.00000  Uiso   1.00
C298   C     0.77360   0.91045   0.77595   0.00000  Uiso   1.00
C299   C     0.81740   0.95814   0.83106   0.00000  Uiso   1.00
H300   H     0.94573   0.86008   0.51866   0.00000  Uiso   1.00
H301   H     0.90298   0.90616   0.32962   0.00000  Uiso   1.00
H302   H     0.98446   0.72817   0.54042   0.00000  Uiso   1.00
H303   H     0.96921   0.94981   0.67603   0.00000  Uiso   1.00
H304   H     0.82491   0.95103   0.13570   0.00000  Uiso   1.00
H305   H     0.99671   0.57574   0.58022   0.00000  Uiso   1.00
H306   H     0.96457   0.04311   0.86617   0.00000  Uiso   1.00
H307   H     0.70923   0.81248   0.63945   0.00000  Uiso   1.00
H308   H     0.65350   0.85595   0.45703   0.00000  Uiso   1.00
H309   H     0.73498   0.67795   0.66783   0.00000  Uiso   1.00
H310   H     0.71974   0.89959   0.80343   0.00000  Uiso   1.00
H311   H     0.62242   0.91028   0.23911   0.00000  Uiso   1.00
H312   H     0.79423   0.53498   0.68363   0.00000  Uiso   1.00
H313   H     0.76208   0.00235   0.96957   0.00000  Uiso   1.00
O314   O     0.69128   0.96008   0.06521   0.00000  Uiso   1.00
O315   O     0.91668   0.46771   0.64842   0.00000  Uiso   1.00
O316   O     0.87451   0.08089   0.02357   0.00000  Uiso   1.00
N317   N     0.78490   0.93549   0.18508   0.00000  Uiso   1.00
N318   N     0.94552   0.58461   0.60066   0.00000  Uiso   1.00
N319   N     0.91548   0.02155   0.86801   0.00000  Uiso   1.00
N320   N     0.67594   0.91356   0.24072   0.00000  Uiso   1.00
N321   N     0.83656   0.56268   0.65630   0.00000  Uiso   1.00
N322   N     0.80652   0.99962   0.92366   0.00000  Uiso   1.00
C323   C     0.10846   0.15082   0.54633   0.00000  Uiso   1.00
C324   C     0.16448   0.13238   0.46038   0.00000  Uiso   1.00
C325   C     0.15088   0.10467   0.35710   0.00000  Uiso   1.00
C326   C     0.20942   0.09145   0.29054   0.00000  Uiso   1.00
C327   C     0.28581   0.06073   0.15165   0.00000  Uiso   1.00
C328   C     0.12021   0.22909   0.57490   0.00000  Uiso   1.00
C329   C     0.06939   0.28269   0.56792   0.00000  Uiso   1.00
C330   C     0.09067   0.35088   0.59778   0.00000  Uiso   1.00
C331   C     0.09832   0.47029   0.63676   0.00000  Uiso   1.00
C332   C     0.12849   0.10866   0.64856   0.00000  Uiso   1.00
C333   C     0.08464   0.06102   0.70356   0.00000  Uiso   1.00
C334   C     0.11288   0.02783   0.79546   0.00000  Uiso   1.00
C335   C     0.13340   0.96026   0.94881   0.00000  Uiso   1.00
C336   C     0.23659   0.17661   0.61177   0.00000  Uiso   1.00
C337   C     0.23407   0.14639   0.49592   0.00000  Uiso   1.00
C338   C     0.29264   0.13321   0.42950   0.00000  Uiso   1.00
C339   C     0.27914   0.10548   0.32615   0.00000  Uiso   1.00
C340   C     0.18980   0.24310   0.61044   0.00000  Uiso   1.00
C341   C     0.21116   0.31123   0.64032   0.00000  Uiso   1.00
C342   C     0.16039   0.36492   0.63339   0.00000  Uiso   1.00
C343   C     0.19809   0.12267   0.68411   0.00000  Uiso   1.00
C344   C     0.22640   0.08955   0.77595   0.00000  Uiso   1.00
C345   C     0.18260   0.04186   0.83106   0.00000  Uiso   1.00
H346   H     0.05427   0.13992   0.51866   0.00000  Uiso   1.00
H347   H     0.09702   0.09384   0.32962   0.00000  Uiso   1.00
H348   H     0.01554   0.27183   0.54042   0.00000  Uiso   1.00
H349   H     0.03079   0.05019   0.67603   0.00000  Uiso   1.00
H350   H     0.17509   0.04897   0.13570   0.00000  Uiso   1.00
H351   H     0.00329   0.42426   0.58022   0.00000  Uiso   1.00
H352   H     0.03543   0.95689   0.86617   0.00000  Uiso   1.00
H353   H     0.29077   0.18752   0.63945   0.00000  Uiso   1.00
H354   H     0.34650   0.14405   0.45703   0.00000  Uiso   1.00
H355   H     0.26502   0.32205   0.66783   0.00000  Uiso   1.00
H356   H     0.28026   0.10041   0.80343   0.00000  Uiso   1.00
H357   H     0.37758   0.08972   0.23911   0.00000  Uiso   1.00
H358   H     0.20577   0.46502   0.68363   0.00000  Uiso   1.00
H359   H     0.23792   0.99765   0.96957   0.00000  Uiso   1.00
O360   O     0.30872   0.03992   0.06521   0.00000  Uiso   1.00
O361   O     0.08332   0.53229   0.64842   0.00000  Uiso   1.00
O362   O     0.12549   0.91911   0.02357   0.00000  Uiso   1.00
N363   N     0.21510   0.06451   0.18508   0.00000  Uiso   1.00
N364   N     0.05448   0.41539   0.60066   0.00000  Uiso   1.00
N365   N     0.08452   0.97845   0.86801   0.00000  Uiso   1.00
N366   N     0.32406   0.08644   0.24072   0.00000  Uiso   1.00
N367   N     0.16344   0.43732   0.65630   0.00000  Uiso   1.00
N368   N     0.19348   0.00038   0.92366   0.00000  Uiso   1.00
