data_job_02688
_audit_creation_date              2018-12-19
_audit_creation_method            'Materials Studio'
_symmetry_space_group_name_H-M    'P1'
_symmetry_Int_Tables_number       1
_symmetry_cell_setting            triclinic
loop_
_symmetry_equiv_pos_as_xyz
  x,y,z
_cell_length_a                    22.3373
_cell_length_b                    10.1454
_cell_length_c                    13.3521
_cell_angle_alpha                 90.0000
_cell_angle_beta                  54.4601
_cell_angle_gamma                 90.0000
loop_
_atom_site_label
_atom_site_type_symbol
_atom_site_fract_x
_atom_site_fract_y
_atom_site_fract_z
_atom_site_U_iso_or_equiv
_atom_site_adp_type
_atom_site_occupancy
C1     C     0.99835   0.15823   0.19676   0.00000  Uiso   1.00
C2     C     0.05109   0.04908   0.11370   0.00000  Uiso   1.00
C3     C     0.08040   0.03249   0.99006   0.00000  Uiso   1.00
C4     C     0.12761   0.92648   0.93023   0.00000  Uiso   1.00
C5     C     0.20687   0.77008   0.79188   0.00000  Uiso   1.00
C6     C     0.93075   0.08907   0.30510   0.00000  Uiso   1.00
C7     C     0.85887   0.10613   0.34239   0.00000  Uiso   1.00
C8     C     0.80478   0.03381   0.44369   0.00000  Uiso   1.00
C9     C     0.69719   0.93958   0.60255   0.00000  Uiso   1.00
C10    C     0.03494   0.22773   0.24934   0.00000  Uiso   1.00
C11    C     0.05065   0.36139   0.23978   0.00000  Uiso   1.00
C12    C     0.08426   0.40581   0.29416   0.00000  Uiso   1.00
C13    C     0.13844   0.52687   0.36645   0.00000  Uiso   1.00
C14    C     0.03008   0.99947   0.31037   0.00000  Uiso   1.00
C15    C     0.06833   0.96284   0.17541   0.00000  Uiso   1.00
C16    C     0.11551   0.85684   0.11575   0.00000  Uiso   1.00
C17    C     0.14489   0.84010   0.99204   0.00000  Uiso   1.00
C18    C     0.94798   0.00285   0.36681   0.00000  Uiso   1.00
C19    C     0.89399   0.93049   0.46808   0.00000  Uiso   1.00
C20    C     0.82205   0.94743   0.50551   0.00000  Uiso   1.00
C21    C     0.05218   0.14150   0.31105   0.00000  Uiso   1.00
C22    C     0.08576   0.18574   0.36546   0.00000  Uiso   1.00
C23    C     0.10153   0.31943   0.35598   0.00000  Uiso   1.00
H24    H     0.98492   0.22536   0.14873   0.00000  Uiso   1.00
H25    H     0.06704   0.09923   0.94234   0.00000  Uiso   1.00
H26    H     0.84555   0.17288   0.29463   0.00000  Uiso   1.00
H27    H     0.03730   0.42808   0.19203   0.00000  Uiso   1.00
H28    H     0.16567   0.92135   0.74075   0.00000  Uiso   1.00
H29    H     0.69864   0.07666   0.48359   0.00000  Uiso   1.00
H30    H     0.10297   0.61482   0.26723   0.00000  Uiso   1.00
H31    H     0.04350   0.93234   0.35841   0.00000  Uiso   1.00
H32    H     0.12884   0.79013   0.16353   0.00000  Uiso   1.00
H33    H     0.90735   0.86377   0.51581   0.00000  Uiso   1.00
H34    H     0.09909   0.11898   0.41321   0.00000  Uiso   1.00
H35    H     0.21582   0.67046   0.92027   0.00000  Uiso   1.00
H36    H     0.74879   0.82578   0.66311   0.00000  Uiso   1.00
H37    H     0.15313   0.36394   0.44675   0.00000  Uiso   1.00
O38    O     0.24581   0.70762   0.69853   0.00000  Uiso   1.00
O39    O     0.63309   0.91141   0.67312   0.00000  Uiso   1.00
O40    O     0.16357   0.61745   0.38926   0.00000  Uiso   1.00
N41    N     0.16577   0.88183   0.80974   0.00000  Uiso   1.00
N42    N     0.72913   0.02703   0.50424   0.00000  Uiso   1.00
N43    N     0.10713   0.53017   0.30199   0.00000  Uiso   1.00
N44    N     0.19276   0.74683   0.90634   0.00000  Uiso   1.00
N45    N     0.75612   0.89203   0.60083   0.00000  Uiso   1.00
N46    N     0.13412   0.39517   0.39859   0.00000  Uiso   1.00
C47    C     0.49835   0.65823   0.19676   0.00000  Uiso   1.00
C48    C     0.55109   0.54908   0.11370   0.00000  Uiso   1.00
C49    C     0.58040   0.53249   0.99006   0.00000  Uiso   1.00
C50    C     0.62761   0.42648   0.93023   0.00000  Uiso   1.00
C51    C     0.70687   0.27008   0.79188   0.00000  Uiso   1.00
C52    C     0.43075   0.58907   0.30510   0.00000  Uiso   1.00
C53    C     0.35887   0.60613   0.34239   0.00000  Uiso   1.00
C54    C     0.30478   0.53381   0.44369   0.00000  Uiso   1.00
C55    C     0.19719   0.43958   0.60255   0.00000  Uiso   1.00
C56    C     0.53494   0.72773   0.24934   0.00000  Uiso   1.00
C57    C     0.55065   0.86139   0.23978   0.00000  Uiso   1.00
C58    C     0.58426   0.90581   0.29416   0.00000  Uiso   1.00
C59    C     0.63844   0.02687   0.36645   0.00000  Uiso   1.00
C60    C     0.53008   0.49947   0.31037   0.00000  Uiso   1.00
C61    C     0.56833   0.46284   0.17541   0.00000  Uiso   1.00
C62    C     0.61551   0.35684   0.11575   0.00000  Uiso   1.00
C63    C     0.64489   0.34010   0.99204   0.00000  Uiso   1.00
C64    C     0.44798   0.50285   0.36681   0.00000  Uiso   1.00
C65    C     0.39399   0.43049   0.46808   0.00000  Uiso   1.00
C66    C     0.32205   0.44743   0.50551   0.00000  Uiso   1.00
C67    C     0.55218   0.64150   0.31105   0.00000  Uiso   1.00
C68    C     0.58576   0.68574   0.36546   0.00000  Uiso   1.00
C69    C     0.60153   0.81943   0.35598   0.00000  Uiso   1.00
H70    H     0.48492   0.72536   0.14873   0.00000  Uiso   1.00
H71    H     0.56704   0.59923   0.94234   0.00000  Uiso   1.00
H72    H     0.34555   0.67288   0.29463   0.00000  Uiso   1.00
H73    H     0.53730   0.92808   0.19203   0.00000  Uiso   1.00
H74    H     0.66567   0.42135   0.74075   0.00000  Uiso   1.00
H75    H     0.19864   0.57666   0.48359   0.00000  Uiso   1.00
H76    H     0.60297   0.11482   0.26723   0.00000  Uiso   1.00
H77    H     0.54350   0.43234   0.35841   0.00000  Uiso   1.00
H78    H     0.62884   0.29013   0.16353   0.00000  Uiso   1.00
H79    H     0.40735   0.36377   0.51581   0.00000  Uiso   1.00
H80    H     0.59909   0.61898   0.41321   0.00000  Uiso   1.00
H81    H     0.71582   0.17046   0.92027   0.00000  Uiso   1.00
H82    H     0.24879   0.32578   0.66311   0.00000  Uiso   1.00
H83    H     0.65313   0.86394   0.44675   0.00000  Uiso   1.00
O84    O     0.74581   0.20762   0.69853   0.00000  Uiso   1.00
O85    O     0.13309   0.41141   0.67312   0.00000  Uiso   1.00
O86    O     0.66357   0.11745   0.38926   0.00000  Uiso   1.00
N87    N     0.66577   0.38183   0.80974   0.00000  Uiso   1.00
N88    N     0.22913   0.52703   0.50424   0.00000  Uiso   1.00
N89    N     0.60713   0.03017   0.30199   0.00000  Uiso   1.00
N90    N     0.69276   0.24683   0.90634   0.00000  Uiso   1.00
N91    N     0.25612   0.39203   0.60083   0.00000  Uiso   1.00
N92    N     0.63412   0.89517   0.39859   0.00000  Uiso   1.00
C93    C     0.00165   0.15823   0.80324   0.00000  Uiso   1.00
C94    C     0.94891   0.04908   0.88630   0.00000  Uiso   1.00
C95    C     0.91960   0.03249   0.00994   0.00000  Uiso   1.00
C96    C     0.87239   0.92648   0.06977   0.00000  Uiso   1.00
C97    C     0.79313   0.77008   0.20812   0.00000  Uiso   1.00
C98    C     0.06925   0.08907   0.69490   0.00000  Uiso   1.00
C99    C     0.14113   0.10613   0.65761   0.00000  Uiso   1.00
C100   C     0.19522   0.03381   0.55631   0.00000  Uiso   1.00
C101   C     0.30281   0.93958   0.39745   0.00000  Uiso   1.00
C102   C     0.96506   0.22773   0.75066   0.00000  Uiso   1.00
C103   C     0.94935   0.36139   0.76022   0.00000  Uiso   1.00
C104   C     0.91574   0.40581   0.70584   0.00000  Uiso   1.00
C105   C     0.86156   0.52687   0.63355   0.00000  Uiso   1.00
C106   C     0.96992   0.99947   0.68963   0.00000  Uiso   1.00
C107   C     0.93167   0.96284   0.82459   0.00000  Uiso   1.00
C108   C     0.88449   0.85684   0.88425   0.00000  Uiso   1.00
C109   C     0.85511   0.84010   0.00796   0.00000  Uiso   1.00
C110   C     0.05202   0.00285   0.63319   0.00000  Uiso   1.00
C111   C     0.10601   0.93049   0.53192   0.00000  Uiso   1.00
C112   C     0.17795   0.94743   0.49449   0.00000  Uiso   1.00
C113   C     0.94782   0.14150   0.68895   0.00000  Uiso   1.00
C114   C     0.91424   0.18574   0.63454   0.00000  Uiso   1.00
C115   C     0.89847   0.31943   0.64402   0.00000  Uiso   1.00
H116   H     0.01508   0.22536   0.85127   0.00000  Uiso   1.00
H117   H     0.93296   0.09923   0.05766   0.00000  Uiso   1.00
H118   H     0.15445   0.17288   0.70537   0.00000  Uiso   1.00
H119   H     0.96270   0.42808   0.80797   0.00000  Uiso   1.00
H120   H     0.83433   0.92135   0.25925   0.00000  Uiso   1.00
H121   H     0.30136   0.07666   0.51641   0.00000  Uiso   1.00
H122   H     0.89703   0.61482   0.73277   0.00000  Uiso   1.00
H123   H     0.95650   0.93234   0.64159   0.00000  Uiso   1.00
H124   H     0.87116   0.79013   0.83647   0.00000  Uiso   1.00
H125   H     0.09265   0.86377   0.48419   0.00000  Uiso   1.00
H126   H     0.90091   0.11898   0.58679   0.00000  Uiso   1.00
H127   H     0.78418   0.67046   0.07973   0.00000  Uiso   1.00
H128   H     0.25121   0.82578   0.33689   0.00000  Uiso   1.00
H129   H     0.84687   0.36394   0.55325   0.00000  Uiso   1.00
O130   O     0.75419   0.70762   0.30147   0.00000  Uiso   1.00
O131   O     0.36691   0.91141   0.32688   0.00000  Uiso   1.00
O132   O     0.83643   0.61745   0.61074   0.00000  Uiso   1.00
N133   N     0.83423   0.88183   0.19026   0.00000  Uiso   1.00
N134   N     0.27087   0.02703   0.49576   0.00000  Uiso   1.00
N135   N     0.89287   0.53017   0.69801   0.00000  Uiso   1.00
N136   N     0.80724   0.74683   0.09366   0.00000  Uiso   1.00
N137   N     0.24388   0.89203   0.39917   0.00000  Uiso   1.00
N138   N     0.86588   0.39517   0.60141   0.00000  Uiso   1.00
C139   C     0.50165   0.65823   0.80324   0.00000  Uiso   1.00
C140   C     0.44891   0.54908   0.88630   0.00000  Uiso   1.00
C141   C     0.41960   0.53249   0.00994   0.00000  Uiso   1.00
C142   C     0.37239   0.42648   0.06977   0.00000  Uiso   1.00
C143   C     0.29313   0.27008   0.20812   0.00000  Uiso   1.00
C144   C     0.56925   0.58907   0.69490   0.00000  Uiso   1.00
C145   C     0.64113   0.60613   0.65761   0.00000  Uiso   1.00
C146   C     0.69522   0.53381   0.55631   0.00000  Uiso   1.00
C147   C     0.80281   0.43958   0.39745   0.00000  Uiso   1.00
C148   C     0.46506   0.72773   0.75066   0.00000  Uiso   1.00
C149   C     0.44935   0.86139   0.76022   0.00000  Uiso   1.00
C150   C     0.41574   0.90581   0.70584   0.00000  Uiso   1.00
C151   C     0.36156   0.02687   0.63355   0.00000  Uiso   1.00
C152   C     0.46992   0.49947   0.68963   0.00000  Uiso   1.00
C153   C     0.43167   0.46284   0.82459   0.00000  Uiso   1.00
C154   C     0.38449   0.35684   0.88425   0.00000  Uiso   1.00
C155   C     0.35511   0.34010   0.00796   0.00000  Uiso   1.00
C156   C     0.55202   0.50285   0.63319   0.00000  Uiso   1.00
C157   C     0.60601   0.43049   0.53192   0.00000  Uiso   1.00
C158   C     0.67795   0.44743   0.49449   0.00000  Uiso   1.00
C159   C     0.44782   0.64150   0.68895   0.00000  Uiso   1.00
C160   C     0.41424   0.68574   0.63454   0.00000  Uiso   1.00
C161   C     0.39847   0.81943   0.64402   0.00000  Uiso   1.00
H162   H     0.51508   0.72536   0.85127   0.00000  Uiso   1.00
H163   H     0.43296   0.59923   0.05766   0.00000  Uiso   1.00
H164   H     0.65445   0.67288   0.70537   0.00000  Uiso   1.00
H165   H     0.46270   0.92808   0.80797   0.00000  Uiso   1.00
H166   H     0.33433   0.42135   0.25925   0.00000  Uiso   1.00
H167   H     0.80136   0.57666   0.51641   0.00000  Uiso   1.00
H168   H     0.39703   0.11482   0.73277   0.00000  Uiso   1.00
H169   H     0.45650   0.43234   0.64159   0.00000  Uiso   1.00
H170   H     0.37116   0.29013   0.83647   0.00000  Uiso   1.00
H171   H     0.59265   0.36377   0.48419   0.00000  Uiso   1.00
H172   H     0.40091   0.61898   0.58679   0.00000  Uiso   1.00
H173   H     0.28418   0.17046   0.07973   0.00000  Uiso   1.00
H174   H     0.75121   0.32578   0.33689   0.00000  Uiso   1.00
H175   H     0.34687   0.86394   0.55325   0.00000  Uiso   1.00
O176   O     0.25419   0.20762   0.30147   0.00000  Uiso   1.00
O177   O     0.86691   0.41141   0.32688   0.00000  Uiso   1.00
O178   O     0.33643   0.11745   0.61074   0.00000  Uiso   1.00
N179   N     0.33423   0.38183   0.19026   0.00000  Uiso   1.00
N180   N     0.77087   0.52703   0.49576   0.00000  Uiso   1.00
N181   N     0.39287   0.03017   0.69801   0.00000  Uiso   1.00
N182   N     0.30724   0.24683   0.09366   0.00000  Uiso   1.00
N183   N     0.74388   0.39203   0.39917   0.00000  Uiso   1.00
N184   N     0.36588   0.89517   0.60141   0.00000  Uiso   1.00
