data_job_07034
_audit_creation_date              2018-12-19
_audit_creation_method            'Materials Studio'
_symmetry_space_group_name_H-M    'P1'
_symmetry_Int_Tables_number       1
_symmetry_cell_setting            triclinic
loop_
_symmetry_equiv_pos_as_xyz
  x,y,z
_cell_length_a                    20.5059
_cell_length_b                    22.0180
_cell_length_c                    22.5713
_cell_angle_alpha                 72.2346
_cell_angle_beta                  72.4375
_cell_angle_gamma                 105.5260
loop_
_atom_site_label
_atom_site_type_symbol
_atom_site_fract_x
_atom_site_fract_y
_atom_site_fract_z
_atom_site_U_iso_or_equiv
_atom_site_adp_type
_atom_site_occupancy
C1     C     0.28050   0.88385   0.95929   0.00000  Uiso   1.00
C2     C     0.32457   0.95213   0.95855   0.00000  Uiso   1.00
C3     C     0.33596   0.01790   0.91519   0.00000  Uiso   1.00
C4     C     0.37788   0.07382   0.92258   0.00000  Uiso   1.00
C5     C     0.44186   0.18130   0.91395   0.00000  Uiso   1.00
C6     C     0.33359   0.84714   0.94895   0.00000  Uiso   1.00
C7     C     0.35254   0.82463   0.89752   0.00000  Uiso   1.00
C8     C     0.40204   0.79216   0.89682   0.00000  Uiso   1.00
C9     C     0.47997   0.73659   0.87332   0.00000  Uiso   1.00
C10    C     0.22051   0.84017   0.03219   0.00000  Uiso   1.00
C11    C     0.14438   0.81179   0.05076   0.00000  Uiso   1.00
C12    C     0.09868   0.77344   0.12015   0.00000  Uiso   1.00
C13    C     0.00104   0.70707   0.22589   0.00000  Uiso   1.00
C14    C     0.33471   0.86618   0.04951   0.00000  Uiso   1.00
C15    C     0.35401   0.94253   0.00756   0.00000  Uiso   1.00
C16    C     0.39593   0.99836   0.01501   0.00000  Uiso   1.00
C17    C     0.40737   0.06421   0.97167   0.00000  Uiso   1.00
C18    C     0.36303   0.83754   0.99795   0.00000  Uiso   1.00
C19    C     0.41251   0.80509   0.99734   0.00000  Uiso   1.00
C20    C     0.43154   0.78254   0.94592   0.00000  Uiso   1.00
C21    C     0.24995   0.83058   0.08120   0.00000  Uiso   1.00
C22    C     0.20436   0.79226   0.15057   0.00000  Uiso   1.00
C23    C     0.12818   0.76383   0.16924   0.00000  Uiso   1.00
H24    H     0.25759   0.89131   0.92114   0.00000  Uiso   1.00
H25    H     0.31317   0.02530   0.87727   0.00000  Uiso   1.00
H26    H     0.32974   0.83205   0.85961   0.00000  Uiso   1.00
H27    H     0.12162   0.81923   0.01282   0.00000  Uiso   1.00
H28    H     0.38780   0.16963   0.85023   0.00000  Uiso   1.00
H29    H     0.42273   0.76213   0.81300   0.00000  Uiso   1.00
H30    H     0.98386   0.73508   0.13608   0.00000  Uiso   1.00
H31    H     0.35763   0.85871   0.08766   0.00000  Uiso   1.00
H32    H     0.41871   0.99092   0.05294   0.00000  Uiso   1.00
H33    H     0.43528   0.79767   0.03527   0.00000  Uiso   1.00
H34    H     0.22716   0.78485   0.18848   0.00000  Uiso   1.00
H35    H     0.47346   0.14173   0.99280   0.00000  Uiso   1.00
H36    H     0.50838   0.73422   0.95557   0.00000  Uiso   1.00
H37    H     0.06952   0.70718   0.27865   0.00000  Uiso   1.00
O38    O     0.46903   0.24324   0.89565   0.00000  Uiso   1.00
O39    O     0.51483   0.70860   0.84681   0.00000  Uiso   1.00
O40    O     0.93905   0.67312   0.27068   0.00000  Uiso   1.00
N41    N     0.39957   0.14492   0.88856   0.00000  Uiso   1.00
N42    N     0.43223   0.76394   0.85374   0.00000  Uiso   1.00
N43    N     0.02193   0.73864   0.15579   0.00000  Uiso   1.00
N44    N     0.44566   0.12990   0.96528   0.00000  Uiso   1.00
N45    N     0.47832   0.74893   0.93046   0.00000  Uiso   1.00
N46    N     0.06802   0.72362   0.23251   0.00000  Uiso   1.00
C47    C     0.92092   0.97025   0.10309   0.00000  Uiso   1.00
C48    C     0.97047   0.95514   0.13925   0.00000  Uiso   1.00
C49    C     0.04002   0.95460   0.10907   0.00000  Uiso   1.00
C50    C     0.07651   0.93958   0.15088   0.00000  Uiso   1.00
C51    C     0.15830   0.91820   0.19648   0.00000  Uiso   1.00
C52    C     0.84674   0.90741   0.14306   0.00000  Uiso   1.00
C53    C     0.81225   0.86676   0.11607   0.00000  Uiso   1.00
C54    C     0.74457   0.81158   0.16108   0.00000  Uiso   1.00
C55    C     0.63424   0.71614   0.21257   0.00000  Uiso   1.00
C56    C     0.90519   0.03057   0.11462   0.00000  Uiso   1.00
C57    C     0.91983   0.09346   0.06372   0.00000  Uiso   1.00
C58    C     0.90135   0.14196   0.08478   0.00000  Uiso   1.00
C59    C     0.88177   0.23774   0.09211   0.00000  Uiso   1.00
C60    C     0.86203   0.94454   0.23101   0.00000  Uiso   1.00
C61    C     0.93848   0.94117   0.20874   0.00000  Uiso   1.00
C62    C     0.97487   0.92615   0.25060   0.00000  Uiso   1.00
C63    C     0.04446   0.92559   0.22049   0.00000  Uiso   1.00
C64    C     0.81475   0.89345   0.21254   0.00000  Uiso   1.00
C65    C     0.74710   0.83831   0.25760   0.00000  Uiso   1.00
C66    C     0.71253   0.79758   0.23069   0.00000  Uiso   1.00
C67    C     0.87321   0.01660   0.18410   0.00000  Uiso   1.00
C68    C     0.85468   0.06501   0.20525   0.00000  Uiso   1.00
C69    C     0.86930   0.12797   0.15439   0.00000  Uiso   1.00
H70    H     0.94582   0.98112   0.04900   0.00000  Uiso   1.00
H71    H     0.06476   0.96540   0.05530   0.00000  Uiso   1.00
H72    H     0.83702   0.87759   0.06230   0.00000  Uiso   1.00
H73    H     0.94459   0.10425   0.00995   0.00000  Uiso   1.00
H74    H     0.18250   0.94180   0.09294   0.00000  Uiso   1.00
H75    H     0.70229   0.75664   0.10769   0.00000  Uiso   1.00
H76    H     0.92912   0.23461   0.99731   0.00000  Uiso   1.00
H77    H     0.83713   0.93366   0.28510   0.00000  Uiso   1.00
H78    H     0.95010   0.91534   0.30437   0.00000  Uiso   1.00
H79    H     0.72236   0.82752   0.31136   0.00000  Uiso   1.00
H80    H     0.82993   0.05419   0.25902   0.00000  Uiso   1.00
H81    H     0.08944   0.90116   0.29510   0.00000  Uiso   1.00
H82    H     0.60923   0.71600   0.30984   0.00000  Uiso   1.00
H83    H     0.83606   0.19397   0.19946   0.00000  Uiso   1.00
O84    O     0.21224   0.91026   0.20244   0.00000  Uiso   1.00
O85    O     0.58222   0.66735   0.22178   0.00000  Uiso   1.00
O86    O     0.87981   0.29444   0.07696   0.00000  Uiso   1.00
N87    N     0.14510   0.93476   0.13787   0.00000  Uiso   1.00
N88    N     0.69614   0.76164   0.15166   0.00000  Uiso   1.00
N89    N     0.90818   0.20850   0.04846   0.00000  Uiso   1.00
N90    N     0.09503   0.91289   0.24665   0.00000  Uiso   1.00
N91    N     0.64607   0.73978   0.26044   0.00000  Uiso   1.00
N92    N     0.85811   0.18663   0.15724   0.00000  Uiso   1.00
C93    C     0.45773   0.38367   0.71973   0.00000  Uiso   1.00
C94    C     0.39336   0.37527   0.78157   0.00000  Uiso   1.00
C95    C     0.32299   0.32193   0.81492   0.00000  Uiso   1.00
C96    C     0.27183   0.32355   0.87047   0.00000  Uiso   1.00
C97    C     0.16902   0.30246   0.96323   0.00000  Uiso   1.00
C98    C     0.48087   0.45547   0.66422   0.00000  Uiso   1.00
C99    C     0.48408   0.46956   0.59889   0.00000  Uiso   1.00
C100   C     0.50660   0.53869   0.55566   0.00000  Uiso   1.00
C101   C     0.53971   0.64212   0.46620   0.00000  Uiso   1.00
C102   C     0.52247   0.38722   0.74036   0.00000  Uiso   1.00
C103   C     0.56069   0.34395   0.73904   0.00000  Uiso   1.00
C104   C     0.61825   0.35563   0.75990   0.00000  Uiso   1.00
C105   C     0.71595   0.35309   0.78868   0.00000  Uiso   1.00
C106   C     0.49202   0.48138   0.75910   0.00000  Uiso   1.00
C107   C     0.41198   0.42835   0.80296   0.00000  Uiso   1.00
C108   C     0.36091   0.43005   0.85848   0.00000  Uiso   1.00
C109   C     0.29048   0.37672   0.89190   0.00000  Uiso   1.00
C110   C     0.49949   0.50855   0.68560   0.00000  Uiso   1.00
C111   C     0.52201   0.57768   0.64245   0.00000  Uiso   1.00
C112   C     0.52526   0.59187   0.57708   0.00000  Uiso   1.00
C113   C     0.54109   0.44030   0.76175   0.00000  Uiso   1.00
C114   C     0.59861   0.45206   0.78261   0.00000  Uiso   1.00
C115   C     0.63690   0.40880   0.78133   0.00000  Uiso   1.00
H116   H     0.44324   0.34235   0.70307   0.00000  Uiso   1.00
H117   H     0.30859   0.28087   0.79834   0.00000  Uiso   1.00
H118   H     0.46968   0.42848   0.58235   0.00000  Uiso   1.00
H119   H     0.54626   0.30288   0.72249   0.00000  Uiso   1.00
H120   H     0.16752   0.23613   0.91339   0.00000  Uiso   1.00
H121   H     0.50719   0.54737   0.45795   0.00000  Uiso   1.00
H122   H     0.66869   0.28252   0.75345   0.00000  Uiso   1.00
H123   H     0.50652   0.52271   0.77575   0.00000  Uiso   1.00
H124   H     0.37534   0.47113   0.87502   0.00000  Uiso   1.00
H125   H     0.53642   0.61874   0.65902   0.00000  Uiso   1.00
H126   H     0.61301   0.49314   0.79916   0.00000  Uiso   1.00
H127   H     0.22169   0.39055   0.97562   0.00000  Uiso   1.00
H128   H     0.56137   0.70179   0.52017   0.00000  Uiso   1.00
H129   H     0.72287   0.43694   0.81568   0.00000  Uiso   1.00
O130   O     0.10716   0.27617   0.00848   0.00000  Uiso   1.00
O131   O     0.55282   0.68450   0.41095   0.00000  Uiso   1.00
O132   O     0.76470   0.33703   0.79865   0.00000  Uiso   1.00
N133   N     0.19828   0.27955   0.91442   0.00000  Uiso   1.00
N134   N     0.51584   0.57054   0.48861   0.00000  Uiso   1.00
N135   N     0.66684   0.32294   0.76487   0.00000  Uiso   1.00
N136   N     0.22742   0.36264   0.94791   0.00000  Uiso   1.00
N137   N     0.54499   0.65363   0.52210   0.00000  Uiso   1.00
N138   N     0.69599   0.40603   0.79835   0.00000  Uiso   1.00
C139   C     0.99508   0.31623   0.48832   0.00000  Uiso   1.00
C140   C     0.07105   0.35005   0.48720   0.00000  Uiso   1.00
C141   C     0.13105   0.33151   0.46772   0.00000  Uiso   1.00
C142   C     0.19574   0.36880   0.47024   0.00000  Uiso   1.00
C143   C     0.31303   0.41314   0.46523   0.00000  Uiso   1.00
C144   C     0.98165   0.37471   0.44335   0.00000  Uiso   1.00
C145   C     0.96647   0.37689   0.38700   0.00000  Uiso   1.00
C146   C     0.95589   0.43493   0.35261   0.00000  Uiso   1.00
C147   C     0.93433   0.51753   0.27955   0.00000  Uiso   1.00
C148   C     0.93816   0.29191   0.56122   0.00000  Uiso   1.00
C149   C     0.88640   0.22448   0.60398   0.00000  Uiso   1.00
C150   C     0.83918   0.21282   0.66883   0.00000  Uiso   1.00
C151   C     0.75010   0.16687   0.77878   0.00000  Uiso   1.00
C152   C     0.00326   0.41543   0.52744   0.00000  Uiso   1.00
C153   C     0.07549   0.40393   0.50844   0.00000  Uiso   1.00
C154   C     0.14010   0.44126   0.51099   0.00000  Uiso   1.00
C155   C     0.20018   0.42277   0.49152   0.00000  Uiso   1.00
C156   C     0.98609   0.42859   0.46459   0.00000  Uiso   1.00
C157   C     0.97552   0.48664   0.43028   0.00000  Uiso   1.00
C158   C     0.96033   0.48891   0.37389   0.00000  Uiso   1.00
C159   C     0.94260   0.34579   0.58247   0.00000  Uiso   1.00
C160   C     0.89545   0.33423   0.64725   0.00000  Uiso   1.00
C161   C     0.84363   0.26680   0.69011   0.00000  Uiso   1.00
H162   H     0.99163   0.27429   0.47178   0.00000  Uiso   1.00
H163   H     0.12760   0.28981   0.45128   0.00000  Uiso   1.00
H164   H     0.96303   0.33519   0.37058   0.00000  Uiso   1.00
H165   H     0.88298   0.18280   0.58752   0.00000  Uiso   1.00
H166   H     0.28031   0.33081   0.43789   0.00000  Uiso   1.00
H167   H     0.93330   0.42646   0.26774   0.00000  Uiso   1.00
H168   H     0.76448   0.10513   0.72521   0.00000  Uiso   1.00
H169   H     0.00671   0.45738   0.54398   0.00000  Uiso   1.00
H170   H     0.14352   0.48295   0.52744   0.00000  Uiso   1.00
H171   H     0.97895   0.52832   0.44673   0.00000  Uiso   1.00
H172   H     0.89890   0.37594   0.66368   0.00000  Uiso   1.00
H173   H     0.29324   0.48757   0.49970   0.00000  Uiso   1.00
H174   H     0.94622   0.58322   0.32955   0.00000  Uiso   1.00
H175   H     0.77740   0.26189   0.78702   0.00000  Uiso   1.00
O176   O     0.37650   0.42272   0.45659   0.00000  Uiso   1.00
O177   O     0.92122   0.54821   0.23337   0.00000  Uiso   1.00
O178   O     0.69974   0.12664   0.83356   0.00000  Uiso   1.00
N179   N     0.26458   0.36418   0.45472   0.00000  Uiso   1.00
N180   N     0.94015   0.45362   0.29564   0.00000  Uiso   1.00
N181   N     0.78231   0.15321   0.72333   0.00000  Uiso   1.00
N182   N     0.27153   0.44853   0.48798   0.00000  Uiso   1.00
N183   N     0.94710   0.53797   0.32890   0.00000  Uiso   1.00
N184   N     0.78926   0.23756   0.75659   0.00000  Uiso   1.00
C185   C     0.14046   0.83342   0.53067   0.00000  Uiso   1.00
C186   C     0.12939   0.89570   0.54134   0.00000  Uiso   1.00
C187   C     0.11327   0.94467   0.49936   0.00000  Uiso   1.00
C188   C     0.10521   0.99773   0.51790   0.00000  Uiso   1.00
C189   C     0.08679   0.09383   0.52560   0.00000  Uiso   1.00
C190   C     0.08454   0.76961   0.59630   0.00000  Uiso   1.00
C191   C     0.03073   0.71256   0.60053   0.00000  Uiso   1.00
C192   C     0.98493   0.65948   0.66534   0.00000  Uiso   1.00
C193   C     0.89692   0.55979   0.75835   0.00000  Uiso   1.00
C194   C     0.21728   0.83985   0.52810   0.00000  Uiso   1.00
C195   C     0.27507   0.84183   0.47500   0.00000  Uiso   1.00
C196   C     0.34102   0.84787   0.48239   0.00000  Uiso   1.00
C197   C     0.45911   0.85725   0.46952   0.00000  Uiso   1.00
C198   C     0.15482   0.84059   0.63825   0.00000  Uiso   1.00
C199   C     0.13718   0.89959   0.59977   0.00000  Uiso   1.00
C200   C     0.12915   0.95260   0.61838   0.00000  Uiso   1.00
C201   C     0.11302   0.00164   0.57643   0.00000  Uiso   1.00
C202   C     0.09234   0.77350   0.65473   0.00000  Uiso   1.00
C203   C     0.04661   0.72049   0.71955   0.00000  Uiso   1.00
C204   C     0.99273   0.66338   0.72387   0.00000  Uiso   1.00
C205   C     0.22508   0.84374   0.58653   0.00000  Uiso   1.00
C206   C     0.29095   0.84977   0.59401   0.00000  Uiso   1.00
C207   C     0.34883   0.85177   0.54093   0.00000  Uiso   1.00
H208   H     0.13439   0.83038   0.48519   0.00000  Uiso   1.00
H209   H     0.10723   0.94163   0.45415   0.00000  Uiso   1.00
H210   H     0.02471   0.70956   0.55530   0.00000  Uiso   1.00
H211   H     0.26901   0.83882   0.42979   0.00000  Uiso   1.00
H212   H     0.08054   0.06668   0.44552   0.00000  Uiso   1.00
H213   H     0.90655   0.57732   0.65880   0.00000  Uiso   1.00
H214   H     0.42171   0.84989   0.39413   0.00000  Uiso   1.00
H215   H     0.16088   0.84362   0.68374   0.00000  Uiso   1.00
H216   H     0.13519   0.95560   0.66360   0.00000  Uiso   1.00
H217   H     0.05266   0.72352   0.76475   0.00000  Uiso   1.00
H218   H     0.29696   0.85278   0.63924   0.00000  Uiso   1.00
H219   H     0.10322   0.07801   0.61552   0.00000  Uiso   1.00
H220   H     0.92924   0.58865   0.82880   0.00000  Uiso   1.00
H221   H     0.44440   0.86123   0.56413   0.00000  Uiso   1.00
O222   O     0.07447   0.14576   0.51370   0.00000  Uiso   1.00
O223   O     0.84622   0.50374   0.79352   0.00000  Uiso   1.00
O224   O     0.52210   0.86135   0.44627   0.00000  Uiso   1.00
N225   N     0.08942   0.05399   0.48829   0.00000  Uiso   1.00
N226   N     0.92674   0.59647   0.68770   0.00000  Uiso   1.00
N227   N     0.40837   0.85129   0.44026   0.00000  Uiso   1.00
N228   N     0.10162   0.06009   0.57976   0.00000  Uiso   1.00
N229   N     0.93895   0.60257   0.77917   0.00000  Uiso   1.00
N230   N     0.42058   0.85738   0.53173   0.00000  Uiso   1.00
C231   C     0.51903   0.29758   0.25434   0.00000  Uiso   1.00
C232   C     0.50635   0.24773   0.32463   0.00000  Uiso   1.00
C233   C     0.47046   0.17593   0.35307   0.00000  Uiso   1.00
C234   C     0.46454   0.13956   0.41799   0.00000  Uiso   1.00
C235   C     0.44049   0.05693   0.52178   0.00000  Uiso   1.00
C236   C     0.60286   0.33996   0.21597   0.00000  Uiso   1.00
C237   C     0.64810   0.34570   0.15305   0.00000  Uiso   1.00
C238   C     0.72341   0.38698   0.12649   0.00000  Uiso   1.00
C239   C     0.84918   0.44758   0.06155   0.00000  Uiso   1.00
C240   C     0.48441   0.34830   0.26676   0.00000  Uiso   1.00
C241   C     0.43006   0.36109   0.24653   0.00000  Uiso   1.00
C242   C     0.40566   0.40941   0.26273   0.00000  Uiso   1.00
C243   C     0.34751   0.48296   0.27665   0.00000  Uiso   1.00
C244   C     0.57233   0.36068   0.31906   0.00000  Uiso   1.00
C245   C     0.53531   0.28200   0.35978   0.00000  Uiso   1.00
C246   C     0.52944   0.24573   0.42468   0.00000  Uiso   1.00
C247   C     0.49354   0.17389   0.45321   0.00000  Uiso   1.00
C248   C     0.63181   0.37423   0.25112   0.00000  Uiso   1.00
C249   C     0.70708   0.41551   0.22465   0.00000  Uiso   1.00
C250   C     0.75242   0.42131   0.16170   0.00000  Uiso   1.00
C251   C     0.51336   0.38258   0.30192   0.00000  Uiso   1.00
C252   C     0.48904   0.43089   0.31814   0.00000  Uiso   1.00
C253   C     0.43467   0.44374   0.29794   0.00000  Uiso   1.00
H254   H     0.49649   0.27091   0.22697   0.00000  Uiso   1.00
H255   H     0.44807   0.14942   0.32585   0.00000  Uiso   1.00
H256   H     0.62568   0.31918   0.12585   0.00000  Uiso   1.00
H257   H     0.40767   0.33456   0.21933   0.00000  Uiso   1.00
H258   H     0.40717   0.02985   0.45097   0.00000  Uiso   1.00
H259   H     0.78167   0.38781   0.02925   0.00000  Uiso   1.00
H260   H     0.32196   0.42024   0.22637   0.00000  Uiso   1.00
H261   H     0.59488   0.38736   0.34642   0.00000  Uiso   1.00
H262   H     0.55185   0.27227   0.45187   0.00000  Uiso   1.00
H263   H     0.72946   0.44202   0.25186   0.00000  Uiso   1.00
H264   H     0.51146   0.45740   0.34534   0.00000  Uiso   1.00
H265   H     0.49141   0.12955   0.55325   0.00000  Uiso   1.00
H266   H     0.86590   0.48752   0.13153   0.00000  Uiso   1.00
H267   H     0.40620   0.51994   0.32864   0.00000  Uiso   1.00
O268   O     0.41923   0.00188   0.56931   0.00000  Uiso   1.00
O269   O     0.91055   0.47153   0.01602   0.00000  Uiso   1.00
O270   O     0.30743   0.51406   0.27463   0.00000  Uiso   1.00
N271   N     0.43289   0.06911   0.46058   0.00000  Uiso   1.00
N272   N     0.78302   0.40377   0.06630   0.00000  Uiso   1.00
N273   N     0.35325   0.43410   0.25057   0.00000  Uiso   1.00
N274   N     0.47822   0.12276   0.51561   0.00000  Uiso   1.00
N275   N     0.82835   0.45742   0.12134   0.00000  Uiso   1.00
N276   N     0.39858   0.48775   0.30560   0.00000  Uiso   1.00
C277   C     0.12772   0.36601   0.79066   0.00000  Uiso   1.00
C278   C     0.12310   0.31723   0.75508   0.00000  Uiso   1.00
C279   C     0.13874   0.25827   0.77141   0.00000  Uiso   1.00
C280   C     0.13117   0.22056   0.73280   0.00000  Uiso   1.00
C281   C     0.12736   0.14167   0.68564   0.00000  Uiso   1.00
C282   C     0.05103   0.36858   0.81539   0.00000  Uiso   1.00
C283   C     0.00608   0.35282   0.88243   0.00000  Uiso   1.00
C284   C     0.93784   0.35835   0.89457   0.00000  Uiso   1.00
C285   C     0.82217   0.35923   0.94103   0.00000  Uiso   1.00
C286   C     0.18077   0.43816   0.73462   0.00000  Uiso   1.00
C287   C     0.24489   0.48090   0.73375   0.00000  Uiso   1.00
C288   C     0.28588   0.54502   0.67790   0.00000  Uiso   1.00
C289   C     0.37165   0.65393   0.59895   0.00000  Uiso   1.00
C290   C     0.08647   0.40387   0.69303   0.00000  Uiso   1.00
C291   C     0.10069   0.33779   0.70205   0.00000  Uiso   1.00
C292   C     0.09310   0.30016   0.66340   0.00000  Uiso   1.00
C293   C     0.10873   0.24116   0.67967   0.00000  Uiso   1.00
C294   C     0.02862   0.38915   0.76236   0.00000  Uiso   1.00
C295   C     0.96044   0.39471   0.77441   0.00000  Uiso   1.00
C296   C     0.91540   0.37895   0.84145   0.00000  Uiso   1.00
C297   C     0.15836   0.45873   0.68159   0.00000  Uiso   1.00
C298   C     0.19926   0.52279   0.62573   0.00000  Uiso   1.00
C299   C     0.26344   0.56562   0.62478   0.00000  Uiso   1.00
H300   H     0.14516   0.35000   0.83195   0.00000  Uiso   1.00
H301   H     0.15607   0.24237   0.81246   0.00000  Uiso   1.00
H302   H     0.02343   0.33691   0.92345   0.00000  Uiso   1.00
H303   H     0.26221   0.46497   0.77479   0.00000  Uiso   1.00
H304   H     0.15825   0.13210   0.76748   0.00000  Uiso   1.00
H305   H     0.87860   0.33146   0.00151   0.00000  Uiso   1.00
H306   H     0.38211   0.60151   0.68804   0.00000  Uiso   1.00
H307   H     0.06903   0.41988   0.65175   0.00000  Uiso   1.00
H308   H     0.07576   0.31609   0.62237   0.00000  Uiso   1.00
H309   H     0.94312   0.41063   0.73336   0.00000  Uiso   1.00
H310   H     0.18190   0.53869   0.58471   0.00000  Uiso   1.00
H311   H     0.09307   0.19193   0.61320   0.00000  Uiso   1.00
H312   H     0.81341   0.39130   0.84723   0.00000  Uiso   1.00
H313   H     0.31693   0.66134   0.53376   0.00000  Uiso   1.00
O314   O     0.13144   0.09247   0.67428   0.00000  Uiso   1.00
O315   O     0.76455   0.35403   0.98131   0.00000  Uiso   1.00
O316   O     0.42515   0.70832   0.57005   0.00000  Uiso   1.00
N317   N     0.14200   0.16044   0.73520   0.00000  Uiso   1.00
N318   N     0.88053   0.34681   0.95400   0.00000  Uiso   1.00
N319   N     0.35127   0.59929   0.66094   0.00000  Uiso   1.00
N320   N     0.10693   0.19263   0.65218   0.00000  Uiso   1.00
N321   N     0.84546   0.37901   0.87098   0.00000  Uiso   1.00
N322   N     0.31620   0.63149   0.57792   0.00000  Uiso   1.00
C323   C     0.66516   0.29056   0.55728   0.00000  Uiso   1.00
C324   C     0.59389   0.29914   0.55692   0.00000  Uiso   1.00
C325   C     0.52263   0.25788   0.60812   0.00000  Uiso   1.00
C326   C     0.46476   0.27419   0.59816   0.00000  Uiso   1.00
C327   C     0.35212   0.27907   0.60660   0.00000  Uiso   1.00
C328   C     0.71680   0.36009   0.54855   0.00000  Uiso   1.00
C329   C     0.74887   0.37006   0.59271   0.00000  Uiso   1.00
C330   C     0.79447   0.43768   0.57571   0.00000  Uiso   1.00
C331   C     0.87268   0.53717   0.57113   0.00000  Uiso   1.00
C332   C     0.70121   0.28262   0.49187   0.00000  Uiso   1.00
C333   C     0.72021   0.22746   0.48837   0.00000  Uiso   1.00
C334   C     0.75270   0.22986   0.42364   0.00000  Uiso   1.00
C335   C     0.80673   0.20907   0.33105   0.00000  Uiso   1.00
C336   C     0.68912   0.39292   0.44856   0.00000  Uiso   1.00
C337   C     0.60691   0.35474   0.49786   0.00000  Uiso   1.00
C338   C     0.54913   0.37112   0.48782   0.00000  Uiso   1.00
C339   C     0.47779   0.32989   0.53900   0.00000  Uiso   1.00
C340   C     0.72981   0.41568   0.48950   0.00000  Uiso   1.00
C341   C     0.77538   0.48331   0.47242   0.00000  Uiso   1.00
C342   C     0.80750   0.49338   0.51654   0.00000  Uiso   1.00
C343   C     0.71423   0.33821   0.43281   0.00000  Uiso   1.00
C344   C     0.74671   0.34071   0.36808   0.00000  Uiso   1.00
C345   C     0.76574   0.28556   0.36448   0.00000  Uiso   1.00
H346   H     0.65503   0.24728   0.60326   0.00000  Uiso   1.00
H347   H     0.51258   0.21486   0.65381   0.00000  Uiso   1.00
H348   H     0.73879   0.32702   0.63840   0.00000  Uiso   1.00
H349   H     0.71013   0.18445   0.53408   0.00000  Uiso   1.00
H350   H     0.36039   0.20344   0.68383   0.00000  Uiso   1.00
H351   H     0.83739   0.43994   0.65133   0.00000  Uiso   1.00
H352   H     0.77695   0.13929   0.43134   0.00000  Uiso   1.00
H353   H     0.69925   0.43621   0.40258   0.00000  Uiso   1.00
H354   H     0.55922   0.41415   0.44212   0.00000  Uiso   1.00
H355   H     0.78544   0.52632   0.42671   0.00000  Uiso   1.00
H356   H     0.75677   0.38374   0.32239   0.00000  Uiso   1.00
H357   H     0.39824   0.36520   0.51202   0.00000  Uiso   1.00
H358   H     0.87525   0.60170   0.47951   0.00000  Uiso   1.00
H359   H     0.81480   0.30105   0.25952   0.00000  Uiso   1.00
O360   O     0.28640   0.26641   0.62757   0.00000  Uiso   1.00
O361   O     0.91222   0.57669   0.58492   0.00000  Uiso   1.00
O362   O     0.83292   0.18224   0.29630   0.00000  Uiso   1.00
N363   N     0.38851   0.24453   0.63796   0.00000  Uiso   1.00
N364   N     0.83447   0.46565   0.60758   0.00000  Uiso   1.00
N365   N     0.77798   0.18457   0.40190   0.00000  Uiso   1.00
N366   N     0.40888   0.33157   0.54551   0.00000  Uiso   1.00
N367   N     0.85484   0.55269   0.51513   0.00000  Uiso   1.00
N368   N     0.79835   0.27161   0.30945   0.00000  Uiso   1.00
C369   C     0.97858   0.84409   0.93850   0.00000  Uiso   1.00
C370   C     0.05517   0.90304   0.89335   0.00000  Uiso   1.00
C371   C     0.08474   0.96069   0.90473   0.00000  Uiso   1.00
C372   C     0.15575   0.00880   0.85747   0.00000  Uiso   1.00
C373   C     0.26861   0.10173   0.79598   0.00000  Uiso   1.00
C374   C     0.99227   0.77753   0.95895   0.00000  Uiso   1.00
C375   C     0.96894   0.72965   0.02549   0.00000  Uiso   1.00
C376   C     0.98700   0.67209   0.03345   0.00000  Uiso   1.00
C377   C     0.00216   0.57013   0.07381   0.00000  Uiso   1.00
C378   C     0.93870   0.84000   0.89183   0.00000  Uiso   1.00
C379   C     0.87032   0.84462   0.90194   0.00000  Uiso   1.00
C380   C     0.84327   0.83963   0.85340   0.00000  Uiso   1.00
C381   C     0.77525   0.83466   0.78954   0.00000  Uiso   1.00
C382   C     0.05212   0.82701   0.83433   0.00000  Uiso   1.00
C383   C     0.09511   0.89376   0.83677   0.00000  Uiso   1.00
C384   C     0.16610   0.94179   0.78948   0.00000  Uiso   1.00
C385   C     0.19577   0.99951   0.80078   0.00000  Uiso   1.00
C386   C     0.03221   0.76825   0.90237   0.00000  Uiso   1.00
C387   C     0.05030   0.71075   0.91024   0.00000  Uiso   1.00
C388   C     0.02701   0.66279   0.97677   0.00000  Uiso   1.00
C389   C     0.97864   0.83072   0.83525   0.00000  Uiso   1.00
C390   C     0.95169   0.82572   0.78668   0.00000  Uiso   1.00
C391   C     0.88328   0.83033   0.79672   0.00000  Uiso   1.00
H392   H     0.94749   0.85131   0.98256   0.00000  Uiso   1.00
H393   H     0.05381   0.96786   0.94853   0.00000  Uiso   1.00
H394   H     0.93803   0.73684   0.06927   0.00000  Uiso   1.00
H395   H     0.83943   0.85180   0.94573   0.00000  Uiso   1.00
H396   H     0.18932   0.09296   0.88586   0.00000  Uiso   1.00
H397   H     0.94516   0.60584   0.14045   0.00000  Uiso   1.00
H398   H     0.73724   0.84824   0.87995   0.00000  Uiso   1.00
H399   H     0.08322   0.81978   0.79028   0.00000  Uiso   1.00
H400   H     0.19699   0.93460   0.74570   0.00000  Uiso   1.00
H401   H     0.08121   0.70358   0.86644   0.00000  Uiso   1.00
H402   H     0.98261   0.81854   0.74291   0.00000  Uiso   1.00
H403   H     0.30554   0.06596   0.72124   0.00000  Uiso   1.00
H404   H     0.06137   0.57884   0.97583   0.00000  Uiso   1.00
H405   H     0.85345   0.82125   0.71533   0.00000  Uiso   1.00
O406   O     0.31984   0.15554   0.77770   0.00000  Uiso   1.00
O407   O     0.99949   0.51646   0.11171   0.00000  Uiso   1.00
O408   O     0.72671   0.83449   0.76995   0.00000  Uiso   1.00
N409   N     0.20105   0.07085   0.85323   0.00000  Uiso   1.00
N410   N     0.97279   0.61544   0.09125   0.00000  Uiso   1.00
N411   N     0.77839   0.84204   0.84772   0.00000  Uiso   1.00
N412   N     0.26359   0.05633   0.76464   0.00000  Uiso   1.00
N413   N     0.03532   0.60091   0.00267   0.00000  Uiso   1.00
N414   N     0.84092   0.82752   0.75914   0.00000  Uiso   1.00
C415   C     0.52337   0.95379   0.24166   0.00000  Uiso   1.00
C416   C     0.45661   0.97390   0.24998   0.00000  Uiso   1.00
C417   C     0.42940   0.00161   0.29481   0.00000  Uiso   1.00
C418   C     0.36777   0.01650   0.29473   0.00000  Uiso   1.00
C419   C     0.26913   0.04959   0.31428   0.00000  Uiso   1.00
C420   C     0.49481   0.87754   0.25416   0.00000  Uiso   1.00
C421   C     0.49973   0.82425   0.30250   0.00000  Uiso   1.00
C422   C     0.47026   0.75803   0.30594   0.00000  Uiso   1.00
C423   C     0.43099   0.64154   0.33194   0.00000  Uiso   1.00
C424   C     0.57683   0.99426   0.16611   0.00000  Uiso   1.00
C425   C     0.65072   0.03909   0.14042   0.00000  Uiso   1.00
C426   C     0.69031   0.07114   0.06972   0.00000  Uiso   1.00
C427   C     0.77839   0.13586   0.95901   0.00000  Uiso   1.00
C428   C     0.46230   0.93096   0.16180   0.00000  Uiso   1.00
C429   C     0.42344   0.96150   0.20660   0.00000  Uiso   1.00
C430   C     0.36184   0.97636   0.20646   0.00000  Uiso   1.00
C431   C     0.33454   0.00409   0.25128   0.00000  Uiso   1.00
C432   C     0.46164   0.86514   0.21079   0.00000  Uiso   1.00
C433   C     0.43217   0.79899   0.21415   0.00000  Uiso   1.00
C434   C     0.43704   0.74561   0.26249   0.00000  Uiso   1.00
C435   C     0.54366   0.98187   0.12273   0.00000  Uiso   1.00
C436   C     0.58316   0.01384   0.05206   0.00000  Uiso   1.00
C437   C     0.65709   0.05872   0.02626   0.00000  Uiso   1.00
H438   H     0.54919   0.96343   0.27543   0.00000  Uiso   1.00
H439   H     0.45508   0.01119   0.32838   0.00000  Uiso   1.00
H440   H     0.52540   0.83386   0.33606   0.00000  Uiso   1.00
H441   H     0.67636   0.04868   0.17400   0.00000  Uiso   1.00
H442   H     0.33609   0.05865   0.36796   0.00000  Uiso   1.00
H443   H     0.48440   0.68474   0.38415   0.00000  Uiso   1.00
H444   H     0.80274   0.13772   0.04241   0.00000  Uiso   1.00
H445   H     0.43648   0.92130   0.12803   0.00000  Uiso   1.00
H446   H     0.33618   0.96676   0.17288   0.00000  Uiso   1.00
H447   H     0.40651   0.78942   0.18057   0.00000  Uiso   1.00
H448   H     0.55747   0.00424   0.01851   0.00000  Uiso   1.00
H449   H     0.23959   0.02258   0.24176   0.00000  Uiso   1.00
H450   H     0.38791   0.64867   0.25795   0.00000  Uiso   1.00
H451   H     0.70624   0.10165   0.91621   0.00000  Uiso   1.00
O452   O     0.22388   0.07125   0.33705   0.00000  Uiso   1.00
O453   O     0.41848   0.58070   0.35828   0.00000  Uiso   1.00
O454   O     0.83612   0.17500   0.90993   0.00000  Uiso   1.00
N455   N     0.32715   0.04394   0.33210   0.00000  Uiso   1.00
N456   N     0.46581   0.69435   0.34724   0.00000  Uiso   1.00
N457   N     0.76343   0.11783   0.02774   0.00000  Uiso   1.00
N458   N     0.27523   0.02453   0.26419   0.00000  Uiso   1.00
N459   N     0.41388   0.67494   0.27933   0.00000  Uiso   1.00
N460   N     0.71151   0.09843   0.95984   0.00000  Uiso   1.00
C461   C     0.37568   0.49680   0.06814   0.00000  Uiso   1.00
C462   C     0.38654   0.43533   0.05536   0.00000  Uiso   1.00
C463   C     0.35396   0.36691   0.10375   0.00000  Uiso   1.00
C464   C     0.37094   0.31830   0.08190   0.00000  Uiso   1.00
C465   C     0.38056   0.21995   0.07238   0.00000  Uiso   1.00
C466   C     0.45343   0.54952   0.04676   0.00000  Uiso   1.00
C467   C     0.47708   0.57710   0.08793   0.00000  Uiso   1.00
C468   C     0.55036   0.62462   0.05885   0.00000  Uiso   1.00
C469   C     0.66381   0.70358   0.03596   0.00000  Uiso   1.00
C470   C     0.34744   0.52978   0.01674   0.00000  Uiso   1.00
C471   C     0.28197   0.54079   0.03266   0.00000  Uiso   1.00
C472   C     0.26603   0.57171   0.97830   0.00000  Uiso   1.00
C473   C     0.21490   0.62002   0.90880   0.00000  Uiso   1.00
C474   C     0.46377   0.53216   0.94328   0.00000  Uiso   1.00
C475   C     0.43440   0.45454   0.98754   0.00000  Uiso   1.00
C476   C     0.45143   0.40603   0.96561   0.00000  Uiso   1.00
C477   C     0.41887   0.33754   0.01396   0.00000  Uiso   1.00
C478   C     0.50128   0.56872   0.97895   0.00000  Uiso   1.00
C479   C     0.57454   0.61622   0.94979   0.00000  Uiso   1.00
C480   C     0.59830   0.64387   0.99091   0.00000  Uiso   1.00
C481   C     0.39528   0.54899   0.94892   0.00000  Uiso   1.00
C482   C     0.37944   0.57991   0.89452   0.00000  Uiso   1.00
C483   C     0.31396   0.59095   0.91036   0.00000  Uiso   1.00
H484   H     0.33843   0.48185   0.12094   0.00000  Uiso   1.00
H485   H     0.31694   0.35206   0.15623   0.00000  Uiso   1.00
H486   H     0.44003   0.56223   0.14041   0.00000  Uiso   1.00
H487   H     0.24496   0.52592   0.08515   0.00000  Uiso   1.00
H488   H     0.31424   0.21665   0.16546   0.00000  Uiso   1.00
H489   H     0.57378   0.65981   0.13209   0.00000  Uiso   1.00
H490   H     0.16243   0.58324   0.01556   0.00000  Uiso   1.00
H491   H     0.50103   0.54712   0.89048   0.00000  Uiso   1.00
H492   H     0.48846   0.42091   0.91312   0.00000  Uiso   1.00
H493   H     0.61156   0.63108   0.89731   0.00000  Uiso   1.00
H494   H     0.41648   0.59476   0.84204   0.00000  Uiso   1.00
H495   H     0.45345   0.27252   0.96814   0.00000  Uiso   1.00
H496   H     0.71300   0.71569   0.93478   0.00000  Uiso   1.00
H497   H     0.30164   0.63912   0.81825   0.00000  Uiso   1.00
O498   O     0.37266   0.16039   0.08586   0.00000  Uiso   1.00
O499   O     0.71317   0.74181   0.04208   0.00000  Uiso   1.00
O500   O     0.17348   0.64135   0.88920   0.00000  Uiso   1.00
N501   N     0.34871   0.24712   0.11591   0.00000  Uiso   1.00
N502   N     0.59138   0.66144   0.08472   0.00000  Uiso   1.00
N503   N     0.20680   0.58987   0.97577   0.00000  Uiso   1.00
N504   N     0.42362   0.27718   0.00973   0.00000  Uiso   1.00
N505   N     0.66629   0.69151   0.97854   0.00000  Uiso   1.00
N506   N     0.28171   0.61994   0.86960   0.00000  Uiso   1.00
C507   C     0.82531   0.85523   0.54732   0.00000  Uiso   1.00
C508   C     0.85328   0.93188   0.50030   0.00000  Uiso   1.00
C509   C     0.89611   0.98717   0.50782   0.00000  Uiso   1.00
C510   C     0.91603   0.05343   0.45942   0.00000  Uiso   1.00
C511   C     0.96280   0.17086   0.39463   0.00000  Uiso   1.00
C512   C     0.74086   0.82606   0.57207   0.00000  Uiso   1.00
C513   C     0.68916   0.79236   0.63993   0.00000  Uiso   1.00
C514   C     0.61444   0.76952   0.65194   0.00000  Uiso   1.00
C515   C     0.48667   0.72261   0.69858   0.00000  Uiso   1.00
C516   C     0.85383   0.82099   0.50153   0.00000  Uiso   1.00
C517   C     0.89711   0.78302   0.51009   0.00000  Uiso   1.00
C518   C     0.91750   0.75591   0.46272   0.00000  Uiso   1.00
C519   C     0.96515   0.70114   0.39984   0.00000  Uiso   1.00
C520   C     0.78453   0.87457   0.44798   0.00000  Uiso   1.00
C521   C     0.83113   0.94239   0.44634   0.00000  Uiso   1.00
C522   C     0.85099   0.00857   0.39791   0.00000  Uiso   1.00
C523   C     0.89384   0.06395   0.40536   0.00000  Uiso   1.00
C524   C     0.71870   0.83656   0.51811   0.00000  Uiso   1.00
C525   C     0.64404   0.81376   0.53003   0.00000  Uiso   1.00
C526   C     0.59225   0.78004   0.59789   0.00000  Uiso   1.00
C527   C     0.83169   0.83150   0.44757   0.00000  Uiso   1.00
C528   C     0.85200   0.80443   0.40018   0.00000  Uiso   1.00
C529   C     0.89531   0.76643   0.40867   0.00000  Uiso   1.00
H530   H     0.84255   0.84704   0.58933   0.00000  Uiso   1.00
H531   H     0.91323   0.97902   0.54959   0.00000  Uiso   1.00
H532   H     0.70631   0.78423   0.68168   0.00000  Uiso   1.00
H533   H     0.91424   0.77490   0.55185   0.00000  Uiso   1.00
H534   H     0.98181   0.12998   0.48175   0.00000  Uiso   1.00
H535   H     0.54551   0.71923   0.76026   0.00000  Uiso   1.00
H536   H     0.98397   0.69956   0.48651   0.00000  Uiso   1.00
H537   H     0.76728   0.88274   0.40598   0.00000  Uiso   1.00
H538   H     0.83384   0.01669   0.35617   0.00000  Uiso   1.00
H539   H     0.62692   0.82190   0.48826   0.00000  Uiso   1.00
H540   H     0.83485   0.81257   0.35843   0.00000  Uiso   1.00
H541   H     0.91737   0.16055   0.32476   0.00000  Uiso   1.00
H542   H     0.48107   0.74980   0.60328   0.00000  Uiso   1.00
H543   H     0.91953   0.73013   0.32952   0.00000  Uiso   1.00
O544   O     0.99471   0.23273   0.37381   0.00000  Uiso   1.00
O545   O     0.42231   0.69384   0.73921   0.00000  Uiso   1.00
O546   O     0.99756   0.66803   0.38005   0.00000  Uiso   1.00
N547   N     0.95752   0.11879   0.45163   0.00000  Uiso   1.00
N548   N     0.54961   0.73478   0.71202   0.00000  Uiso   1.00
N549   N     0.95951   0.71637   0.45610   0.00000  Uiso   1.00
N550   N     0.92285   0.13524   0.36715   0.00000  Uiso   1.00
N551   N     0.51494   0.75123   0.62755   0.00000  Uiso   1.00
N552   N     0.92484   0.73282   0.37162   0.00000  Uiso   1.00
