data_job_01238
_audit_creation_date              2018-12-19
_audit_creation_method            'Materials Studio'
_symmetry_space_group_name_H-M    'P1'
_symmetry_Int_Tables_number       1
_symmetry_cell_setting            triclinic
loop_
_symmetry_equiv_pos_as_xyz
  x,y,z
_cell_length_a                    19.2408
_cell_length_b                    12.4268
_cell_length_c                    39.8193
_cell_angle_alpha                 90.0000
_cell_angle_beta                  134.1016
_cell_angle_gamma                 90.0000
loop_
_atom_site_label
_atom_site_type_symbol
_atom_site_fract_x
_atom_site_fract_y
_atom_site_fract_z
_atom_site_U_iso_or_equiv
_atom_site_adp_type
_atom_site_occupancy
C1     C     0.38748   0.54158   0.37990   0.00000  Uiso   1.00
C2     C     0.36298   0.54668   0.33436   0.00000  Uiso   1.00
C3     C     0.42603   0.52391   0.32938   0.00000  Uiso   1.00
C4     C     0.38974   0.53329   0.28479   0.00000  Uiso   1.00
C5     C     0.36630   0.53654   0.21989   0.00000  Uiso   1.00
C6     C     0.36420   0.65260   0.38625   0.00000  Uiso   1.00
C7     C     0.42827   0.71888   0.42490   0.00000  Uiso   1.00
C8     C     0.39298   0.81742   0.42400   0.00000  Uiso   1.00
C9     C     0.37141   0.98508   0.43967   0.00000  Uiso   1.00
C10    C     0.31425   0.46464   0.37091   0.00000  Uiso   1.00
C11    C     0.33633   0.37290   0.39667   0.00000  Uiso   1.00
C12    C     0.25899   0.31320   0.38285   0.00000  Uiso   1.00
C13    C     0.15987   0.18902   0.37471   0.00000  Uiso   1.00
C14    C     0.21089   0.59873   0.30957   0.00000  Uiso   1.00
C15    C     0.26707   0.57772   0.29616   0.00000  Uiso   1.00
C16    C     0.23066   0.58714   0.25157   0.00000  Uiso   1.00
C17    C     0.29364   0.56438   0.24652   0.00000  Uiso   1.00
C18    C     0.26828   0.68364   0.34805   0.00000  Uiso   1.00
C19    C     0.23289   0.78210   0.34709   0.00000  Uiso   1.00
C20    C     0.29689   0.84852   0.38573   0.00000  Uiso   1.00
C21    C     0.21833   0.49568   0.33271   0.00000  Uiso   1.00
C22    C     0.14095   0.43612   0.31885   0.00000  Uiso   1.00
C23    C     0.16290   0.34430   0.34458   0.00000  Uiso   1.00
H24    H     0.46216   0.51743   0.40965   0.00000  Uiso   1.00
H25    H     0.50026   0.49990   0.35895   0.00000  Uiso   1.00
H26    H     0.50249   0.69484   0.45446   0.00000  Uiso   1.00
H27    H     0.41056   0.34891   0.42623   0.00000  Uiso   1.00
H28    H     0.50022   0.49421   0.28590   0.00000  Uiso   1.00
H29    H     0.50490   0.90521   0.48730   0.00000  Uiso   1.00
H30    H     0.31106   0.17575   0.42777   0.00000  Uiso   1.00
H31    H     0.13621   0.62290   0.27983   0.00000  Uiso   1.00
H32    H     0.15643   0.61116   0.22201   0.00000  Uiso   1.00
H33    H     0.15866   0.80609   0.31752   0.00000  Uiso   1.00
H34    H     0.06673   0.46016   0.28929   0.00000  Uiso   1.00
H35    H     0.22115   0.58451   0.17476   0.00000  Uiso   1.00
H36    H     0.22584   0.99552   0.37616   0.00000  Uiso   1.00
H37    H     0.03199   0.26605   0.31662   0.00000  Uiso   1.00
O38    O     0.37988   0.52977   0.19464   0.00000  Uiso   1.00
O39    O     0.38602   0.06898   0.45887   0.00000  Uiso   1.00
O40    O     0.13170   0.11195   0.38076   0.00000  Uiso   1.00
N41    N     0.43176   0.51705   0.26768   0.00000  Uiso   1.00
N42    N     0.43614   0.90132   0.45597   0.00000  Uiso   1.00
N43    N     0.25491   0.21935   0.40032   0.00000  Uiso   1.00
N44    N     0.28160   0.56564   0.20787   0.00000  Uiso   1.00
N45    N     0.28598   0.94991   0.39616   0.00000  Uiso   1.00
N46    N     0.10475   0.26794   0.34051   0.00000  Uiso   1.00
C47    C     0.88748   0.04158   0.37990   0.00000  Uiso   1.00
C48    C     0.86298   0.04668   0.33436   0.00000  Uiso   1.00
C49    C     0.92603   0.02391   0.32938   0.00000  Uiso   1.00
C50    C     0.88974   0.03329   0.28479   0.00000  Uiso   1.00
C51    C     0.86630   0.03654   0.21989   0.00000  Uiso   1.00
C52    C     0.86420   0.15260   0.38625   0.00000  Uiso   1.00
C53    C     0.92827   0.21888   0.42490   0.00000  Uiso   1.00
C54    C     0.89298   0.31742   0.42400   0.00000  Uiso   1.00
C55    C     0.87141   0.48508   0.43967   0.00000  Uiso   1.00
C56    C     0.81425   0.96464   0.37091   0.00000  Uiso   1.00
C57    C     0.83633   0.87290   0.39667   0.00000  Uiso   1.00
C58    C     0.75899   0.81320   0.38285   0.00000  Uiso   1.00
C59    C     0.65987   0.68902   0.37471   0.00000  Uiso   1.00
C60    C     0.71089   0.09873   0.30957   0.00000  Uiso   1.00
C61    C     0.76707   0.07772   0.29616   0.00000  Uiso   1.00
C62    C     0.73066   0.08714   0.25157   0.00000  Uiso   1.00
C63    C     0.79364   0.06438   0.24652   0.00000  Uiso   1.00
C64    C     0.76828   0.18364   0.34805   0.00000  Uiso   1.00
C65    C     0.73289   0.28210   0.34709   0.00000  Uiso   1.00
C66    C     0.79689   0.34852   0.38573   0.00000  Uiso   1.00
C67    C     0.71833   0.99568   0.33271   0.00000  Uiso   1.00
C68    C     0.64095   0.93612   0.31885   0.00000  Uiso   1.00
C69    C     0.66290   0.84430   0.34458   0.00000  Uiso   1.00
H70    H     0.96216   0.01743   0.40965   0.00000  Uiso   1.00
H71    H     0.00026   0.99990   0.35895   0.00000  Uiso   1.00
H72    H     0.00249   0.19484   0.45446   0.00000  Uiso   1.00
H73    H     0.91056   0.84891   0.42623   0.00000  Uiso   1.00
H74    H     0.00022   0.99421   0.28590   0.00000  Uiso   1.00
H75    H     0.00490   0.40521   0.48730   0.00000  Uiso   1.00
H76    H     0.81106   0.67575   0.42777   0.00000  Uiso   1.00
H77    H     0.63621   0.12290   0.27983   0.00000  Uiso   1.00
H78    H     0.65643   0.11116   0.22201   0.00000  Uiso   1.00
H79    H     0.65866   0.30609   0.31752   0.00000  Uiso   1.00
H80    H     0.56673   0.96016   0.28929   0.00000  Uiso   1.00
H81    H     0.72115   0.08451   0.17476   0.00000  Uiso   1.00
H82    H     0.72584   0.49552   0.37616   0.00000  Uiso   1.00
H83    H     0.53199   0.76605   0.31662   0.00000  Uiso   1.00
O84    O     0.87988   0.02977   0.19464   0.00000  Uiso   1.00
O85    O     0.88602   0.56898   0.45887   0.00000  Uiso   1.00
O86    O     0.63170   0.61195   0.38076   0.00000  Uiso   1.00
N87    N     0.93176   0.01705   0.26768   0.00000  Uiso   1.00
N88    N     0.93614   0.40132   0.45597   0.00000  Uiso   1.00
N89    N     0.75491   0.71935   0.40032   0.00000  Uiso   1.00
N90    N     0.78160   0.06564   0.20787   0.00000  Uiso   1.00
N91    N     0.78598   0.44991   0.39616   0.00000  Uiso   1.00
N92    N     0.60475   0.76794   0.34051   0.00000  Uiso   1.00
C93    C     0.61252   0.54158   0.12010   0.00000  Uiso   1.00
C94    C     0.63702   0.54668   0.16564   0.00000  Uiso   1.00
C95    C     0.57397   0.52391   0.17062   0.00000  Uiso   1.00
C96    C     0.61026   0.53329   0.21521   0.00000  Uiso   1.00
C97    C     0.63370   0.53654   0.28011   0.00000  Uiso   1.00
C98    C     0.63580   0.65260   0.11375   0.00000  Uiso   1.00
C99    C     0.57173   0.71888   0.07510   0.00000  Uiso   1.00
C100   C     0.60702   0.81742   0.07600   0.00000  Uiso   1.00
C101   C     0.62859   0.98508   0.06033   0.00000  Uiso   1.00
C102   C     0.68575   0.46464   0.12909   0.00000  Uiso   1.00
C103   C     0.66367   0.37290   0.10333   0.00000  Uiso   1.00
C104   C     0.74101   0.31320   0.11715   0.00000  Uiso   1.00
C105   C     0.84013   0.18902   0.12529   0.00000  Uiso   1.00
C106   C     0.78911   0.59873   0.19043   0.00000  Uiso   1.00
C107   C     0.73293   0.57772   0.20384   0.00000  Uiso   1.00
C108   C     0.76934   0.58714   0.24843   0.00000  Uiso   1.00
C109   C     0.70636   0.56438   0.25348   0.00000  Uiso   1.00
C110   C     0.73172   0.68364   0.15195   0.00000  Uiso   1.00
C111   C     0.76711   0.78210   0.15291   0.00000  Uiso   1.00
C112   C     0.70311   0.84852   0.11427   0.00000  Uiso   1.00
C113   C     0.78167   0.49568   0.16729   0.00000  Uiso   1.00
C114   C     0.85905   0.43612   0.18115   0.00000  Uiso   1.00
C115   C     0.83710   0.34430   0.15542   0.00000  Uiso   1.00
H116   H     0.53784   0.51743   0.09035   0.00000  Uiso   1.00
H117   H     0.49974   0.49990   0.14105   0.00000  Uiso   1.00
H118   H     0.49751   0.69484   0.04554   0.00000  Uiso   1.00
H119   H     0.58944   0.34891   0.07377   0.00000  Uiso   1.00
H120   H     0.49978   0.49421   0.21410   0.00000  Uiso   1.00
H121   H     0.49510   0.90521   0.01270   0.00000  Uiso   1.00
H122   H     0.68894   0.17575   0.07223   0.00000  Uiso   1.00
H123   H     0.86379   0.62290   0.22017   0.00000  Uiso   1.00
H124   H     0.84357   0.61116   0.27799   0.00000  Uiso   1.00
H125   H     0.84134   0.80609   0.18248   0.00000  Uiso   1.00
H126   H     0.93327   0.46016   0.21071   0.00000  Uiso   1.00
H127   H     0.77885   0.58451   0.32524   0.00000  Uiso   1.00
H128   H     0.77416   0.99552   0.12384   0.00000  Uiso   1.00
H129   H     0.96801   0.26605   0.18338   0.00000  Uiso   1.00
O130   O     0.62012   0.52977   0.30536   0.00000  Uiso   1.00
O131   O     0.61398   0.06898   0.04113   0.00000  Uiso   1.00
O132   O     0.86830   0.11195   0.11924   0.00000  Uiso   1.00
N133   N     0.56824   0.51705   0.23232   0.00000  Uiso   1.00
N134   N     0.56386   0.90132   0.04403   0.00000  Uiso   1.00
N135   N     0.74509   0.21935   0.09968   0.00000  Uiso   1.00
N136   N     0.71840   0.56564   0.29213   0.00000  Uiso   1.00
N137   N     0.71402   0.94991   0.10384   0.00000  Uiso   1.00
N138   N     0.89525   0.26794   0.15949   0.00000  Uiso   1.00
C139   C     0.11252   0.04158   0.12010   0.00000  Uiso   1.00
C140   C     0.13702   0.04668   0.16564   0.00000  Uiso   1.00
C141   C     0.07397   0.02391   0.17062   0.00000  Uiso   1.00
C142   C     0.11026   0.03329   0.21521   0.00000  Uiso   1.00
C143   C     0.13370   0.03654   0.28011   0.00000  Uiso   1.00
C144   C     0.13580   0.15260   0.11375   0.00000  Uiso   1.00
C145   C     0.07173   0.21888   0.07510   0.00000  Uiso   1.00
C146   C     0.10702   0.31742   0.07600   0.00000  Uiso   1.00
C147   C     0.12859   0.48508   0.06033   0.00000  Uiso   1.00
C148   C     0.18575   0.96464   0.12909   0.00000  Uiso   1.00
C149   C     0.16367   0.87290   0.10333   0.00000  Uiso   1.00
C150   C     0.24101   0.81320   0.11715   0.00000  Uiso   1.00
C151   C     0.34013   0.68902   0.12529   0.00000  Uiso   1.00
C152   C     0.28911   0.09873   0.19043   0.00000  Uiso   1.00
C153   C     0.23293   0.07772   0.20384   0.00000  Uiso   1.00
C154   C     0.26934   0.08714   0.24843   0.00000  Uiso   1.00
C155   C     0.20636   0.06438   0.25348   0.00000  Uiso   1.00
C156   C     0.23172   0.18364   0.15195   0.00000  Uiso   1.00
C157   C     0.26711   0.28210   0.15291   0.00000  Uiso   1.00
C158   C     0.20311   0.34852   0.11427   0.00000  Uiso   1.00
C159   C     0.28167   0.99568   0.16729   0.00000  Uiso   1.00
C160   C     0.35905   0.93612   0.18115   0.00000  Uiso   1.00
C161   C     0.33710   0.84430   0.15542   0.00000  Uiso   1.00
H162   H     0.03784   0.01743   0.09035   0.00000  Uiso   1.00
H163   H     0.99974   0.99990   0.14105   0.00000  Uiso   1.00
H164   H     0.99751   0.19484   0.04554   0.00000  Uiso   1.00
H165   H     0.08944   0.84891   0.07377   0.00000  Uiso   1.00
H166   H     0.99978   0.99421   0.21410   0.00000  Uiso   1.00
H167   H     0.99510   0.40521   0.01270   0.00000  Uiso   1.00
H168   H     0.18894   0.67575   0.07223   0.00000  Uiso   1.00
H169   H     0.36379   0.12290   0.22017   0.00000  Uiso   1.00
H170   H     0.34357   0.11116   0.27799   0.00000  Uiso   1.00
H171   H     0.34134   0.30609   0.18248   0.00000  Uiso   1.00
H172   H     0.43327   0.96016   0.21071   0.00000  Uiso   1.00
H173   H     0.27885   0.08451   0.32524   0.00000  Uiso   1.00
H174   H     0.27416   0.49552   0.12384   0.00000  Uiso   1.00
H175   H     0.46801   0.76605   0.18338   0.00000  Uiso   1.00
O176   O     0.12012   0.02977   0.30536   0.00000  Uiso   1.00
O177   O     0.11398   0.56898   0.04113   0.00000  Uiso   1.00
O178   O     0.36830   0.61195   0.11924   0.00000  Uiso   1.00
N179   N     0.06824   0.01705   0.23232   0.00000  Uiso   1.00
N180   N     0.06386   0.40132   0.04403   0.00000  Uiso   1.00
N181   N     0.24509   0.71935   0.09968   0.00000  Uiso   1.00
N182   N     0.21840   0.06564   0.29213   0.00000  Uiso   1.00
N183   N     0.21402   0.44991   0.10384   0.00000  Uiso   1.00
N184   N     0.39525   0.76794   0.15949   0.00000  Uiso   1.00
C185   C     0.61252   0.45842   0.62010   0.00000  Uiso   1.00
C186   C     0.63702   0.45332   0.66564   0.00000  Uiso   1.00
C187   C     0.57397   0.47609   0.67062   0.00000  Uiso   1.00
C188   C     0.61026   0.46671   0.71521   0.00000  Uiso   1.00
C189   C     0.63370   0.46346   0.78011   0.00000  Uiso   1.00
C190   C     0.63580   0.34740   0.61375   0.00000  Uiso   1.00
C191   C     0.57173   0.28112   0.57510   0.00000  Uiso   1.00
C192   C     0.60702   0.18258   0.57600   0.00000  Uiso   1.00
C193   C     0.62859   0.01492   0.56033   0.00000  Uiso   1.00
C194   C     0.68575   0.53536   0.62909   0.00000  Uiso   1.00
C195   C     0.66367   0.62710   0.60333   0.00000  Uiso   1.00
C196   C     0.74101   0.68680   0.61715   0.00000  Uiso   1.00
C197   C     0.84013   0.81098   0.62529   0.00000  Uiso   1.00
C198   C     0.78911   0.40127   0.69043   0.00000  Uiso   1.00
C199   C     0.73293   0.42228   0.70384   0.00000  Uiso   1.00
C200   C     0.76934   0.41286   0.74843   0.00000  Uiso   1.00
C201   C     0.70636   0.43562   0.75348   0.00000  Uiso   1.00
C202   C     0.73172   0.31636   0.65195   0.00000  Uiso   1.00
C203   C     0.76711   0.21790   0.65291   0.00000  Uiso   1.00
C204   C     0.70311   0.15148   0.61427   0.00000  Uiso   1.00
C205   C     0.78167   0.50432   0.66729   0.00000  Uiso   1.00
C206   C     0.85905   0.56388   0.68115   0.00000  Uiso   1.00
C207   C     0.83710   0.65570   0.65542   0.00000  Uiso   1.00
H208   H     0.53784   0.48257   0.59035   0.00000  Uiso   1.00
H209   H     0.49974   0.50010   0.64105   0.00000  Uiso   1.00
H210   H     0.49751   0.30516   0.54554   0.00000  Uiso   1.00
H211   H     0.58944   0.65109   0.57377   0.00000  Uiso   1.00
H212   H     0.49978   0.50579   0.71410   0.00000  Uiso   1.00
H213   H     0.49510   0.09479   0.51270   0.00000  Uiso   1.00
H214   H     0.68894   0.82425   0.57223   0.00000  Uiso   1.00
H215   H     0.86379   0.37710   0.72017   0.00000  Uiso   1.00
H216   H     0.84357   0.38884   0.77799   0.00000  Uiso   1.00
H217   H     0.84134   0.19391   0.68248   0.00000  Uiso   1.00
H218   H     0.93327   0.53984   0.71071   0.00000  Uiso   1.00
H219   H     0.77885   0.41549   0.82524   0.00000  Uiso   1.00
H220   H     0.77416   0.00448   0.62384   0.00000  Uiso   1.00
H221   H     0.96801   0.73395   0.68338   0.00000  Uiso   1.00
O222   O     0.62012   0.47023   0.80536   0.00000  Uiso   1.00
O223   O     0.61398   0.93102   0.54113   0.00000  Uiso   1.00
O224   O     0.86830   0.88805   0.61924   0.00000  Uiso   1.00
N225   N     0.56824   0.48295   0.73232   0.00000  Uiso   1.00
N226   N     0.56386   0.09868   0.54403   0.00000  Uiso   1.00
N227   N     0.74509   0.78065   0.59968   0.00000  Uiso   1.00
N228   N     0.71840   0.43436   0.79213   0.00000  Uiso   1.00
N229   N     0.71402   0.05009   0.60384   0.00000  Uiso   1.00
N230   N     0.89525   0.73206   0.65949   0.00000  Uiso   1.00
C231   C     0.11252   0.95842   0.62010   0.00000  Uiso   1.00
C232   C     0.13702   0.95332   0.66564   0.00000  Uiso   1.00
C233   C     0.07397   0.97609   0.67062   0.00000  Uiso   1.00
C234   C     0.11026   0.96671   0.71521   0.00000  Uiso   1.00
C235   C     0.13370   0.96346   0.78011   0.00000  Uiso   1.00
C236   C     0.13580   0.84740   0.61375   0.00000  Uiso   1.00
C237   C     0.07173   0.78112   0.57510   0.00000  Uiso   1.00
C238   C     0.10702   0.68258   0.57600   0.00000  Uiso   1.00
C239   C     0.12859   0.51492   0.56033   0.00000  Uiso   1.00
C240   C     0.18575   0.03536   0.62909   0.00000  Uiso   1.00
C241   C     0.16367   0.12710   0.60333   0.00000  Uiso   1.00
C242   C     0.24101   0.18680   0.61715   0.00000  Uiso   1.00
C243   C     0.34013   0.31098   0.62529   0.00000  Uiso   1.00
C244   C     0.28911   0.90127   0.69043   0.00000  Uiso   1.00
C245   C     0.23293   0.92228   0.70384   0.00000  Uiso   1.00
C246   C     0.26934   0.91286   0.74843   0.00000  Uiso   1.00
C247   C     0.20636   0.93562   0.75348   0.00000  Uiso   1.00
C248   C     0.23172   0.81636   0.65195   0.00000  Uiso   1.00
C249   C     0.26711   0.71790   0.65291   0.00000  Uiso   1.00
C250   C     0.20311   0.65148   0.61427   0.00000  Uiso   1.00
C251   C     0.28167   0.00432   0.66729   0.00000  Uiso   1.00
C252   C     0.35905   0.06388   0.68115   0.00000  Uiso   1.00
C253   C     0.33710   0.15570   0.65542   0.00000  Uiso   1.00
H254   H     0.03784   0.98257   0.59035   0.00000  Uiso   1.00
H255   H     0.99974   0.00010   0.64105   0.00000  Uiso   1.00
H256   H     0.99751   0.80516   0.54554   0.00000  Uiso   1.00
H257   H     0.08944   0.15109   0.57377   0.00000  Uiso   1.00
H258   H     0.99978   0.00579   0.71410   0.00000  Uiso   1.00
H259   H     0.99510   0.59479   0.51270   0.00000  Uiso   1.00
H260   H     0.18894   0.32425   0.57223   0.00000  Uiso   1.00
H261   H     0.36379   0.87710   0.72017   0.00000  Uiso   1.00
H262   H     0.34357   0.88884   0.77799   0.00000  Uiso   1.00
H263   H     0.34134   0.69391   0.68248   0.00000  Uiso   1.00
H264   H     0.43327   0.03984   0.71071   0.00000  Uiso   1.00
H265   H     0.27885   0.91549   0.82524   0.00000  Uiso   1.00
H266   H     0.27416   0.50448   0.62384   0.00000  Uiso   1.00
H267   H     0.46801   0.23395   0.68338   0.00000  Uiso   1.00
O268   O     0.12012   0.97023   0.80536   0.00000  Uiso   1.00
O269   O     0.11398   0.43102   0.54113   0.00000  Uiso   1.00
O270   O     0.36830   0.38805   0.61924   0.00000  Uiso   1.00
N271   N     0.06824   0.98295   0.73232   0.00000  Uiso   1.00
N272   N     0.06386   0.59868   0.54403   0.00000  Uiso   1.00
N273   N     0.24509   0.28065   0.59968   0.00000  Uiso   1.00
N274   N     0.21840   0.93436   0.79213   0.00000  Uiso   1.00
N275   N     0.21402   0.55009   0.60384   0.00000  Uiso   1.00
N276   N     0.39525   0.23206   0.65949   0.00000  Uiso   1.00
C277   C     0.38748   0.45842   0.87990   0.00000  Uiso   1.00
C278   C     0.36298   0.45332   0.83436   0.00000  Uiso   1.00
C279   C     0.42603   0.47609   0.82938   0.00000  Uiso   1.00
C280   C     0.38974   0.46671   0.78479   0.00000  Uiso   1.00
C281   C     0.36630   0.46346   0.71989   0.00000  Uiso   1.00
C282   C     0.36420   0.34740   0.88625   0.00000  Uiso   1.00
C283   C     0.42827   0.28112   0.92490   0.00000  Uiso   1.00
C284   C     0.39298   0.18258   0.92400   0.00000  Uiso   1.00
C285   C     0.37141   0.01492   0.93967   0.00000  Uiso   1.00
C286   C     0.31425   0.53536   0.87091   0.00000  Uiso   1.00
C287   C     0.33633   0.62710   0.89667   0.00000  Uiso   1.00
C288   C     0.25899   0.68680   0.88285   0.00000  Uiso   1.00
C289   C     0.15987   0.81098   0.87471   0.00000  Uiso   1.00
C290   C     0.21089   0.40127   0.80957   0.00000  Uiso   1.00
C291   C     0.26707   0.42228   0.79616   0.00000  Uiso   1.00
C292   C     0.23066   0.41286   0.75157   0.00000  Uiso   1.00
C293   C     0.29364   0.43562   0.74652   0.00000  Uiso   1.00
C294   C     0.26828   0.31636   0.84805   0.00000  Uiso   1.00
C295   C     0.23289   0.21790   0.84709   0.00000  Uiso   1.00
C296   C     0.29689   0.15148   0.88573   0.00000  Uiso   1.00
C297   C     0.21833   0.50432   0.83271   0.00000  Uiso   1.00
C298   C     0.14095   0.56388   0.81885   0.00000  Uiso   1.00
C299   C     0.16290   0.65570   0.84458   0.00000  Uiso   1.00
H300   H     0.46216   0.48257   0.90965   0.00000  Uiso   1.00
H301   H     0.50026   0.50010   0.85895   0.00000  Uiso   1.00
H302   H     0.50249   0.30516   0.95446   0.00000  Uiso   1.00
H303   H     0.41056   0.65109   0.92623   0.00000  Uiso   1.00
H304   H     0.50022   0.50579   0.78590   0.00000  Uiso   1.00
H305   H     0.50490   0.09479   0.98730   0.00000  Uiso   1.00
H306   H     0.31106   0.82425   0.92777   0.00000  Uiso   1.00
H307   H     0.13621   0.37710   0.77983   0.00000  Uiso   1.00
H308   H     0.15643   0.38884   0.72201   0.00000  Uiso   1.00
H309   H     0.15866   0.19391   0.81752   0.00000  Uiso   1.00
H310   H     0.06673   0.53984   0.78929   0.00000  Uiso   1.00
H311   H     0.22115   0.41549   0.67476   0.00000  Uiso   1.00
H312   H     0.22584   0.00448   0.87616   0.00000  Uiso   1.00
H313   H     0.03199   0.73395   0.81662   0.00000  Uiso   1.00
O314   O     0.37988   0.47023   0.69464   0.00000  Uiso   1.00
O315   O     0.38602   0.93102   0.95887   0.00000  Uiso   1.00
O316   O     0.13170   0.88805   0.88076   0.00000  Uiso   1.00
N317   N     0.43176   0.48295   0.76768   0.00000  Uiso   1.00
N318   N     0.43614   0.09868   0.95597   0.00000  Uiso   1.00
N319   N     0.25491   0.78065   0.90032   0.00000  Uiso   1.00
N320   N     0.28160   0.43436   0.70787   0.00000  Uiso   1.00
N321   N     0.28598   0.05009   0.89616   0.00000  Uiso   1.00
N322   N     0.10475   0.73206   0.84051   0.00000  Uiso   1.00
C323   C     0.88748   0.95842   0.87990   0.00000  Uiso   1.00
C324   C     0.86298   0.95332   0.83436   0.00000  Uiso   1.00
C325   C     0.92603   0.97609   0.82938   0.00000  Uiso   1.00
C326   C     0.88974   0.96671   0.78479   0.00000  Uiso   1.00
C327   C     0.86630   0.96346   0.71989   0.00000  Uiso   1.00
C328   C     0.86420   0.84740   0.88625   0.00000  Uiso   1.00
C329   C     0.92827   0.78112   0.92490   0.00000  Uiso   1.00
C330   C     0.89298   0.68258   0.92400   0.00000  Uiso   1.00
C331   C     0.87141   0.51492   0.93967   0.00000  Uiso   1.00
C332   C     0.81425   0.03536   0.87091   0.00000  Uiso   1.00
C333   C     0.83633   0.12710   0.89667   0.00000  Uiso   1.00
C334   C     0.75899   0.18680   0.88285   0.00000  Uiso   1.00
C335   C     0.65987   0.31098   0.87471   0.00000  Uiso   1.00
C336   C     0.71089   0.90127   0.80957   0.00000  Uiso   1.00
C337   C     0.76707   0.92228   0.79616   0.00000  Uiso   1.00
C338   C     0.73066   0.91286   0.75157   0.00000  Uiso   1.00
C339   C     0.79364   0.93562   0.74652   0.00000  Uiso   1.00
C340   C     0.76828   0.81636   0.84805   0.00000  Uiso   1.00
C341   C     0.73289   0.71790   0.84709   0.00000  Uiso   1.00
C342   C     0.79689   0.65148   0.88573   0.00000  Uiso   1.00
C343   C     0.71833   0.00432   0.83271   0.00000  Uiso   1.00
C344   C     0.64095   0.06388   0.81885   0.00000  Uiso   1.00
C345   C     0.66290   0.15570   0.84458   0.00000  Uiso   1.00
H346   H     0.96216   0.98257   0.90965   0.00000  Uiso   1.00
H347   H     0.00026   0.00010   0.85895   0.00000  Uiso   1.00
H348   H     0.00249   0.80516   0.95446   0.00000  Uiso   1.00
H349   H     0.91056   0.15109   0.92623   0.00000  Uiso   1.00
H350   H     0.00022   0.00579   0.78590   0.00000  Uiso   1.00
H351   H     0.00490   0.59479   0.98730   0.00000  Uiso   1.00
H352   H     0.81106   0.32425   0.92777   0.00000  Uiso   1.00
H353   H     0.63621   0.87710   0.77983   0.00000  Uiso   1.00
H354   H     0.65643   0.88884   0.72201   0.00000  Uiso   1.00
H355   H     0.65866   0.69391   0.81752   0.00000  Uiso   1.00
H356   H     0.56673   0.03984   0.78929   0.00000  Uiso   1.00
H357   H     0.72115   0.91549   0.67476   0.00000  Uiso   1.00
H358   H     0.72584   0.50448   0.87616   0.00000  Uiso   1.00
H359   H     0.53199   0.23395   0.81662   0.00000  Uiso   1.00
O360   O     0.87988   0.97023   0.69464   0.00000  Uiso   1.00
O361   O     0.88602   0.43102   0.95887   0.00000  Uiso   1.00
O362   O     0.63170   0.38805   0.88076   0.00000  Uiso   1.00
N363   N     0.93176   0.98295   0.76768   0.00000  Uiso   1.00
N364   N     0.93614   0.59868   0.95597   0.00000  Uiso   1.00
N365   N     0.75491   0.28065   0.90032   0.00000  Uiso   1.00
N366   N     0.78160   0.93436   0.70787   0.00000  Uiso   1.00
N367   N     0.78598   0.55009   0.89616   0.00000  Uiso   1.00
N368   N     0.60475   0.23206   0.84051   0.00000  Uiso   1.00
