data_job_04831
_audit_creation_date              2018-12-19
_audit_creation_method            'Materials Studio'
_symmetry_space_group_name_H-M    'P1'
_symmetry_Int_Tables_number       1
_symmetry_cell_setting            triclinic
loop_
_symmetry_equiv_pos_as_xyz
  x,y,z
_cell_length_a                    23.4418
_cell_length_b                    12.3945
_cell_length_c                    19.2844
_cell_angle_alpha                 90.0000
_cell_angle_beta                  90.0000
_cell_angle_gamma                 90.0000
loop_
_atom_site_label
_atom_site_type_symbol
_atom_site_fract_x
_atom_site_fract_y
_atom_site_fract_z
_atom_site_U_iso_or_equiv
_atom_site_adp_type
_atom_site_occupancy
C1     C     0.85353   0.36555   0.07262   0.00000  Uiso   1.00
C2     C     0.84634   0.44579   0.13192   0.00000  Uiso   1.00
C3     C     0.81468   0.54032   0.12946   0.00000  Uiso   1.00
C4     C     0.81345   0.60281   0.18919   0.00000  Uiso   1.00
C5     C     0.79784   0.73216   0.27213   0.00000  Uiso   1.00
C6     C     0.91762   0.35489   0.06093   0.00000  Uiso   1.00
C7     C     0.94588   0.37298   0.99877   0.00000  Uiso   1.00
C8     C     0.00464   0.35893   0.99874   0.00000  Uiso   1.00
C9     C     0.09969   0.34707   0.97145   0.00000  Uiso   1.00
C10    C     0.83371   0.25682   0.10070   0.00000  Uiso   1.00
C11    C     0.79142   0.19244   0.07198   0.00000  Uiso   1.00
C12    C     0.77955   0.09582   0.10543   0.00000  Uiso   1.00
C13    C     0.74430   0.93170   0.13990   0.00000  Uiso   1.00
C14    C     0.90763   0.30842   0.18308   0.00000  Uiso   1.00
C15    C     0.87573   0.41476   0.19192   0.00000  Uiso   1.00
C16    C     0.87454   0.47712   0.25167   0.00000  Uiso   1.00
C17    C     0.84288   0.57173   0.24930   0.00000  Uiso   1.00
C18    C     0.94701   0.32386   0.12092   0.00000  Uiso   1.00
C19    C     0.00574   0.30978   0.12098   0.00000  Uiso   1.00
C20    C     0.03408   0.32785   0.05884   0.00000  Uiso   1.00
C21    C     0.86309   0.22579   0.16070   0.00000  Uiso   1.00
C22    C     0.85128   0.12925   0.19420   0.00000  Uiso   1.00
C23    C     0.80899   0.06473   0.16553   0.00000  Uiso   1.00
H24    H     0.83066   0.38970   0.02590   0.00000  Uiso   1.00
H25    H     0.79195   0.56431   0.08301   0.00000  Uiso   1.00
H26    H     0.92313   0.39698   0.95234   0.00000  Uiso   1.00
H27    H     0.76869   0.21648   0.02555   0.00000  Uiso   1.00
H28    H     0.76202   0.74423   0.17278   0.00000  Uiso   1.00
H29    H     0.03861   0.39137   0.89725   0.00000  Uiso   1.00
H30    H     0.71295   0.01074   0.05161   0.00000  Uiso   1.00
H31    H     0.93051   0.28427   0.22980   0.00000  Uiso   1.00
H32    H     0.89728   0.45309   0.29810   0.00000  Uiso   1.00
H33    H     0.02846   0.28576   0.16742   0.00000  Uiso   1.00
H34    H     0.87403   0.10526   0.24063   0.00000  Uiso   1.00
H35    H     0.84751   0.65397   0.34735   0.00000  Uiso   1.00
H36    H     0.12411   0.30110   0.07182   0.00000  Uiso   1.00
H37    H     0.79845   0.92048   0.22618   0.00000  Uiso   1.00
O38    O     0.78112   0.81208   0.30131   0.00000  Uiso   1.00
O39    O     0.14400   0.34911   0.93982   0.00000  Uiso   1.00
O40    O     0.71674   0.84975   0.14234   0.00000  Uiso   1.00
N41    N     0.78669   0.69981   0.20449   0.00000  Uiso   1.00
N42    N     0.04529   0.36992   0.94689   0.00000  Uiso   1.00
N43    N     0.74084   0.01405   0.09120   0.00000  Uiso   1.00
N44    N     0.83269   0.65124   0.29843   0.00000  Uiso   1.00
N45    N     0.09129   0.32135   0.04083   0.00000  Uiso   1.00
N46    N     0.78684   0.96548   0.18513   0.00000  Uiso   1.00
C47    C     0.35353   0.86555   0.07262   0.00000  Uiso   1.00
C48    C     0.34634   0.94579   0.13192   0.00000  Uiso   1.00
C49    C     0.31468   0.04032   0.12946   0.00000  Uiso   1.00
C50    C     0.31345   0.10281   0.18919   0.00000  Uiso   1.00
C51    C     0.29784   0.23216   0.27213   0.00000  Uiso   1.00
C52    C     0.41762   0.85489   0.06093   0.00000  Uiso   1.00
C53    C     0.44588   0.87298   0.99877   0.00000  Uiso   1.00
C54    C     0.50464   0.85893   0.99874   0.00000  Uiso   1.00
C55    C     0.59969   0.84707   0.97145   0.00000  Uiso   1.00
C56    C     0.33371   0.75682   0.10070   0.00000  Uiso   1.00
C57    C     0.29142   0.69244   0.07198   0.00000  Uiso   1.00
C58    C     0.27955   0.59582   0.10543   0.00000  Uiso   1.00
C59    C     0.24430   0.43170   0.13990   0.00000  Uiso   1.00
C60    C     0.40763   0.80842   0.18308   0.00000  Uiso   1.00
C61    C     0.37573   0.91476   0.19192   0.00000  Uiso   1.00
C62    C     0.37454   0.97712   0.25167   0.00000  Uiso   1.00
C63    C     0.34288   0.07173   0.24930   0.00000  Uiso   1.00
C64    C     0.44701   0.82386   0.12092   0.00000  Uiso   1.00
C65    C     0.50574   0.80978   0.12098   0.00000  Uiso   1.00
C66    C     0.53408   0.82785   0.05884   0.00000  Uiso   1.00
C67    C     0.36309   0.72579   0.16070   0.00000  Uiso   1.00
C68    C     0.35128   0.62925   0.19420   0.00000  Uiso   1.00
C69    C     0.30899   0.56473   0.16553   0.00000  Uiso   1.00
H70    H     0.33066   0.88970   0.02590   0.00000  Uiso   1.00
H71    H     0.29195   0.06431   0.08301   0.00000  Uiso   1.00
H72    H     0.42313   0.89698   0.95234   0.00000  Uiso   1.00
H73    H     0.26869   0.71648   0.02555   0.00000  Uiso   1.00
H74    H     0.26202   0.24423   0.17278   0.00000  Uiso   1.00
H75    H     0.53861   0.89137   0.89725   0.00000  Uiso   1.00
H76    H     0.21295   0.51074   0.05161   0.00000  Uiso   1.00
H77    H     0.43051   0.78427   0.22980   0.00000  Uiso   1.00
H78    H     0.39728   0.95309   0.29810   0.00000  Uiso   1.00
H79    H     0.52846   0.78576   0.16742   0.00000  Uiso   1.00
H80    H     0.37403   0.60526   0.24063   0.00000  Uiso   1.00
H81    H     0.34751   0.15397   0.34735   0.00000  Uiso   1.00
H82    H     0.62411   0.80110   0.07182   0.00000  Uiso   1.00
H83    H     0.29845   0.42048   0.22618   0.00000  Uiso   1.00
O84    O     0.28112   0.31208   0.30131   0.00000  Uiso   1.00
O85    O     0.64400   0.84911   0.93982   0.00000  Uiso   1.00
O86    O     0.21674   0.34975   0.14234   0.00000  Uiso   1.00
N87    N     0.28669   0.19981   0.20449   0.00000  Uiso   1.00
N88    N     0.54529   0.86992   0.94689   0.00000  Uiso   1.00
N89    N     0.24084   0.51405   0.09120   0.00000  Uiso   1.00
N90    N     0.33269   0.15124   0.29843   0.00000  Uiso   1.00
N91    N     0.59129   0.82135   0.04083   0.00000  Uiso   1.00
N92    N     0.28684   0.46548   0.18513   0.00000  Uiso   1.00
C93    C     0.14647   0.63445   0.57262   0.00000  Uiso   1.00
C94    C     0.15366   0.55421   0.63192   0.00000  Uiso   1.00
C95    C     0.18532   0.45968   0.62946   0.00000  Uiso   1.00
C96    C     0.18655   0.39719   0.68919   0.00000  Uiso   1.00
C97    C     0.20216   0.26784   0.77213   0.00000  Uiso   1.00
C98    C     0.08238   0.64511   0.56093   0.00000  Uiso   1.00
C99    C     0.05412   0.62702   0.49877   0.00000  Uiso   1.00
C100   C     0.99536   0.64107   0.49874   0.00000  Uiso   1.00
C101   C     0.90031   0.65293   0.47145   0.00000  Uiso   1.00
C102   C     0.16629   0.74318   0.60070   0.00000  Uiso   1.00
C103   C     0.20858   0.80756   0.57198   0.00000  Uiso   1.00
C104   C     0.22045   0.90418   0.60543   0.00000  Uiso   1.00
C105   C     0.25570   0.06830   0.63990   0.00000  Uiso   1.00
C106   C     0.09237   0.69158   0.68308   0.00000  Uiso   1.00
C107   C     0.12427   0.58524   0.69192   0.00000  Uiso   1.00
C108   C     0.12546   0.52288   0.75167   0.00000  Uiso   1.00
C109   C     0.15712   0.42827   0.74930   0.00000  Uiso   1.00
C110   C     0.05299   0.67614   0.62092   0.00000  Uiso   1.00
C111   C     0.99426   0.69022   0.62098   0.00000  Uiso   1.00
C112   C     0.96592   0.67215   0.55884   0.00000  Uiso   1.00
C113   C     0.13691   0.77421   0.66070   0.00000  Uiso   1.00
C114   C     0.14872   0.87075   0.69420   0.00000  Uiso   1.00
C115   C     0.19101   0.93527   0.66553   0.00000  Uiso   1.00
H116   H     0.16934   0.61030   0.52590   0.00000  Uiso   1.00
H117   H     0.20805   0.43569   0.58301   0.00000  Uiso   1.00
H118   H     0.07687   0.60302   0.45234   0.00000  Uiso   1.00
H119   H     0.23131   0.78352   0.52555   0.00000  Uiso   1.00
H120   H     0.23798   0.25577   0.67278   0.00000  Uiso   1.00
H121   H     0.96139   0.60863   0.39725   0.00000  Uiso   1.00
H122   H     0.28705   0.98926   0.55161   0.00000  Uiso   1.00
H123   H     0.06949   0.71573   0.72980   0.00000  Uiso   1.00
H124   H     0.10272   0.54691   0.79810   0.00000  Uiso   1.00
H125   H     0.97154   0.71424   0.66742   0.00000  Uiso   1.00
H126   H     0.12597   0.89474   0.74063   0.00000  Uiso   1.00
H127   H     0.15249   0.34603   0.84735   0.00000  Uiso   1.00
H128   H     0.87589   0.69890   0.57182   0.00000  Uiso   1.00
H129   H     0.20155   0.07952   0.72618   0.00000  Uiso   1.00
O130   O     0.21888   0.18792   0.80131   0.00000  Uiso   1.00
O131   O     0.85600   0.65089   0.43982   0.00000  Uiso   1.00
O132   O     0.28326   0.15025   0.64234   0.00000  Uiso   1.00
N133   N     0.21331   0.30019   0.70449   0.00000  Uiso   1.00
N134   N     0.95471   0.63008   0.44689   0.00000  Uiso   1.00
N135   N     0.25916   0.98595   0.59120   0.00000  Uiso   1.00
N136   N     0.16731   0.34876   0.79843   0.00000  Uiso   1.00
N137   N     0.90871   0.67865   0.54083   0.00000  Uiso   1.00
N138   N     0.21316   0.03452   0.68513   0.00000  Uiso   1.00
C139   C     0.64647   0.13445   0.57262   0.00000  Uiso   1.00
C140   C     0.65366   0.05421   0.63192   0.00000  Uiso   1.00
C141   C     0.68532   0.95968   0.62946   0.00000  Uiso   1.00
C142   C     0.68655   0.89719   0.68919   0.00000  Uiso   1.00
C143   C     0.70216   0.76784   0.77213   0.00000  Uiso   1.00
C144   C     0.58238   0.14511   0.56093   0.00000  Uiso   1.00
C145   C     0.55412   0.12702   0.49877   0.00000  Uiso   1.00
C146   C     0.49536   0.14107   0.49874   0.00000  Uiso   1.00
C147   C     0.40031   0.15293   0.47145   0.00000  Uiso   1.00
C148   C     0.66629   0.24318   0.60070   0.00000  Uiso   1.00
C149   C     0.70858   0.30756   0.57198   0.00000  Uiso   1.00
C150   C     0.72045   0.40418   0.60543   0.00000  Uiso   1.00
C151   C     0.75570   0.56830   0.63990   0.00000  Uiso   1.00
C152   C     0.59237   0.19158   0.68308   0.00000  Uiso   1.00
C153   C     0.62427   0.08524   0.69192   0.00000  Uiso   1.00
C154   C     0.62546   0.02288   0.75167   0.00000  Uiso   1.00
C155   C     0.65712   0.92827   0.74930   0.00000  Uiso   1.00
C156   C     0.55299   0.17614   0.62092   0.00000  Uiso   1.00
C157   C     0.49426   0.19022   0.62098   0.00000  Uiso   1.00
C158   C     0.46592   0.17215   0.55884   0.00000  Uiso   1.00
C159   C     0.63691   0.27421   0.66070   0.00000  Uiso   1.00
C160   C     0.64872   0.37075   0.69420   0.00000  Uiso   1.00
C161   C     0.69101   0.43527   0.66553   0.00000  Uiso   1.00
H162   H     0.66934   0.11030   0.52590   0.00000  Uiso   1.00
H163   H     0.70805   0.93569   0.58301   0.00000  Uiso   1.00
H164   H     0.57687   0.10302   0.45234   0.00000  Uiso   1.00
H165   H     0.73131   0.28352   0.52555   0.00000  Uiso   1.00
H166   H     0.73798   0.75577   0.67278   0.00000  Uiso   1.00
H167   H     0.46139   0.10863   0.39725   0.00000  Uiso   1.00
H168   H     0.78705   0.48926   0.55161   0.00000  Uiso   1.00
H169   H     0.56949   0.21573   0.72980   0.00000  Uiso   1.00
H170   H     0.60272   0.04691   0.79810   0.00000  Uiso   1.00
H171   H     0.47154   0.21424   0.66742   0.00000  Uiso   1.00
H172   H     0.62597   0.39474   0.74063   0.00000  Uiso   1.00
H173   H     0.65249   0.84603   0.84735   0.00000  Uiso   1.00
H174   H     0.37589   0.19890   0.57182   0.00000  Uiso   1.00
H175   H     0.70155   0.57952   0.72618   0.00000  Uiso   1.00
O176   O     0.71888   0.68792   0.80131   0.00000  Uiso   1.00
O177   O     0.35600   0.15089   0.43982   0.00000  Uiso   1.00
O178   O     0.78326   0.65025   0.64234   0.00000  Uiso   1.00
N179   N     0.71331   0.80019   0.70449   0.00000  Uiso   1.00
N180   N     0.45471   0.13008   0.44689   0.00000  Uiso   1.00
N181   N     0.75916   0.48595   0.59120   0.00000  Uiso   1.00
N182   N     0.66731   0.84876   0.79843   0.00000  Uiso   1.00
N183   N     0.40871   0.17865   0.54083   0.00000  Uiso   1.00
N184   N     0.71316   0.53452   0.68513   0.00000  Uiso   1.00
C185   C     0.14647   0.36555   0.42738   0.00000  Uiso   1.00
C186   C     0.15366   0.44579   0.36808   0.00000  Uiso   1.00
C187   C     0.18532   0.54032   0.37054   0.00000  Uiso   1.00
C188   C     0.18655   0.60281   0.31081   0.00000  Uiso   1.00
C189   C     0.20216   0.73216   0.22787   0.00000  Uiso   1.00
C190   C     0.08238   0.35489   0.43907   0.00000  Uiso   1.00
C191   C     0.05412   0.37298   0.50123   0.00000  Uiso   1.00
C192   C     0.99536   0.35893   0.50126   0.00000  Uiso   1.00
C193   C     0.90031   0.34707   0.52855   0.00000  Uiso   1.00
C194   C     0.16629   0.25682   0.39930   0.00000  Uiso   1.00
C195   C     0.20858   0.19244   0.42802   0.00000  Uiso   1.00
C196   C     0.22045   0.09582   0.39457   0.00000  Uiso   1.00
C197   C     0.25570   0.93170   0.36010   0.00000  Uiso   1.00
C198   C     0.09237   0.30842   0.31692   0.00000  Uiso   1.00
C199   C     0.12427   0.41476   0.30808   0.00000  Uiso   1.00
C200   C     0.12546   0.47712   0.24833   0.00000  Uiso   1.00
C201   C     0.15712   0.57173   0.25070   0.00000  Uiso   1.00
C202   C     0.05299   0.32386   0.37908   0.00000  Uiso   1.00
C203   C     0.99426   0.30978   0.37902   0.00000  Uiso   1.00
C204   C     0.96592   0.32785   0.44116   0.00000  Uiso   1.00
C205   C     0.13691   0.22579   0.33930   0.00000  Uiso   1.00
C206   C     0.14872   0.12925   0.30580   0.00000  Uiso   1.00
C207   C     0.19101   0.06473   0.33447   0.00000  Uiso   1.00
H208   H     0.16934   0.38970   0.47410   0.00000  Uiso   1.00
H209   H     0.20805   0.56431   0.41699   0.00000  Uiso   1.00
H210   H     0.07687   0.39698   0.54766   0.00000  Uiso   1.00
H211   H     0.23131   0.21648   0.47445   0.00000  Uiso   1.00
H212   H     0.23798   0.74423   0.32722   0.00000  Uiso   1.00
H213   H     0.96139   0.39137   0.60275   0.00000  Uiso   1.00
H214   H     0.28705   0.01074   0.44839   0.00000  Uiso   1.00
H215   H     0.06949   0.28427   0.27020   0.00000  Uiso   1.00
H216   H     0.10272   0.45309   0.20190   0.00000  Uiso   1.00
H217   H     0.97154   0.28576   0.33258   0.00000  Uiso   1.00
H218   H     0.12597   0.10526   0.25937   0.00000  Uiso   1.00
H219   H     0.15249   0.65397   0.15265   0.00000  Uiso   1.00
H220   H     0.87589   0.30110   0.42818   0.00000  Uiso   1.00
H221   H     0.20155   0.92048   0.27382   0.00000  Uiso   1.00
O222   O     0.21888   0.81208   0.19869   0.00000  Uiso   1.00
O223   O     0.85600   0.34911   0.56018   0.00000  Uiso   1.00
O224   O     0.28326   0.84975   0.35766   0.00000  Uiso   1.00
N225   N     0.21331   0.69981   0.29551   0.00000  Uiso   1.00
N226   N     0.95471   0.36992   0.55311   0.00000  Uiso   1.00
N227   N     0.25916   0.01405   0.40880   0.00000  Uiso   1.00
N228   N     0.16731   0.65124   0.20157   0.00000  Uiso   1.00
N229   N     0.90871   0.32135   0.45917   0.00000  Uiso   1.00
N230   N     0.21316   0.96548   0.31487   0.00000  Uiso   1.00
C231   C     0.64647   0.86555   0.42738   0.00000  Uiso   1.00
C232   C     0.65366   0.94579   0.36808   0.00000  Uiso   1.00
C233   C     0.68532   0.04032   0.37054   0.00000  Uiso   1.00
C234   C     0.68655   0.10281   0.31081   0.00000  Uiso   1.00
C235   C     0.70216   0.23216   0.22787   0.00000  Uiso   1.00
C236   C     0.58238   0.85489   0.43907   0.00000  Uiso   1.00
C237   C     0.55412   0.87298   0.50123   0.00000  Uiso   1.00
C238   C     0.49536   0.85893   0.50126   0.00000  Uiso   1.00
C239   C     0.40031   0.84707   0.52855   0.00000  Uiso   1.00
C240   C     0.66629   0.75682   0.39930   0.00000  Uiso   1.00
C241   C     0.70858   0.69244   0.42802   0.00000  Uiso   1.00
C242   C     0.72045   0.59582   0.39457   0.00000  Uiso   1.00
C243   C     0.75570   0.43170   0.36010   0.00000  Uiso   1.00
C244   C     0.59237   0.80842   0.31692   0.00000  Uiso   1.00
C245   C     0.62427   0.91476   0.30808   0.00000  Uiso   1.00
C246   C     0.62546   0.97712   0.24833   0.00000  Uiso   1.00
C247   C     0.65712   0.07173   0.25070   0.00000  Uiso   1.00
C248   C     0.55299   0.82386   0.37908   0.00000  Uiso   1.00
C249   C     0.49426   0.80978   0.37902   0.00000  Uiso   1.00
C250   C     0.46592   0.82785   0.44116   0.00000  Uiso   1.00
C251   C     0.63691   0.72579   0.33930   0.00000  Uiso   1.00
C252   C     0.64872   0.62925   0.30580   0.00000  Uiso   1.00
C253   C     0.69101   0.56473   0.33447   0.00000  Uiso   1.00
H254   H     0.66934   0.88970   0.47410   0.00000  Uiso   1.00
H255   H     0.70805   0.06431   0.41699   0.00000  Uiso   1.00
H256   H     0.57687   0.89698   0.54766   0.00000  Uiso   1.00
H257   H     0.73131   0.71648   0.47445   0.00000  Uiso   1.00
H258   H     0.73798   0.24423   0.32722   0.00000  Uiso   1.00
H259   H     0.46139   0.89137   0.60275   0.00000  Uiso   1.00
H260   H     0.78705   0.51074   0.44839   0.00000  Uiso   1.00
H261   H     0.56949   0.78427   0.27020   0.00000  Uiso   1.00
H262   H     0.60272   0.95309   0.20190   0.00000  Uiso   1.00
H263   H     0.47154   0.78576   0.33258   0.00000  Uiso   1.00
H264   H     0.62597   0.60526   0.25937   0.00000  Uiso   1.00
H265   H     0.65249   0.15397   0.15265   0.00000  Uiso   1.00
H266   H     0.37589   0.80110   0.42818   0.00000  Uiso   1.00
H267   H     0.70155   0.42048   0.27382   0.00000  Uiso   1.00
O268   O     0.71888   0.31208   0.19869   0.00000  Uiso   1.00
O269   O     0.35600   0.84911   0.56018   0.00000  Uiso   1.00
O270   O     0.78326   0.34975   0.35766   0.00000  Uiso   1.00
N271   N     0.71331   0.19981   0.29551   0.00000  Uiso   1.00
N272   N     0.45471   0.86992   0.55311   0.00000  Uiso   1.00
N273   N     0.75916   0.51405   0.40880   0.00000  Uiso   1.00
N274   N     0.66731   0.15124   0.20157   0.00000  Uiso   1.00
N275   N     0.40871   0.82135   0.45917   0.00000  Uiso   1.00
N276   N     0.71316   0.46548   0.31487   0.00000  Uiso   1.00
C277   C     0.85353   0.63445   0.92738   0.00000  Uiso   1.00
C278   C     0.84634   0.55421   0.86808   0.00000  Uiso   1.00
C279   C     0.81468   0.45968   0.87054   0.00000  Uiso   1.00
C280   C     0.81345   0.39719   0.81081   0.00000  Uiso   1.00
C281   C     0.79784   0.26784   0.72787   0.00000  Uiso   1.00
C282   C     0.91762   0.64511   0.93907   0.00000  Uiso   1.00
C283   C     0.94588   0.62702   0.00123   0.00000  Uiso   1.00
C284   C     0.00464   0.64107   0.00126   0.00000  Uiso   1.00
C285   C     0.09969   0.65293   0.02855   0.00000  Uiso   1.00
C286   C     0.83371   0.74318   0.89930   0.00000  Uiso   1.00
C287   C     0.79142   0.80756   0.92802   0.00000  Uiso   1.00
C288   C     0.77955   0.90418   0.89457   0.00000  Uiso   1.00
C289   C     0.74430   0.06830   0.86010   0.00000  Uiso   1.00
C290   C     0.90763   0.69158   0.81692   0.00000  Uiso   1.00
C291   C     0.87573   0.58524   0.80808   0.00000  Uiso   1.00
C292   C     0.87454   0.52288   0.74833   0.00000  Uiso   1.00
C293   C     0.84288   0.42827   0.75070   0.00000  Uiso   1.00
C294   C     0.94701   0.67614   0.87908   0.00000  Uiso   1.00
C295   C     0.00574   0.69022   0.87902   0.00000  Uiso   1.00
C296   C     0.03408   0.67215   0.94116   0.00000  Uiso   1.00
C297   C     0.86309   0.77421   0.83930   0.00000  Uiso   1.00
C298   C     0.85128   0.87075   0.80580   0.00000  Uiso   1.00
C299   C     0.80899   0.93527   0.83447   0.00000  Uiso   1.00
H300   H     0.83066   0.61030   0.97410   0.00000  Uiso   1.00
H301   H     0.79195   0.43569   0.91699   0.00000  Uiso   1.00
H302   H     0.92313   0.60302   0.04766   0.00000  Uiso   1.00
H303   H     0.76869   0.78352   0.97445   0.00000  Uiso   1.00
H304   H     0.76202   0.25577   0.82722   0.00000  Uiso   1.00
H305   H     0.03861   0.60863   0.10275   0.00000  Uiso   1.00
H306   H     0.71295   0.98926   0.94839   0.00000  Uiso   1.00
H307   H     0.93051   0.71573   0.77020   0.00000  Uiso   1.00
H308   H     0.89728   0.54691   0.70190   0.00000  Uiso   1.00
H309   H     0.02846   0.71424   0.83258   0.00000  Uiso   1.00
H310   H     0.87403   0.89474   0.75937   0.00000  Uiso   1.00
H311   H     0.84751   0.34603   0.65265   0.00000  Uiso   1.00
H312   H     0.12411   0.69890   0.92818   0.00000  Uiso   1.00
H313   H     0.79845   0.07952   0.77382   0.00000  Uiso   1.00
O314   O     0.78112   0.18792   0.69869   0.00000  Uiso   1.00
O315   O     0.14400   0.65089   0.06018   0.00000  Uiso   1.00
O316   O     0.71674   0.15025   0.85766   0.00000  Uiso   1.00
N317   N     0.78669   0.30019   0.79551   0.00000  Uiso   1.00
N318   N     0.04529   0.63008   0.05311   0.00000  Uiso   1.00
N319   N     0.74084   0.98595   0.90880   0.00000  Uiso   1.00
N320   N     0.83269   0.34876   0.70157   0.00000  Uiso   1.00
N321   N     0.09129   0.67865   0.95917   0.00000  Uiso   1.00
N322   N     0.78684   0.03452   0.81487   0.00000  Uiso   1.00
C323   C     0.35353   0.13445   0.92738   0.00000  Uiso   1.00
C324   C     0.34634   0.05421   0.86808   0.00000  Uiso   1.00
C325   C     0.31468   0.95968   0.87054   0.00000  Uiso   1.00
C326   C     0.31345   0.89719   0.81081   0.00000  Uiso   1.00
C327   C     0.29784   0.76784   0.72787   0.00000  Uiso   1.00
C328   C     0.41762   0.14511   0.93907   0.00000  Uiso   1.00
C329   C     0.44588   0.12702   0.00123   0.00000  Uiso   1.00
C330   C     0.50464   0.14107   0.00126   0.00000  Uiso   1.00
C331   C     0.59969   0.15293   0.02855   0.00000  Uiso   1.00
C332   C     0.33371   0.24318   0.89930   0.00000  Uiso   1.00
C333   C     0.29142   0.30756   0.92802   0.00000  Uiso   1.00
C334   C     0.27955   0.40418   0.89457   0.00000  Uiso   1.00
C335   C     0.24430   0.56830   0.86010   0.00000  Uiso   1.00
C336   C     0.40763   0.19158   0.81692   0.00000  Uiso   1.00
C337   C     0.37573   0.08524   0.80808   0.00000  Uiso   1.00
C338   C     0.37454   0.02288   0.74833   0.00000  Uiso   1.00
C339   C     0.34288   0.92827   0.75070   0.00000  Uiso   1.00
C340   C     0.44701   0.17614   0.87908   0.00000  Uiso   1.00
C341   C     0.50574   0.19022   0.87902   0.00000  Uiso   1.00
C342   C     0.53408   0.17215   0.94116   0.00000  Uiso   1.00
C343   C     0.36309   0.27421   0.83930   0.00000  Uiso   1.00
C344   C     0.35128   0.37075   0.80580   0.00000  Uiso   1.00
C345   C     0.30899   0.43527   0.83447   0.00000  Uiso   1.00
H346   H     0.33066   0.11030   0.97410   0.00000  Uiso   1.00
H347   H     0.29195   0.93569   0.91699   0.00000  Uiso   1.00
H348   H     0.42313   0.10302   0.04766   0.00000  Uiso   1.00
H349   H     0.26869   0.28352   0.97445   0.00000  Uiso   1.00
H350   H     0.26202   0.75577   0.82722   0.00000  Uiso   1.00
H351   H     0.53861   0.10863   0.10275   0.00000  Uiso   1.00
H352   H     0.21295   0.48926   0.94839   0.00000  Uiso   1.00
H353   H     0.43051   0.21573   0.77020   0.00000  Uiso   1.00
H354   H     0.39728   0.04691   0.70190   0.00000  Uiso   1.00
H355   H     0.52846   0.21424   0.83258   0.00000  Uiso   1.00
H356   H     0.37403   0.39474   0.75937   0.00000  Uiso   1.00
H357   H     0.34751   0.84603   0.65265   0.00000  Uiso   1.00
H358   H     0.62411   0.19890   0.92818   0.00000  Uiso   1.00
H359   H     0.29845   0.57952   0.77382   0.00000  Uiso   1.00
O360   O     0.28112   0.68792   0.69869   0.00000  Uiso   1.00
O361   O     0.64400   0.15089   0.06018   0.00000  Uiso   1.00
O362   O     0.21674   0.65025   0.85766   0.00000  Uiso   1.00
N363   N     0.28669   0.80019   0.79551   0.00000  Uiso   1.00
N364   N     0.54529   0.13008   0.05311   0.00000  Uiso   1.00
N365   N     0.24084   0.48595   0.90880   0.00000  Uiso   1.00
N366   N     0.33269   0.84876   0.70157   0.00000  Uiso   1.00
N367   N     0.59129   0.17865   0.95917   0.00000  Uiso   1.00
N368   N     0.28684   0.53452   0.81487   0.00000  Uiso   1.00
