data_job_05535
_audit_creation_date              2018-12-19
_audit_creation_method            'Materials Studio'
_symmetry_space_group_name_H-M    'P1'
_symmetry_Int_Tables_number       1
_symmetry_cell_setting            triclinic
loop_
_symmetry_equiv_pos_as_xyz
  x,y,z
_cell_length_a                    27.3852
_cell_length_b                    21.2032
_cell_length_c                    23.8089
_cell_angle_alpha                 90.0000
_cell_angle_beta                  153.3176
_cell_angle_gamma                 90.0000
loop_
_atom_site_label
_atom_site_type_symbol
_atom_site_fract_x
_atom_site_fract_y
_atom_site_fract_z
_atom_site_U_iso_or_equiv
_atom_site_adp_type
_atom_site_occupancy
C1     C     0.70177   0.05264   0.55122   0.00000  Uiso   1.00
C2     C     0.62730   0.07438   0.52209   0.00000  Uiso   1.00
C3     C     0.53436   0.04345   0.44488   0.00000  Uiso   1.00
C4     C     0.47734   0.07098   0.43022   0.00000  Uiso   1.00
C5     C     0.35638   0.09617   0.37575   0.00000  Uiso   1.00
C6     C     0.70665   0.10717   0.51455   0.00000  Uiso   1.00
C7     C     0.68044   0.10380   0.43100   0.00000  Uiso   1.00
C8     C     0.69023   0.15893   0.41001   0.00000  Uiso   1.00
C9     C     0.69255   0.23501   0.34389   0.00000  Uiso   1.00
C10    C     0.81521   0.04757   0.69327   0.00000  Uiso   1.00
C11    C     0.88030   0.99411   0.76001   0.00000  Uiso   1.00
C12    C     0.98151   0.99908   0.88949   0.00000  Uiso   1.00
C13    C     0.15238   0.98263   0.10087   0.00000  Uiso   1.00
C14    C     0.76576   0.15654   0.66251   0.00000  Uiso   1.00
C15    C     0.66205   0.13082   0.58254   0.00000  Uiso   1.00
C16    C     0.60516   0.15840   0.56800   0.00000  Uiso   1.00
C17    C     0.51216   0.12752   0.49078   0.00000  Uiso   1.00
C18    C     0.74140   0.16360   0.57499   0.00000  Uiso   1.00
C19    C     0.75124   0.21875   0.55412   0.00000  Uiso   1.00
C20    C     0.72505   0.21547   0.47056   0.00000  Uiso   1.00
C21    C     0.84997   0.10401   0.75372   0.00000  Uiso   1.00
C22    C     0.95109   0.10906   0.88313   0.00000  Uiso   1.00
C23    C     0.01633   0.05562   0.95005   0.00000  Uiso   1.00
H24    H     0.67471   0.00870   0.50416   0.00000  Uiso   1.00
H25    H     0.50749   0.99977   0.39811   0.00000  Uiso   1.00
H26    H     0.65356   0.06011   0.38425   0.00000  Uiso   1.00
H27    H     0.85338   0.95044   0.71320   0.00000  Uiso   1.00
H28    H     0.33739   0.01478   0.30715   0.00000  Uiso   1.00
H29    H     0.64543   0.14200   0.27795   0.00000  Uiso   1.00
H30    H     0.06680   0.91074   0.97162   0.00000  Uiso   1.00
H31    H     0.79282   0.20048   0.70957   0.00000  Uiso   1.00
H32    H     0.63207   0.20208   0.61479   0.00000  Uiso   1.00
H33    H     0.77814   0.26242   0.60092   0.00000  Uiso   1.00
H34    H     0.97796   0.15275   0.92987   0.00000  Uiso   1.00
H35    H     0.43851   0.17898   0.48301   0.00000  Uiso   1.00
H36    H     0.74655   0.30620   0.45382   0.00000  Uiso   1.00
H37    H     0.16791   0.07494   0.14748   0.00000  Uiso   1.00
O38    O     0.28006   0.09448   0.32899   0.00000  Uiso   1.00
O39    O     0.68421   0.26139   0.29071   0.00000  Uiso   1.00
O40    O     0.23702   0.95797   0.20077   0.00000  Uiso   1.00
N41    N     0.38326   0.05320   0.36157   0.00000  Uiso   1.00
N42    N     0.67124   0.17215   0.33425   0.00000  Uiso   1.00
N43    N     0.06520   0.95594   0.98277   0.00000  Uiso   1.00
N44    N     0.43767   0.14155   0.45620   0.00000  Uiso   1.00
N45    N     0.72565   0.26050   0.42888   0.00000  Uiso   1.00
N46    N     0.11961   0.04429   0.07740   0.00000  Uiso   1.00
C47    C     0.59647   0.93540   0.24405   0.00000  Uiso   1.00
C48    C     0.51938   0.90869   0.12065   0.00000  Uiso   1.00
C49    C     0.42721   0.93844   0.00521   0.00000  Uiso   1.00
C50    C     0.36743   0.90616   0.90351   0.00000  Uiso   1.00
C51    C     0.24293   0.87378   0.70986   0.00000  Uiso   1.00
C52    C     0.60040   0.88677   0.29524   0.00000  Uiso   1.00
C53    C     0.57638   0.89810   0.32660   0.00000  Uiso   1.00
C54    C     0.58482   0.84737   0.37189   0.00000  Uiso   1.00
C55    C     0.58619   0.78097   0.44937   0.00000  Uiso   1.00
C56    C     0.70917   0.93520   0.33316   0.00000  Uiso   1.00
C57    C     0.77661   0.98724   0.39645   0.00000  Uiso   1.00
C58    C     0.87664   0.97728   0.47369   0.00000  Uiso   1.00
C59    C     0.04688   0.98607   0.61006   0.00000  Uiso   1.00
C60    C     0.65419   0.82517   0.26873   0.00000  Uiso   1.00
C61    C     0.55073   0.84881   0.13406   0.00000  Uiso   1.00
C62    C     0.49108   0.81648   0.03251   0.00000  Uiso   1.00
C63    C     0.39884   0.84618   0.91694   0.00000  Uiso   1.00
C64    C     0.63175   0.82690   0.30864   0.00000  Uiso   1.00
C65    C     0.64024   0.77614   0.35390   0.00000  Uiso   1.00
C66    C     0.61623   0.78738   0.38532   0.00000  Uiso   1.00
C67    C     0.74052   0.87532   0.34657   0.00000  Uiso   1.00
C68    C     0.84047   0.86528   0.42374   0.00000  Uiso   1.00
C69    C     0.90805   0.91729   0.48712   0.00000  Uiso   1.00
H70    H     0.57206   0.98202   0.23362   0.00000  Uiso   1.00
H71    H     0.40297   0.98478   0.99487   0.00000  Uiso   1.00
H72    H     0.55213   0.94444   0.31623   0.00000  Uiso   1.00
H73    H     0.75232   0.03357   0.38605   0.00000  Uiso   1.00
H74    H     0.22932   0.96142   0.73609   0.00000  Uiso   1.00
H75    H     0.54385   0.87638   0.41372   0.00000  Uiso   1.00
H76    H     0.96600   0.06432   0.56096   0.00000  Uiso   1.00
H77    H     0.67860   0.77855   0.27916   0.00000  Uiso   1.00
H78    H     0.51536   0.77014   0.04291   0.00000  Uiso   1.00
H79    H     0.66451   0.72981   0.36427   0.00000  Uiso   1.00
H80    H     0.86470   0.81893   0.43409   0.00000  Uiso   1.00
H81    H     0.32053   0.78722   0.77508   0.00000  Uiso   1.00
H82    H     0.63507   0.70217   0.45271   0.00000  Uiso   1.00
H83    H     0.05722   0.89011   0.59995   0.00000  Uiso   1.00
O84    O     0.16559   0.87245   0.59934   0.00000  Uiso   1.00
O85    O     0.57827   0.76088   0.48839   0.00000  Uiso   1.00
O86    O     0.13212   0.00746   0.68156   0.00000  Uiso   1.00
N87    N     0.27320   0.92158   0.77769   0.00000  Uiso   1.00
N88    N     0.56725   0.84207   0.41121   0.00000  Uiso   1.00
N89    N     0.96194   0.01777   0.54890   0.00000  Uiso   1.00
N90    N     0.32228   0.82784   0.79867   0.00000  Uiso   1.00
N91    N     0.61633   0.74833   0.43219   0.00000  Uiso   1.00
N92    N     0.01102   0.92404   0.56988   0.00000  Uiso   1.00
C93    C     0.29823   0.55264   0.94878   0.00000  Uiso   1.00
C94    C     0.37270   0.57438   0.97791   0.00000  Uiso   1.00
C95    C     0.46564   0.54345   0.05512   0.00000  Uiso   1.00
C96    C     0.52266   0.57098   0.06978   0.00000  Uiso   1.00
C97    C     0.64362   0.59617   0.12425   0.00000  Uiso   1.00
C98    C     0.29335   0.60717   0.98545   0.00000  Uiso   1.00
C99    C     0.31956   0.60380   0.06900   0.00000  Uiso   1.00
C100   C     0.30977   0.65893   0.08999   0.00000  Uiso   1.00
C101   C     0.30745   0.73501   0.15611   0.00000  Uiso   1.00
C102   C     0.18479   0.54757   0.80673   0.00000  Uiso   1.00
C103   C     0.11970   0.49411   0.73999   0.00000  Uiso   1.00
C104   C     0.01849   0.49908   0.61051   0.00000  Uiso   1.00
C105   C     0.84762   0.48263   0.39913   0.00000  Uiso   1.00
C106   C     0.23424   0.65654   0.83749   0.00000  Uiso   1.00
C107   C     0.33795   0.63082   0.91746   0.00000  Uiso   1.00
C108   C     0.39484   0.65840   0.93200   0.00000  Uiso   1.00
C109   C     0.48784   0.62752   0.00922   0.00000  Uiso   1.00
C110   C     0.25860   0.66360   0.92501   0.00000  Uiso   1.00
C111   C     0.24876   0.71875   0.94588   0.00000  Uiso   1.00
C112   C     0.27495   0.71547   0.02944   0.00000  Uiso   1.00
C113   C     0.15003   0.60401   0.74628   0.00000  Uiso   1.00
C114   C     0.04891   0.60906   0.61687   0.00000  Uiso   1.00
C115   C     0.98367   0.55562   0.54995   0.00000  Uiso   1.00
H116   H     0.32529   0.50870   0.99584   0.00000  Uiso   1.00
H117   H     0.49251   0.49977   0.10189   0.00000  Uiso   1.00
H118   H     0.34644   0.56011   0.11575   0.00000  Uiso   1.00
H119   H     0.14662   0.45044   0.78680   0.00000  Uiso   1.00
H120   H     0.66261   0.51478   0.19285   0.00000  Uiso   1.00
H121   H     0.35457   0.64200   0.22205   0.00000  Uiso   1.00
H122   H     0.93320   0.41074   0.52838   0.00000  Uiso   1.00
H123   H     0.20718   0.70048   0.79043   0.00000  Uiso   1.00
H124   H     0.36793   0.70208   0.88521   0.00000  Uiso   1.00
H125   H     0.22186   0.76242   0.89908   0.00000  Uiso   1.00
H126   H     0.02204   0.65275   0.57013   0.00000  Uiso   1.00
H127   H     0.56149   0.67898   0.01699   0.00000  Uiso   1.00
H128   H     0.25345   0.80620   0.04618   0.00000  Uiso   1.00
H129   H     0.83209   0.57494   0.35252   0.00000  Uiso   1.00
O130   O     0.71994   0.59448   0.17101   0.00000  Uiso   1.00
O131   O     0.31579   0.76139   0.20929   0.00000  Uiso   1.00
O132   O     0.76298   0.45797   0.29923   0.00000  Uiso   1.00
N133   N     0.61674   0.55320   0.13843   0.00000  Uiso   1.00
N134   N     0.32876   0.67215   0.16575   0.00000  Uiso   1.00
N135   N     0.93480   0.45594   0.51723   0.00000  Uiso   1.00
N136   N     0.56233   0.64155   0.04380   0.00000  Uiso   1.00
N137   N     0.27435   0.76050   0.07112   0.00000  Uiso   1.00
N138   N     0.88039   0.54429   0.42260   0.00000  Uiso   1.00
C139   C     0.40353   0.43540   0.25595   0.00000  Uiso   1.00
C140   C     0.48062   0.40869   0.37935   0.00000  Uiso   1.00
C141   C     0.57279   0.43844   0.49479   0.00000  Uiso   1.00
C142   C     0.63257   0.40616   0.59649   0.00000  Uiso   1.00
C143   C     0.75707   0.37378   0.79014   0.00000  Uiso   1.00
C144   C     0.39960   0.38677   0.20476   0.00000  Uiso   1.00
C145   C     0.42362   0.39810   0.17340   0.00000  Uiso   1.00
C146   C     0.41518   0.34737   0.12811   0.00000  Uiso   1.00
C147   C     0.41381   0.28097   0.05063   0.00000  Uiso   1.00
C148   C     0.29083   0.43520   0.16684   0.00000  Uiso   1.00
C149   C     0.22339   0.48724   0.10355   0.00000  Uiso   1.00
C150   C     0.12336   0.47728   0.02631   0.00000  Uiso   1.00
C151   C     0.95312   0.48607   0.88994   0.00000  Uiso   1.00
C152   C     0.34581   0.32517   0.23127   0.00000  Uiso   1.00
C153   C     0.44927   0.34881   0.36594   0.00000  Uiso   1.00
C154   C     0.50892   0.31648   0.46749   0.00000  Uiso   1.00
C155   C     0.60116   0.34618   0.58306   0.00000  Uiso   1.00
C156   C     0.36825   0.32690   0.19136   0.00000  Uiso   1.00
C157   C     0.35976   0.27614   0.14610   0.00000  Uiso   1.00
C158   C     0.38377   0.28738   0.11468   0.00000  Uiso   1.00
C159   C     0.25948   0.37532   0.15343   0.00000  Uiso   1.00
C160   C     0.15953   0.36528   0.07626   0.00000  Uiso   1.00
C161   C     0.09195   0.41729   0.01288   0.00000  Uiso   1.00
H162   H     0.42794   0.48202   0.26638   0.00000  Uiso   1.00
H163   H     0.59703   0.48478   0.50513   0.00000  Uiso   1.00
H164   H     0.44787   0.44444   0.18377   0.00000  Uiso   1.00
H165   H     0.24768   0.53357   0.11395   0.00000  Uiso   1.00
H166   H     0.77068   0.46142   0.76391   0.00000  Uiso   1.00
H167   H     0.45615   0.37638   0.08628   0.00000  Uiso   1.00
H168   H     0.03400   0.56432   0.93904   0.00000  Uiso   1.00
H169   H     0.32140   0.27855   0.22084   0.00000  Uiso   1.00
H170   H     0.48464   0.27014   0.45709   0.00000  Uiso   1.00
H171   H     0.33549   0.22981   0.13573   0.00000  Uiso   1.00
H172   H     0.13530   0.31893   0.06591   0.00000  Uiso   1.00
H173   H     0.67947   0.28722   0.72492   0.00000  Uiso   1.00
H174   H     0.36493   0.20217   0.04729   0.00000  Uiso   1.00
H175   H     0.94278   0.39011   0.90005   0.00000  Uiso   1.00
O176   O     0.83441   0.37245   0.90066   0.00000  Uiso   1.00
O177   O     0.42173   0.26088   0.01161   0.00000  Uiso   1.00
O178   O     0.86788   0.50746   0.81844   0.00000  Uiso   1.00
N179   N     0.72680   0.42158   0.72231   0.00000  Uiso   1.00
N180   N     0.43275   0.34207   0.08879   0.00000  Uiso   1.00
N181   N     0.03806   0.51777   0.95110   0.00000  Uiso   1.00
N182   N     0.67772   0.32784   0.70133   0.00000  Uiso   1.00
N183   N     0.38367   0.24833   0.06781   0.00000  Uiso   1.00
N184   N     0.98898   0.42404   0.93012   0.00000  Uiso   1.00
C185   C     0.29823   0.94736   0.44878   0.00000  Uiso   1.00
C186   C     0.37270   0.92562   0.47791   0.00000  Uiso   1.00
C187   C     0.46564   0.95655   0.55512   0.00000  Uiso   1.00
C188   C     0.52266   0.92902   0.56978   0.00000  Uiso   1.00
C189   C     0.64362   0.90383   0.62425   0.00000  Uiso   1.00
C190   C     0.29335   0.89283   0.48545   0.00000  Uiso   1.00
C191   C     0.31956   0.89620   0.56900   0.00000  Uiso   1.00
C192   C     0.30977   0.84107   0.58999   0.00000  Uiso   1.00
C193   C     0.30745   0.76499   0.65611   0.00000  Uiso   1.00
C194   C     0.18479   0.95243   0.30673   0.00000  Uiso   1.00
C195   C     0.11970   0.00589   0.23999   0.00000  Uiso   1.00
C196   C     0.01849   0.00092   0.11051   0.00000  Uiso   1.00
C197   C     0.84762   0.01737   0.89913   0.00000  Uiso   1.00
C198   C     0.23424   0.84346   0.33749   0.00000  Uiso   1.00
C199   C     0.33795   0.86918   0.41746   0.00000  Uiso   1.00
C200   C     0.39484   0.84160   0.43200   0.00000  Uiso   1.00
C201   C     0.48784   0.87248   0.50922   0.00000  Uiso   1.00
C202   C     0.25860   0.83640   0.42501   0.00000  Uiso   1.00
C203   C     0.24876   0.78125   0.44588   0.00000  Uiso   1.00
C204   C     0.27495   0.78453   0.52944   0.00000  Uiso   1.00
C205   C     0.15003   0.89599   0.24628   0.00000  Uiso   1.00
C206   C     0.04891   0.89094   0.11687   0.00000  Uiso   1.00
C207   C     0.98367   0.94438   0.04995   0.00000  Uiso   1.00
H208   H     0.32529   0.99130   0.49584   0.00000  Uiso   1.00
H209   H     0.49251   0.00023   0.60189   0.00000  Uiso   1.00
H210   H     0.34644   0.93989   0.61575   0.00000  Uiso   1.00
H211   H     0.14662   0.04956   0.28680   0.00000  Uiso   1.00
H212   H     0.66261   0.98522   0.69285   0.00000  Uiso   1.00
H213   H     0.35457   0.85800   0.72205   0.00000  Uiso   1.00
H214   H     0.93320   0.08926   0.02838   0.00000  Uiso   1.00
H215   H     0.20718   0.79952   0.29043   0.00000  Uiso   1.00
H216   H     0.36793   0.79792   0.38521   0.00000  Uiso   1.00
H217   H     0.22186   0.73758   0.39908   0.00000  Uiso   1.00
H218   H     0.02204   0.84725   0.07013   0.00000  Uiso   1.00
H219   H     0.56149   0.82102   0.51699   0.00000  Uiso   1.00
H220   H     0.25345   0.69380   0.54618   0.00000  Uiso   1.00
H221   H     0.83209   0.92506   0.85252   0.00000  Uiso   1.00
O222   O     0.71994   0.90552   0.67101   0.00000  Uiso   1.00
O223   O     0.31579   0.73861   0.70929   0.00000  Uiso   1.00
O224   O     0.76298   0.04203   0.79923   0.00000  Uiso   1.00
N225   N     0.61674   0.94680   0.63843   0.00000  Uiso   1.00
N226   N     0.32876   0.82785   0.66575   0.00000  Uiso   1.00
N227   N     0.93480   0.04406   0.01723   0.00000  Uiso   1.00
N228   N     0.56233   0.85845   0.54380   0.00000  Uiso   1.00
N229   N     0.27435   0.73950   0.57112   0.00000  Uiso   1.00
N230   N     0.88039   0.95571   0.92260   0.00000  Uiso   1.00
C231   C     0.40353   0.06460   0.75595   0.00000  Uiso   1.00
C232   C     0.48062   0.09131   0.87935   0.00000  Uiso   1.00
C233   C     0.57279   0.06156   0.99479   0.00000  Uiso   1.00
C234   C     0.63257   0.09384   0.09649   0.00000  Uiso   1.00
C235   C     0.75707   0.12622   0.29014   0.00000  Uiso   1.00
C236   C     0.39960   0.11323   0.70476   0.00000  Uiso   1.00
C237   C     0.42362   0.10190   0.67340   0.00000  Uiso   1.00
C238   C     0.41518   0.15263   0.62811   0.00000  Uiso   1.00
C239   C     0.41381   0.21903   0.55063   0.00000  Uiso   1.00
C240   C     0.29083   0.06480   0.66684   0.00000  Uiso   1.00
C241   C     0.22339   0.01276   0.60355   0.00000  Uiso   1.00
C242   C     0.12336   0.02272   0.52631   0.00000  Uiso   1.00
C243   C     0.95312   0.01393   0.38994   0.00000  Uiso   1.00
C244   C     0.34581   0.17483   0.73127   0.00000  Uiso   1.00
C245   C     0.44927   0.15119   0.86594   0.00000  Uiso   1.00
C246   C     0.50892   0.18352   0.96749   0.00000  Uiso   1.00
C247   C     0.60116   0.15382   0.08306   0.00000  Uiso   1.00
C248   C     0.36825   0.17310   0.69136   0.00000  Uiso   1.00
C249   C     0.35976   0.22386   0.64610   0.00000  Uiso   1.00
C250   C     0.38377   0.21262   0.61468   0.00000  Uiso   1.00
C251   C     0.25948   0.12468   0.65343   0.00000  Uiso   1.00
C252   C     0.15953   0.13472   0.57626   0.00000  Uiso   1.00
C253   C     0.09195   0.08271   0.51288   0.00000  Uiso   1.00
H254   H     0.42794   0.01798   0.76638   0.00000  Uiso   1.00
H255   H     0.59703   0.01522   0.00513   0.00000  Uiso   1.00
H256   H     0.44787   0.05556   0.68377   0.00000  Uiso   1.00
H257   H     0.24768   0.96643   0.61395   0.00000  Uiso   1.00
H258   H     0.77068   0.03858   0.26391   0.00000  Uiso   1.00
H259   H     0.45615   0.12362   0.58628   0.00000  Uiso   1.00
H260   H     0.03400   0.93568   0.43904   0.00000  Uiso   1.00
H261   H     0.32140   0.22145   0.72084   0.00000  Uiso   1.00
H262   H     0.48464   0.22986   0.95709   0.00000  Uiso   1.00
H263   H     0.33549   0.27019   0.63573   0.00000  Uiso   1.00
H264   H     0.13530   0.18107   0.56591   0.00000  Uiso   1.00
H265   H     0.67947   0.21278   0.22492   0.00000  Uiso   1.00
H266   H     0.36493   0.29783   0.54729   0.00000  Uiso   1.00
H267   H     0.94278   0.10989   0.40005   0.00000  Uiso   1.00
O268   O     0.83441   0.12755   0.40066   0.00000  Uiso   1.00
O269   O     0.42173   0.23912   0.51161   0.00000  Uiso   1.00
O270   O     0.86788   0.99254   0.31844   0.00000  Uiso   1.00
N271   N     0.72680   0.07842   0.22231   0.00000  Uiso   1.00
N272   N     0.43275   0.15793   0.58879   0.00000  Uiso   1.00
N273   N     0.03806   0.98223   0.45110   0.00000  Uiso   1.00
N274   N     0.67772   0.17216   0.20133   0.00000  Uiso   1.00
N275   N     0.38367   0.25167   0.56781   0.00000  Uiso   1.00
N276   N     0.98898   0.07596   0.43012   0.00000  Uiso   1.00
C277   C     0.70177   0.44736   0.05122   0.00000  Uiso   1.00
C278   C     0.62730   0.42562   0.02209   0.00000  Uiso   1.00
C279   C     0.53436   0.45655   0.94488   0.00000  Uiso   1.00
C280   C     0.47734   0.42902   0.93022   0.00000  Uiso   1.00
C281   C     0.35638   0.40383   0.87575   0.00000  Uiso   1.00
C282   C     0.70665   0.39283   0.01455   0.00000  Uiso   1.00
C283   C     0.68044   0.39620   0.93100   0.00000  Uiso   1.00
C284   C     0.69023   0.34107   0.91001   0.00000  Uiso   1.00
C285   C     0.69255   0.26499   0.84389   0.00000  Uiso   1.00
C286   C     0.81521   0.45243   0.19327   0.00000  Uiso   1.00
C287   C     0.88030   0.50589   0.26001   0.00000  Uiso   1.00
C288   C     0.98151   0.50092   0.38949   0.00000  Uiso   1.00
C289   C     0.15238   0.51737   0.60087   0.00000  Uiso   1.00
C290   C     0.76576   0.34346   0.16251   0.00000  Uiso   1.00
C291   C     0.66205   0.36918   0.08254   0.00000  Uiso   1.00
C292   C     0.60516   0.34160   0.06800   0.00000  Uiso   1.00
C293   C     0.51216   0.37248   0.99078   0.00000  Uiso   1.00
C294   C     0.74140   0.33640   0.07499   0.00000  Uiso   1.00
C295   C     0.75124   0.28125   0.05412   0.00000  Uiso   1.00
C296   C     0.72505   0.28453   0.97056   0.00000  Uiso   1.00
C297   C     0.84997   0.39599   0.25372   0.00000  Uiso   1.00
C298   C     0.95109   0.39094   0.38313   0.00000  Uiso   1.00
C299   C     0.01633   0.44438   0.45005   0.00000  Uiso   1.00
H300   H     0.67471   0.49130   0.00416   0.00000  Uiso   1.00
H301   H     0.50749   0.50023   0.89811   0.00000  Uiso   1.00
H302   H     0.65356   0.43989   0.88425   0.00000  Uiso   1.00
H303   H     0.85338   0.54956   0.21320   0.00000  Uiso   1.00
H304   H     0.33739   0.48522   0.80715   0.00000  Uiso   1.00
H305   H     0.64543   0.35800   0.77795   0.00000  Uiso   1.00
H306   H     0.06680   0.58926   0.47162   0.00000  Uiso   1.00
H307   H     0.79282   0.29952   0.20957   0.00000  Uiso   1.00
H308   H     0.63207   0.29792   0.11479   0.00000  Uiso   1.00
H309   H     0.77814   0.23758   0.10092   0.00000  Uiso   1.00
H310   H     0.97796   0.34725   0.42987   0.00000  Uiso   1.00
H311   H     0.43851   0.32102   0.98301   0.00000  Uiso   1.00
H312   H     0.74655   0.19380   0.95382   0.00000  Uiso   1.00
H313   H     0.16791   0.42506   0.64748   0.00000  Uiso   1.00
O314   O     0.28006   0.40552   0.82899   0.00000  Uiso   1.00
O315   O     0.68421   0.23861   0.79071   0.00000  Uiso   1.00
O316   O     0.23702   0.54203   0.70077   0.00000  Uiso   1.00
N317   N     0.38326   0.44680   0.86157   0.00000  Uiso   1.00
N318   N     0.67124   0.32785   0.83425   0.00000  Uiso   1.00
N319   N     0.06520   0.54406   0.48277   0.00000  Uiso   1.00
N320   N     0.43767   0.35845   0.95620   0.00000  Uiso   1.00
N321   N     0.72565   0.23950   0.92888   0.00000  Uiso   1.00
N322   N     0.11961   0.45571   0.57740   0.00000  Uiso   1.00
C323   C     0.59647   0.56460   0.74405   0.00000  Uiso   1.00
C324   C     0.51938   0.59131   0.62065   0.00000  Uiso   1.00
C325   C     0.42721   0.56156   0.50521   0.00000  Uiso   1.00
C326   C     0.36743   0.59384   0.40351   0.00000  Uiso   1.00
C327   C     0.24293   0.62622   0.20986   0.00000  Uiso   1.00
C328   C     0.60040   0.61323   0.79524   0.00000  Uiso   1.00
C329   C     0.57638   0.60190   0.82660   0.00000  Uiso   1.00
C330   C     0.58482   0.65263   0.87189   0.00000  Uiso   1.00
C331   C     0.58619   0.71903   0.94937   0.00000  Uiso   1.00
C332   C     0.70917   0.56480   0.83316   0.00000  Uiso   1.00
C333   C     0.77661   0.51276   0.89645   0.00000  Uiso   1.00
C334   C     0.87664   0.52272   0.97369   0.00000  Uiso   1.00
C335   C     0.04688   0.51393   0.11006   0.00000  Uiso   1.00
C336   C     0.65419   0.67483   0.76873   0.00000  Uiso   1.00
C337   C     0.55073   0.65119   0.63406   0.00000  Uiso   1.00
C338   C     0.49108   0.68352   0.53251   0.00000  Uiso   1.00
C339   C     0.39884   0.65382   0.41694   0.00000  Uiso   1.00
C340   C     0.63175   0.67310   0.80864   0.00000  Uiso   1.00
C341   C     0.64024   0.72386   0.85390   0.00000  Uiso   1.00
C342   C     0.61623   0.71262   0.88532   0.00000  Uiso   1.00
C343   C     0.74052   0.62468   0.84657   0.00000  Uiso   1.00
C344   C     0.84047   0.63472   0.92374   0.00000  Uiso   1.00
C345   C     0.90805   0.58271   0.98712   0.00000  Uiso   1.00
H346   H     0.57206   0.51798   0.73362   0.00000  Uiso   1.00
H347   H     0.40297   0.51522   0.49487   0.00000  Uiso   1.00
H348   H     0.55213   0.55556   0.81623   0.00000  Uiso   1.00
H349   H     0.75232   0.46643   0.88605   0.00000  Uiso   1.00
H350   H     0.22932   0.53858   0.23609   0.00000  Uiso   1.00
H351   H     0.54385   0.62362   0.91372   0.00000  Uiso   1.00
H352   H     0.96600   0.43568   0.06096   0.00000  Uiso   1.00
H353   H     0.67860   0.72145   0.77916   0.00000  Uiso   1.00
H354   H     0.51536   0.72986   0.54291   0.00000  Uiso   1.00
H355   H     0.66451   0.77019   0.86427   0.00000  Uiso   1.00
H356   H     0.86470   0.68107   0.93409   0.00000  Uiso   1.00
H357   H     0.32053   0.71278   0.27508   0.00000  Uiso   1.00
H358   H     0.63507   0.79783   0.95271   0.00000  Uiso   1.00
H359   H     0.05722   0.60989   0.09995   0.00000  Uiso   1.00
O360   O     0.16559   0.62755   0.09934   0.00000  Uiso   1.00
O361   O     0.57827   0.73912   0.98839   0.00000  Uiso   1.00
O362   O     0.13212   0.49254   0.18156   0.00000  Uiso   1.00
N363   N     0.27320   0.57842   0.27769   0.00000  Uiso   1.00
N364   N     0.56725   0.65793   0.91121   0.00000  Uiso   1.00
N365   N     0.96194   0.48223   0.04890   0.00000  Uiso   1.00
N366   N     0.32228   0.67216   0.29867   0.00000  Uiso   1.00
N367   N     0.61633   0.75167   0.93219   0.00000  Uiso   1.00
N368   N     0.01102   0.57596   0.06988   0.00000  Uiso   1.00
