data_job_06937
_audit_creation_date              2018-12-19
_audit_creation_method            'Materials Studio'
_symmetry_space_group_name_H-M    'P1'
_symmetry_Int_Tables_number       1
_symmetry_cell_setting            triclinic
loop_
_symmetry_equiv_pos_as_xyz
  x,y,z
_cell_length_a                    23.0075
_cell_length_b                    21.5009
_cell_length_c                    22.0909
_cell_angle_alpha                 107.1050
_cell_angle_beta                  107.6190
_cell_angle_gamma                 107.6320
loop_
_atom_site_label
_atom_site_type_symbol
_atom_site_fract_x
_atom_site_fract_y
_atom_site_fract_z
_atom_site_U_iso_or_equiv
_atom_site_adp_type
_atom_site_occupancy
C1     C     0.92756   0.69493   0.96718   0.00000  Uiso   1.00
C2     C     0.99607   0.74577   0.02924   0.00000  Uiso   1.00
C3     C     0.01090   0.81110   0.08100   0.00000  Uiso   1.00
C4     C     0.07660   0.84967   0.13332   0.00000  Uiso   1.00
C5     C     0.17553   0.93257   0.22959   0.00000  Uiso   1.00
C6     C     0.93997   0.68394   0.90161   0.00000  Uiso   1.00
C7     C     0.90761   0.69729   0.84605   0.00000  Uiso   1.00
C8     C     0.92607   0.68381   0.79093   0.00000  Uiso   1.00
C9     C     0.93785   0.67067   0.68902   0.00000  Uiso   1.00
C10    C     0.90854   0.62240   0.97128   0.00000  Uiso   1.00
C11    C     0.84976   0.58399   0.97430   0.00000  Uiso   1.00
C12    C     0.84176   0.51868   0.97782   0.00000  Uiso   1.00
C13    C     0.80475   0.40999   0.98410   0.00000  Uiso   1.00
C14    C     0.01788   0.64725   0.96805   0.00000  Uiso   1.00
C15    C     0.04513   0.71987   0.02971   0.00000  Uiso   1.00
C16    C     0.11083   0.75835   0.08196   0.00000  Uiso   1.00
C17    C     0.12575   0.82373   0.13380   0.00000  Uiso   1.00
C18    C     0.98902   0.65805   0.90208   0.00000  Uiso   1.00
C19    C     0.00754   0.64454   0.84702   0.00000  Uiso   1.00
C20    C     0.97522   0.65786   0.79140   0.00000  Uiso   1.00
C21    C     0.95760   0.59650   0.97176   0.00000  Uiso   1.00
C22    C     0.94969   0.53124   0.97527   0.00000  Uiso   1.00
C23    C     0.89091   0.49273   0.97829   0.00000  Uiso   1.00
H24    H     0.88937   0.71509   0.96681   0.00000  Uiso   1.00
H25    H     0.97292   0.83113   0.08061   0.00000  Uiso   1.00
H26    H     0.86964   0.71732   0.84570   0.00000  Uiso   1.00
H27    H     0.81180   0.60404   0.97393   0.00000  Uiso   1.00
H28    H     0.08719   0.94837   0.20698   0.00000  Uiso   1.00
H29    H     0.86941   0.70839   0.71164   0.00000  Uiso   1.00
H30    H     0.74745   0.46951   0.98204   0.00000  Uiso   1.00
H31    H     0.05608   0.62708   0.96841   0.00000  Uiso   1.00
H32    H     0.14878   0.73829   0.08231   0.00000  Uiso   1.00
H33    H     0.04550   0.62449   0.84740   0.00000  Uiso   1.00
H34    H     0.98766   0.51121   0.97563   0.00000  Uiso   1.00
H35    H     0.22993   0.87302   0.20836   0.00000  Uiso   1.00
H36    H     0.01214   0.63304   0.71302   0.00000  Uiso   1.00
H37    H     0.89018   0.39416   0.98342   0.00000  Uiso   1.00
O38    O     0.21654   0.98545   0.28256   0.00000  Uiso   1.00
O39    O     0.93080   0.67059   0.63269   0.00000  Uiso   1.00
O40    O     0.77080   0.35720   0.98744   0.00000  Uiso   1.00
N41    N     0.10806   0.91537   0.19168   0.00000  Uiso   1.00
N42    N     0.90445   0.69101   0.72858   0.00000  Uiso   1.00
N43    N     0.79042   0.46767   0.98136   0.00000  Uiso   1.00
N44    N     0.18487   0.87482   0.19243   0.00000  Uiso   1.00
N45    N     0.98126   0.65046   0.72932   0.00000  Uiso   1.00
N46    N     0.86722   0.42713   0.98210   0.00000  Uiso   1.00
C47    C     0.95910   0.94325   0.81155   0.00000  Uiso   1.00
C48    C     0.02335   0.01358   0.84927   0.00000  Uiso   1.00
C49    C     0.08054   0.03068   0.90752   0.00000  Uiso   1.00
C50    C     0.13404   0.09778   0.93431   0.00000  Uiso   1.00
C51    C     0.23435   0.19967   0.99754   0.00000  Uiso   1.00
C52    C     0.90162   0.96446   0.81185   0.00000  Uiso   1.00
C53    C     0.85646   0.94024   0.83863   0.00000  Uiso   1.00
C54    C     0.80748   0.96598   0.83391   0.00000  Uiso   1.00
C55    C     0.71878   0.99157   0.83899   0.00000  Uiso   1.00
C56    C     0.94773   0.91253   0.73515   0.00000  Uiso   1.00
C57    C     0.94131   0.84465   0.69743   0.00000  Uiso   1.00
C58    C     0.93113   0.82666   0.62813   0.00000  Uiso   1.00
C59    C     0.91401   0.77162   0.51412   0.00000  Uiso   1.00
C60    C     0.95241   0.03201   0.75555   0.00000  Uiso   1.00
C61    C     0.01972   0.06179   0.81886   0.00000  Uiso   1.00
C62    C     0.07314   0.12889   0.84557   0.00000  Uiso   1.00
C63    C     0.13040   0.14608   0.90384   0.00000  Uiso   1.00
C64    C     0.89799   0.01267   0.78144   0.00000  Uiso   1.00
C65    C     0.84906   0.03845   0.77667   0.00000  Uiso   1.00
C66    C     0.80384   0.01428   0.80344   0.00000  Uiso   1.00
C67    C     0.94410   0.96074   0.70473   0.00000  Uiso   1.00
C68    C     0.93392   0.94286   0.63548   0.00000  Uiso   1.00
C69    C     0.92749   0.87496   0.59766   0.00000  Uiso   1.00
H70    H     0.96192   0.90571   0.83523   0.00000  Uiso   1.00
H71    H     0.08333   0.99336   0.93105   0.00000  Uiso   1.00
H72    H     0.85928   0.90293   0.86215   0.00000  Uiso   1.00
H73    H     0.94412   0.80735   0.72098   0.00000  Uiso   1.00
H74    H     0.21632   0.11180   0.02388   0.00000  Uiso   1.00
H75    H     0.74389   0.92111   0.87860   0.00000  Uiso   1.00
H76    H     0.92279   0.71956   0.58091   0.00000  Uiso   1.00
H77    H     0.94958   0.06955   0.73187   0.00000  Uiso   1.00
H78    H     0.07032   0.16618   0.82202   0.00000  Uiso   1.00
H79    H     0.84626   0.07575   0.75313   0.00000  Uiso   1.00
H80    H     0.93111   0.98018   0.61196   0.00000  Uiso   1.00
H81    H     0.20576   0.25208   0.93539   0.00000  Uiso   1.00
H82    H     0.73332   0.06138   0.79011   0.00000  Uiso   1.00
H83    H     0.91223   0.85984   0.49242   0.00000  Uiso   1.00
O84    O     0.29068   0.24256   0.04082   0.00000  Uiso   1.00
O85    O     0.67086   0.99236   0.85020   0.00000  Uiso   1.00
O86    O     0.90558   0.72795   0.45964   0.00000  Uiso   1.00
N87    N     0.19727   0.13155   0.99068   0.00000  Uiso   1.00
N88    N     0.75558   0.95327   0.85485   0.00000  Uiso   1.00
N89    N     0.92283   0.76483   0.57654   0.00000  Uiso   1.00
N90    N     0.19159   0.20703   0.94306   0.00000  Uiso   1.00
N91    N     0.74990   0.02875   0.80724   0.00000  Uiso   1.00
N92    N     0.91714   0.84031   0.52892   0.00000  Uiso   1.00
C93    C     0.73342   0.92790   0.03715   0.00000  Uiso   1.00
C94    C     0.77567   0.99245   0.10855   0.00000  Uiso   1.00
C95    C     0.83369   0.05172   0.12586   0.00000  Uiso   1.00
C96    C     0.86504   0.10511   0.19398   0.00000  Uiso   1.00
C97    C     0.93458   0.20619   0.29740   0.00000  Uiso   1.00
C98    C     0.73022   0.86160   0.05062   0.00000  Uiso   1.00
C99    C     0.75003   0.81086   0.01923   0.00000  Uiso   1.00
C100   C     0.74312   0.75411   0.03859   0.00000  Uiso   1.00
C101   C     0.74206   0.65202   0.05204   0.00000  Uiso   1.00
C102   C     0.66183   0.92241   0.01407   0.00000  Uiso   1.00
C103   C     0.62412   0.92277   0.95195   0.00000  Uiso   1.00
C104   C     0.55962   0.91718   0.94052   0.00000  Uiso   1.00
C105   C     0.45237   0.90950   0.89723   0.00000  Uiso   1.00
C106   C     0.68593   0.91732   0.12732   0.00000  Uiso   1.00
C107   C     0.74987   0.98670   0.15752   0.00000  Uiso   1.00
C108   C     0.78114   0.04002   0.22563   0.00000  Uiso   1.00
C109   C     0.83920   0.09936   0.24305   0.00000  Uiso   1.00
C110   C     0.70443   0.85586   0.09960   0.00000  Uiso   1.00
C111   C     0.69748   0.79916   0.11900   0.00000  Uiso   1.00
C112   C     0.71728   0.74835   0.08766   0.00000  Uiso   1.00
C113   C     0.63603   0.91666   0.06305   0.00000  Uiso   1.00
C114   C     0.57157   0.91107   0.05172   0.00000  Uiso   1.00
C115   C     0.53377   0.91143   0.98959   0.00000  Uiso   1.00
H116   H     0.75350   0.93237   0.99902   0.00000  Uiso   1.00
H117   H     0.85364   0.05614   0.08795   0.00000  Uiso   1.00
H118   H     0.76998   0.81532   0.98133   0.00000  Uiso   1.00
H119   H     0.64410   0.92721   0.91406   0.00000  Uiso   1.00
H120   H     0.95330   0.19082   0.20815   0.00000  Uiso   1.00
H121   H     0.77688   0.68302   0.98332   0.00000  Uiso   1.00
H122   H     0.51142   0.91896   0.84146   0.00000  Uiso   1.00
H123   H     0.66584   0.91285   0.16546   0.00000  Uiso   1.00
H124   H     0.76117   0.03556   0.26352   0.00000  Uiso   1.00
H125   H     0.67751   0.79473   0.15690   0.00000  Uiso   1.00
H126   H     0.55163   0.90662   0.08963   0.00000  Uiso   1.00
H127   H     0.87825   0.17411   0.35066   0.00000  Uiso   1.00
H128   H     0.70183   0.66630   0.12582   0.00000  Uiso   1.00
H129   H     0.43637   0.90225   0.98397   0.00000  Uiso   1.00
O130   O     0.98007   0.26352   0.34092   0.00000  Uiso   1.00
O131   O     0.74861   0.59730   0.04594   0.00000  Uiso   1.00
O132   O     0.40034   0.90686   0.85983   0.00000  Uiso   1.00
N133   N     0.92254   0.17006   0.22823   0.00000  Uiso   1.00
N134   N     0.75762   0.69529   0.01803   0.00000  Uiso   1.00
N135   N     0.50943   0.91587   0.88540   0.00000  Uiso   1.00
N136   N     0.88216   0.16106   0.30491   0.00000  Uiso   1.00
N137   N     0.71723   0.68630   0.09471   0.00000  Uiso   1.00
N138   N     0.46904   0.90687   0.96208   0.00000  Uiso   1.00
C139   C     0.48461   0.42880   0.30526   0.00000  Uiso   1.00
C140   C     0.55252   0.49479   0.34193   0.00000  Uiso   1.00
C141   C     0.57152   0.55729   0.39977   0.00000  Uiso   1.00
C142   C     0.63584   0.61153   0.42558   0.00000  Uiso   1.00
C143   C     0.73466   0.71521   0.48725   0.00000  Uiso   1.00
C144   C     0.50062   0.36517   0.30621   0.00000  Uiso   1.00
C145   C     0.47597   0.31869   0.33401   0.00000  Uiso   1.00
C146   C     0.49660   0.26380   0.32974   0.00000  Uiso   1.00
C147   C     0.51481   0.16621   0.33590   0.00000  Uiso   1.00
C148   C     0.45581   0.41627   0.22857   0.00000  Uiso   1.00
C149   C     0.39348   0.41273   0.19109   0.00000  Uiso   1.00
C150   C     0.37638   0.40084   0.12146   0.00000  Uiso   1.00
C151   C     0.32501   0.38259   0.00709   0.00000  Uiso   1.00
C152   C     0.56506   0.41396   0.24824   0.00000  Uiso   1.00
C153   C     0.59622   0.48673   0.31095   0.00000  Uiso   1.00
C154   C     0.66053   0.54088   0.33668   0.00000  Uiso   1.00
C155   C     0.67962   0.60346   0.39456   0.00000  Uiso   1.00
C156   C     0.54432   0.35711   0.27523   0.00000  Uiso   1.00
C157   C     0.56499   0.30228   0.27092   0.00000  Uiso   1.00
C158   C     0.54038   0.25573   0.29871   0.00000  Uiso   1.00
C159   C     0.49951   0.40821   0.19760   0.00000  Uiso   1.00
C160   C     0.48250   0.39632   0.12801   0.00000  Uiso   1.00
C161   C     0.42015   0.39277   0.09043   0.00000  Uiso   1.00
H162   H     0.45059   0.43506   0.32937   0.00000  Uiso   1.00
H163   H     0.53769   0.56351   0.42373   0.00000  Uiso   1.00
H164   H     0.44215   0.32493   0.35797   0.00000  Uiso   1.00
H165   H     0.35968   0.41896   0.21508   0.00000  Uiso   1.00
H166   H     0.65354   0.70234   0.51470   0.00000  Uiso   1.00
H167   H     0.45208   0.19928   0.37602   0.00000  Uiso   1.00
H168   H     0.27816   0.39756   0.07471   0.00000  Uiso   1.00
H169   H     0.59908   0.40769   0.22412   0.00000  Uiso   1.00
H170   H     0.69434   0.53463   0.31270   0.00000  Uiso   1.00
H171   H     0.59880   0.29605   0.24695   0.00000  Uiso   1.00
H172   H     0.51633   0.39009   0.10406   0.00000  Uiso   1.00
H173   H     0.78068   0.67891   0.42459   0.00000  Uiso   1.00
H174   H     0.57922   0.17584   0.28590   0.00000  Uiso   1.00
H175   H     0.40530   0.37413   0.98460   0.00000  Uiso   1.00
O176   O     0.77710   0.77462   0.52983   0.00000  Uiso   1.00
O177   O     0.51278   0.11461   0.34787   0.00000  Uiso   1.00
O178   O     0.28461   0.37476   0.95256   0.00000  Uiso   1.00
N179   N     0.67038   0.67941   0.48132   0.00000  Uiso   1.00
N180   N     0.48204   0.20909   0.35168   0.00000  Uiso   1.00
N181   N     0.31943   0.39444   0.06997   0.00000  Uiso   1.00
N182   N     0.73880   0.66680   0.43284   0.00000  Uiso   1.00
N183   N     0.55046   0.19648   0.30319   0.00000  Uiso   1.00
N184   N     0.38785   0.38183   0.02148   0.00000  Uiso   1.00
C185   C     0.38210   0.16799   0.46740   0.00000  Uiso   1.00
C186   C     0.44711   0.21604   0.53458   0.00000  Uiso   1.00
C187   C     0.49912   0.27749   0.54505   0.00000  Uiso   1.00
C188   C     0.55435   0.31401   0.61024   0.00000  Uiso   1.00
C189   C     0.65482   0.39232   0.70655   0.00000  Uiso   1.00
C190   C     0.32443   0.16523   0.48854   0.00000  Uiso   1.00
C191   C     0.27328   0.18394   0.46028   0.00000  Uiso   1.00
C192   C     0.22523   0.17768   0.48671   0.00000  Uiso   1.00
C193   C     0.13521   0.17704   0.51148   0.00000  Uiso   1.00
C194   C     0.37858   0.09225   0.44566   0.00000  Uiso   1.00
C195   C     0.37294   0.04960   0.38135   0.00000  Uiso   1.00
C196   C     0.37046   0.98189   0.37168   0.00000  Uiso   1.00
C197   C     0.36452   0.86795   0.32988   0.00000  Uiso   1.00
C198   C     0.38769   0.12357   0.56455   0.00000  Uiso   1.00
C199   C     0.45015   0.19191   0.58735   0.00000  Uiso   1.00
C200   C     0.50531   0.22835   0.65254   0.00000  Uiso   1.00
C201   C     0.55740   0.28984   0.66311   0.00000  Uiso   1.00
C202   C     0.32747   0.14110   0.54130   0.00000  Uiso   1.00
C203   C     0.27948   0.13480   0.56777   0.00000  Uiso   1.00
C204   C     0.22828   0.15351   0.53957   0.00000  Uiso   1.00
C205   C     0.38162   0.06813   0.49843   0.00000  Uiso   1.00
C206   C     0.37914   0.00046   0.48885   0.00000  Uiso   1.00
C207   C     0.37351   0.95772   0.42454   0.00000  Uiso   1.00
H208   H     0.37972   0.18677   0.42632   0.00000  Uiso   1.00
H209   H     0.49675   0.29615   0.50421   0.00000  Uiso   1.00
H210   H     0.27094   0.20261   0.41944   0.00000  Uiso   1.00
H211   H     0.37059   0.06829   0.34053   0.00000  Uiso   1.00
H212   H     0.62782   0.40680   0.61384   0.00000  Uiso   1.00
H213   H     0.15168   0.20953   0.43510   0.00000  Uiso   1.00
H214   H     0.36181   0.92630   0.26869   0.00000  Uiso   1.00
H215   H     0.39006   0.10478   0.60564   0.00000  Uiso   1.00
H216   H     0.50765   0.20967   0.69337   0.00000  Uiso   1.00
H217   H     0.28184   0.11612   0.60860   0.00000  Uiso   1.00
H218   H     0.38149   0.98181   0.52969   0.00000  Uiso   1.00
H219   H     0.63667   0.33660   0.76737   0.00000  Uiso   1.00
H220   H     0.16053   0.13933   0.58862   0.00000  Uiso   1.00
H221   H     0.37066   0.85610   0.42222   0.00000  Uiso   1.00
O222   O     0.70940   0.44219   0.74509   0.00000  Uiso   1.00
O223   O     0.08472   0.18337   0.51057   0.00000  Uiso   1.00
O224   O     0.36041   0.81178   0.29226   0.00000  Uiso   1.00
N225   N     0.61377   0.37587   0.63793   0.00000  Uiso   1.00
N226   N     0.16862   0.19145   0.47082   0.00000  Uiso   1.00
N227   N     0.36505   0.92665   0.31524   0.00000  Uiso   1.00
N228   N     0.61853   0.33810   0.72054   0.00000  Uiso   1.00
N229   N     0.17338   0.15368   0.55343   0.00000  Uiso   1.00
N230   N     0.36981   0.88887   0.39785   0.00000  Uiso   1.00
C231   C     0.25690   0.44327   0.52181   0.00000  Uiso   1.00
C232   C     0.29732   0.51503   0.58678   0.00000  Uiso   1.00
C233   C     0.35462   0.53181   0.64474   0.00000  Uiso   1.00
C234   C     0.38429   0.60040   0.69880   0.00000  Uiso   1.00
C235   C     0.45113   0.70425   0.80024   0.00000  Uiso   1.00
C236   C     0.25513   0.46108   0.45955   0.00000  Uiso   1.00
C237   C     0.27694   0.43247   0.41054   0.00000  Uiso   1.00
C238   C     0.27108   0.45563   0.35749   0.00000  Uiso   1.00
C239   C     0.27237   0.47567   0.26138   0.00000  Uiso   1.00
C240   C     0.18454   0.41673   0.51426   0.00000  Uiso   1.00
C241   C     0.14699   0.35084   0.51123   0.00000  Uiso   1.00
C242   C     0.08170   0.33666   0.50423   0.00000  Uiso   1.00
C243   C     0.97340   0.28784   0.49307   0.00000  Uiso   1.00
C244   C     0.20771   0.53525   0.51474   0.00000  Uiso   1.00
C245   C     0.27060   0.56500   0.58293   0.00000  Uiso   1.00
C246   C     0.30019   0.63358   0.63692   0.00000  Uiso   1.00
C247   C     0.35752   0.65045   0.69495   0.00000  Uiso   1.00
C248   C     0.22841   0.51104   0.45570   0.00000  Uiso   1.00
C249   C     0.22251   0.53424   0.40271   0.00000  Uiso   1.00
C250   C     0.24431   0.50569   0.35364   0.00000  Uiso   1.00
C251   C     0.15782   0.46669   0.51042   0.00000  Uiso   1.00
C252   C     0.09257   0.45261   0.50341   0.00000  Uiso   1.00
C253   C     0.05493   0.38671   0.50038   0.00000  Uiso   1.00
H254   H     0.27770   0.40437   0.52480   0.00000  Uiso   1.00
H255   H     0.37528   0.49313   0.64769   0.00000  Uiso   1.00
H256   H     0.29761   0.39380   0.41353   0.00000  Uiso   1.00
H257   H     0.16769   0.31219   0.51421   0.00000  Uiso   1.00
H258   H     0.47170   0.61358   0.78224   0.00000  Uiso   1.00
H259   H     0.30789   0.40413   0.28847   0.00000  Uiso   1.00
H260   H     0.03393   0.23202   0.50078   0.00000  Uiso   1.00
H261   H     0.18690   0.57415   0.51174   0.00000  Uiso   1.00
H262   H     0.27950   0.67223   0.63393   0.00000  Uiso   1.00
H263   H     0.20183   0.57290   0.39975   0.00000  Uiso   1.00
H264   H     0.07191   0.49129   0.50044   0.00000  Uiso   1.00
H265   H     0.39396   0.75895   0.77106   0.00000  Uiso   1.00
H266   H     0.23016   0.54949   0.27729   0.00000  Uiso   1.00
H267   H     0.95619   0.37738   0.48960   0.00000  Uiso   1.00
O268   O     0.49539   0.74773   0.85725   0.00000  Uiso   1.00
O269   O     0.28048   0.47292   0.20944   0.00000  Uiso   1.00
O270   O     0.92105   0.24712   0.48798   0.00000  Uiso   1.00
N271   N     0.44069   0.63433   0.76285   0.00000  Uiso   1.00
N272   N     0.28755   0.43851   0.30121   0.00000  Uiso   1.00
N273   N     0.03141   0.27759   0.49968   0.00000  Uiso   1.00
N274   N     0.39886   0.71255   0.75683   0.00000  Uiso   1.00
N275   N     0.24572   0.51673   0.29519   0.00000  Uiso   1.00
N276   N     0.98958   0.35581   0.49366   0.00000  Uiso   1.00
C277   C     0.09153   0.37983   0.10345   0.00000  Uiso   1.00
C278   C     0.01811   0.33894   0.04880   0.00000  Uiso   1.00
C279   C     0.99569   0.29488   0.97856   0.00000  Uiso   1.00
C280   C     0.92650   0.26226   0.93710   0.00000  Uiso   1.00
C281   C     0.81935   0.19706   0.84801   0.00000  Uiso   1.00
C282   C     0.09483   0.35567   0.16227   0.00000  Uiso   1.00
C283   C     0.13693   0.32568   0.18745   0.00000  Uiso   1.00
C284   C     0.13233   0.30715   0.24152   0.00000  Uiso   1.00
C285   C     0.14433   0.26796   0.32863   0.00000  Uiso   1.00
C286   C     0.10478   0.45887   0.13443   0.00000  Uiso   1.00
C287   C     0.15524   0.51567   0.13621   0.00000  Uiso   1.00
C288   C     0.15903   0.58403   0.16686   0.00000  Uiso   1.00
C289   C     0.18647   0.70508   0.21074   0.00000  Uiso   1.00
C290   C     0.00853   0.40026   0.15473   0.00000  Uiso   1.00
C291   C     0.97303   0.35004   0.07666   0.00000  Uiso   1.00
C292   C     0.90386   0.31748   0.03530   0.00000  Uiso   1.00
C293   C     0.88134   0.27338   0.96501   0.00000  Uiso   1.00
C294   C     0.04975   0.36676   0.19013   0.00000  Uiso   1.00
C295   C     0.04510   0.34828   0.24418   0.00000  Uiso   1.00
C296   C     0.08717   0.31826   0.26943   0.00000  Uiso   1.00
C297   C     0.05969   0.46997   0.16228   0.00000  Uiso   1.00
C298   C     0.06341   0.53826   0.19294   0.00000  Uiso   1.00
C299   C     0.11387   0.59515   0.19476   0.00000  Uiso   1.00
H300   H     0.12663   0.37119   0.08177   0.00000  Uiso   1.00
H301   H     0.03059   0.28630   0.95702   0.00000  Uiso   1.00
H302   H     0.17181   0.31711   0.16588   0.00000  Uiso   1.00
H303   H     0.19012   0.50706   0.11465   0.00000  Uiso   1.00
H304   H     0.90423   0.19706   0.83101   0.00000  Uiso   1.00
H305   H     0.20202   0.26203   0.27142   0.00000  Uiso   1.00
H306   H     0.24063   0.66259   0.16338   0.00000  Uiso   1.00
H307   H     0.97344   0.40889   0.17642   0.00000  Uiso   1.00
H308   H     0.86899   0.32607   0.05687   0.00000  Uiso   1.00
H309   H     0.01021   0.35687   0.26573   0.00000  Uiso   1.00
H310   H     0.02852   0.54683   0.21449   0.00000  Uiso   1.00
H311   H     0.77307   0.22934   0.91205   0.00000  Uiso   1.00
H312   H     0.07086   0.29431   0.35246   0.00000  Uiso   1.00
H313   H     0.10947   0.69486   0.24442   0.00000  Uiso   1.00
O314   O     0.77270   0.15802   0.79118   0.00000  Uiso   1.00
O315   O     0.16340   0.24327   0.36898   0.00000  Uiso   1.00
O316   O     0.21405   0.76879   0.22724   0.00000  Uiso   1.00
N317   N     0.88770   0.21603   0.86649   0.00000  Uiso   1.00
N318   N     0.16610   0.27677   0.27823   0.00000  Uiso   1.00
N319   N     0.20221   0.65126   0.17725   0.00000  Uiso   1.00
N320   N     0.81712   0.23340   0.91009   0.00000  Uiso   1.00
N321   N     0.09552   0.29414   0.32184   0.00000  Uiso   1.00
N322   N     0.13164   0.66862   0.22085   0.00000  Uiso   1.00
C323   C     0.91634   0.00268   0.37682   0.00000  Uiso   1.00
C324   C     0.88653   0.92210   0.35778   0.00000  Uiso   1.00
C325   C     0.81966   0.87331   0.31418   0.00000  Uiso   1.00
C326   C     0.80240   0.80192   0.30331   0.00000  Uiso   1.00
C327   C     0.74883   0.68012   0.26890   0.00000  Uiso   1.00
C328   C     0.97472   0.01794   0.35586   0.00000  Uiso   1.00
C329   C     0.98201   0.04973   0.31066   0.00000  Uiso   1.00
C330   C     0.03901   0.05902   0.29819   0.00000  Uiso   1.00
C331   C     0.12239   0.08605   0.26085   0.00000  Uiso   1.00
C332   C     0.94825   0.04056   0.45671   0.00000  Uiso   1.00
C333   C     0.93329   0.09140   0.49632   0.00000  Uiso   1.00
C334   C     0.96800   0.11975   0.56876   0.00000  Uiso   1.00
C335   C     0.01027   0.18190   0.68801   0.00000  Uiso   1.00
C336   C     0.00460   0.96265   0.43505   0.00000  Uiso   1.00
C337   C     0.93447   0.90037   0.38941   0.00000  Uiso   1.00
C338   C     0.91731   0.82903   0.37860   0.00000  Uiso   1.00
C339   C     0.85043   0.78015   0.33500   0.00000  Uiso   1.00
C340   C     0.02267   0.99620   0.38749   0.00000  Uiso   1.00
C341   C     0.07967   0.00545   0.37508   0.00000  Uiso   1.00
C342   C     0.08704   0.03725   0.32987   0.00000  Uiso   1.00
C343   C     0.99619   0.01882   0.48835   0.00000  Uiso   1.00
C344   C     0.03094   0.04711   0.56074   0.00000  Uiso   1.00
C345   C     0.01603   0.09797   0.60044   0.00000  Uiso   1.00
H346   H     0.87902   0.01960   0.35219   0.00000  Uiso   1.00
H347   H     0.78257   0.89016   0.28971   0.00000  Uiso   1.00
H348   H     0.94491   0.06656   0.28620   0.00000  Uiso   1.00
H349   H     0.89619   0.10821   0.47182   0.00000  Uiso   1.00
H350   H     0.69680   0.73705   0.23436   0.00000  Uiso   1.00
H351   H     0.03910   0.10902   0.22697   0.00000  Uiso   1.00
H352   H     0.93636   0.19685   0.61840   0.00000  Uiso   1.00
H353   H     0.04193   0.94573   0.45967   0.00000  Uiso   1.00
H354   H     0.95442   0.81222   0.40309   0.00000  Uiso   1.00
H355   H     0.11676   0.98862   0.39957   0.00000  Uiso   1.00
H356   H     0.06803   0.03027   0.58520   0.00000  Uiso   1.00
H357   H     0.83628   0.67380   0.32638   0.00000  Uiso   1.00
H358   H     0.17858   0.04577   0.31899   0.00000  Uiso   1.00
H359   H     0.07584   0.13359   0.71042   0.00000  Uiso   1.00
O360   O     0.70604   0.61893   0.24118   0.00000  Uiso   1.00
O361   O     0.15513   0.10695   0.23151   0.00000  Uiso   1.00
O362   O     0.02034   0.22218   0.74505   0.00000  Uiso   1.00
N363   N     0.74163   0.74049   0.26379   0.00000  Uiso   1.00
N364   N     0.06166   0.08825   0.25688   0.00000  Uiso   1.00
N365   N     0.96562   0.17037   0.62283   0.00000  Uiso   1.00
N366   N     0.81668   0.70645   0.31331   0.00000  Uiso   1.00
N367   N     0.13671   0.05421   0.30639   0.00000  Uiso   1.00
N368   N     0.04067   0.13634   0.67234   0.00000  Uiso   1.00
C369   C     0.33951   0.96678   0.13652   0.00000  Uiso   1.00
C370   C     0.30789   0.92345   0.05720   0.00000  Uiso   1.00
C371   C     0.25512   0.85479   0.01941   0.00000  Uiso   1.00
C372   C     0.23341   0.82436   0.94720   0.00000  Uiso   1.00
C373   C     0.17973   0.75147   0.82907   0.00000  Uiso   1.00
C374   C     0.33379   0.03781   0.14847   0.00000  Uiso   1.00
C375   C     0.30280   0.06531   0.18743   0.00000  Uiso   1.00
C376   C     0.30289   0.13116   0.19206   0.00000  Uiso   1.00
C377   C     0.28945   0.23585   0.21566   0.00000  Uiso   1.00
C378   C     0.41472   0.98571   0.16208   0.00000  Uiso   1.00
C379   C     0.45178   0.96942   0.21250   0.00000  Uiso   1.00
C380   C     0.52002   0.99142   0.22861   0.00000  Uiso   1.00
C381   C     0.63223   0.01521   0.27335   0.00000  Uiso   1.00
C382   C     0.39478   0.03483   0.07548   0.00000  Uiso   1.00
C383   C     0.33791   0.96041   0.02404   0.00000  Uiso   1.00
C384   C     0.31627   0.93008   0.95187   0.00000  Uiso   1.00
C385   C     0.26348   0.86138   0.91399   0.00000  Uiso   1.00
C386   C     0.36380   0.07478   0.11531   0.00000  Uiso   1.00
C387   C     0.36395   0.14060   0.11989   0.00000  Uiso   1.00
C388   C     0.33296   0.16819   0.15884   0.00000  Uiso   1.00
C389   C     0.44474   0.02267   0.12892   0.00000  Uiso   1.00
C390   C     0.51293   0.04471   0.14496   0.00000  Uiso   1.00
C391   C     0.55009   0.02845   0.19539   0.00000  Uiso   1.00
H392   H     0.31614   0.93801   0.16234   0.00000  Uiso   1.00
H393   H     0.23190   0.82620   0.04509   0.00000  Uiso   1.00
H394   H     0.27958   0.03670   0.21308   0.00000  Uiso   1.00
H395   H     0.42853   0.94082   0.23815   0.00000  Uiso   1.00
H396   H     0.15173   0.71856   0.90047   0.00000  Uiso   1.00
H397   H     0.25228   0.16241   0.25472   0.00000  Uiso   1.00
H398   H     0.56639   0.96023   0.30757   0.00000  Uiso   1.00
H399   H     0.41815   0.06361   0.04967   0.00000  Uiso   1.00
H400   H     0.33951   0.95869   0.92623   0.00000  Uiso   1.00
H401   H     0.38719   0.16919   0.09423   0.00000  Uiso   1.00
H402   H     0.53614   0.07331   0.11929   0.00000  Uiso   1.00
H403   H     0.23907   0.82610   0.80400   0.00000  Uiso   1.00
H404   H     0.33962   0.26995   0.15825   0.00000  Uiso   1.00
H405   H     0.65372   0.06777   0.21110   0.00000  Uiso   1.00
O406   O     0.14182   0.70106   0.77306   0.00000  Uiso   1.00
O407   O     0.27374   0.28338   0.23784   0.00000  Uiso   1.00
O408   O     0.68584   0.01812   0.30718   0.00000  Uiso   1.00
N409   N     0.18309   0.75826   0.89471   0.00000  Uiso   1.00
N410   N     0.27708   0.17323   0.22590   0.00000  Uiso   1.00
N411   N     0.57075   0.98423   0.27533   0.00000  Uiso   1.00
N412   N     0.23009   0.81612   0.84280   0.00000  Uiso   1.00
N413   N     0.32408   0.23109   0.17399   0.00000  Uiso   1.00
N414   N     0.61775   0.04209   0.22342   0.00000  Uiso   1.00
C415   C     0.55188   0.42540   0.86427   0.00000  Uiso   1.00
C416   C     0.47628   0.39274   0.84422   0.00000  Uiso   1.00
C417   C     0.42839   0.32789   0.78786   0.00000  Uiso   1.00
C418   C     0.36180   0.30741   0.77838   0.00000  Uiso   1.00
C419   C     0.24714   0.25020   0.74034   0.00000  Uiso   1.00
C420   C     0.56993   0.50030   0.86563   0.00000  Uiso   1.00
C421   C     0.60080   0.52588   0.82729   0.00000  Uiso   1.00
C422   C     0.61306   0.59595   0.83585   0.00000  Uiso   1.00
C423   C     0.64385   0.70574   0.83109   0.00000  Uiso   1.00
C424   C     0.58674   0.43727   0.94009   0.00000  Uiso   1.00
C425   C     0.63175   0.40987   0.96435   0.00000  Uiso   1.00
C426   C     0.65818   0.42688   0.03559   0.00000  Uiso   1.00
C427   C     0.71506   0.43880   0.14644   0.00000  Uiso   1.00
C428   C     0.51878   0.50435   0.94766   0.00000  Uiso   1.00
C429   C     0.45830   0.43563   0.88951   0.00000  Uiso   1.00
C430   C     0.39177   0.41524   0.88012   0.00000  Uiso   1.00
C431   C     0.34379   0.35037   0.82375   0.00000  Uiso   1.00
C432   C     0.55196   0.54318   0.91093   0.00000  Uiso   1.00
C433   C     0.56418   0.61323   0.91955   0.00000  Uiso   1.00
C434   C     0.59505   0.63892   0.88122   0.00000  Uiso   1.00
C435   C     0.56876   0.48015   0.98538   0.00000  Uiso   1.00
C436   C     0.59513   0.49721   0.05660   0.00000  Uiso   1.00
C437   C     0.64017   0.46984   0.08097   0.00000  Uiso   1.00
H438   H     0.56587   0.39202   0.82900   0.00000  Uiso   1.00
H439   H     0.44232   0.29472   0.75281   0.00000  Uiso   1.00
H440   H     0.61471   0.49269   0.79225   0.00000  Uiso   1.00
H441   H     0.64565   0.37668   0.92928   0.00000  Uiso   1.00
H442   H     0.29741   0.20578   0.68830   0.00000  Uiso   1.00
H443   H     0.66092   0.62320   0.77146   0.00000  Uiso   1.00
H444   H     0.72617   0.37859   0.06043   0.00000  Uiso   1.00
H445   H     0.50479   0.53774   0.98292   0.00000  Uiso   1.00
H446   H     0.37788   0.44844   0.91518   0.00000  Uiso   1.00
H447   H     0.55027   0.64640   0.95461   0.00000  Uiso   1.00
H448   H     0.58121   0.53040   0.09164   0.00000  Uiso   1.00
H449   H     0.24510   0.33054   0.82008   0.00000  Uiso   1.00
H450   H     0.60862   0.74797   0.90324   0.00000  Uiso   1.00
H451   H     0.67387   0.50336   0.19221   0.00000  Uiso   1.00
O452   O     0.18887   0.20680   0.70684   0.00000  Uiso   1.00
O453   O     0.66579   0.75445   0.81595   0.00000  Uiso   1.00
O454   O     0.75140   0.43352   0.19506   0.00000  Uiso   1.00
N455   N     0.30251   0.24739   0.72862   0.00000  Uiso   1.00
N456   N     0.64237   0.63766   0.80636   0.00000  Uiso   1.00
N457   N     0.70339   0.40898   0.07653   0.00000  Uiso   1.00
N458   N     0.27437   0.31452   0.79953   0.00000  Uiso   1.00
N459   N     0.61422   0.70479   0.87727   0.00000  Uiso   1.00
N460   N     0.67524   0.47611   0.14744   0.00000  Uiso   1.00
C461   C     0.54364   0.87459   0.66143   0.00000  Uiso   1.00
C462   C     0.48969   0.83487   0.58578   0.00000  Uiso   1.00
C463   C     0.42318   0.78735   0.56322   0.00000  Uiso   1.00
C464   C     0.38174   0.75656   0.49183   0.00000  Uiso   1.00
C465   C     0.29429   0.69240   0.38151   0.00000  Uiso   1.00
C466   C     0.60189   0.85475   0.66134   0.00000  Uiso   1.00
C467   C     0.62971   0.82395   0.70231   0.00000  Uiso   1.00
C468   C     0.68271   0.80991   0.69453   0.00000  Uiso   1.00
C469   C     0.76949   0.77667   0.70156   0.00000  Uiso   1.00
C470   C     0.56995   0.95456   0.67780   0.00000  Uiso   1.00
C471   C     0.57094   0.00769   0.73262   0.00000  Uiso   1.00
C472   C     0.59707   0.07767   0.73871   0.00000  Uiso   1.00
C473   C     0.63426   0.19940   0.77129   0.00000  Uiso   1.00
C474   C     0.58832   0.90441   0.57477   0.00000  Uiso   1.00
C475   C     0.51397   0.85107   0.53871   0.00000  Uiso   1.00
C476   C     0.47262   0.82035   0.46734   0.00000  Uiso   1.00
C477   C     0.40605   0.77279   0.44467   0.00000  Uiso   1.00
C478   C     0.62616   0.87095   0.61427   0.00000  Uiso   1.00
C479   C     0.67914   0.85695   0.60643   0.00000  Uiso   1.00
C480   C     0.70703   0.82613   0.64738   0.00000  Uiso   1.00
C481   C     0.59422   0.97076   0.63072   0.00000  Uiso   1.00
C482   C     0.62037   0.04068   0.63674   0.00000  Uiso   1.00
C483   C     0.62139   0.09390   0.69156   0.00000  Uiso   1.00
H484   H     0.52474   0.86197   0.69808   0.00000  Uiso   1.00
H485   H     0.40441   0.77482   0.59966   0.00000  Uiso   1.00
H486   H     0.61092   0.81143   0.73874   0.00000  Uiso   1.00
H487   H     0.55215   0.99513   0.76904   0.00000  Uiso   1.00
H488   H     0.28172   0.68533   0.46978   0.00000  Uiso   1.00
H489   H     0.71715   0.76254   0.76305   0.00000  Uiso   1.00
H490   H     0.59323   0.14991   0.82695   0.00000  Uiso   1.00
H491   H     0.60722   0.91702   0.53812   0.00000  Uiso   1.00
H492   H     0.49141   0.83289   0.43092   0.00000  Uiso   1.00
H493   H     0.69792   0.86950   0.57000   0.00000  Uiso   1.00
H494   H     0.63915   0.05320   0.60030   0.00000  Uiso   1.00
H495   H     0.35233   0.73245   0.33282   0.00000  Uiso   1.00
H496   H     0.78777   0.80967   0.62610   0.00000  Uiso   1.00
H497   H     0.66385   0.19704   0.68999   0.00000  Uiso   1.00
O498   O     0.23936   0.65253   0.33366   0.00000  Uiso   1.00
O499   O     0.81064   0.75385   0.71844   0.00000  Uiso   1.00
O500   O     0.64806   0.26206   0.80226   0.00000  Uiso   1.00
N501   N     0.31423   0.70797   0.45226   0.00000  Uiso   1.00
N502   N     0.72132   0.78015   0.72645   0.00000  Uiso   1.00
N503   N     0.60549   0.14231   0.78619   0.00000  Uiso   1.00
N504   N     0.35222   0.73333   0.37857   0.00000  Uiso   1.00
N505   N     0.75932   0.80551   0.65275   0.00000  Uiso   1.00
N506   N     0.64348   0.16767   0.71250   0.00000  Uiso   1.00
C507   C     0.83644   0.51483   0.46925   0.00000  Uiso   1.00
C508   C     0.81381   0.43466   0.42732   0.00000  Uiso   1.00
C509   C     0.77650   0.39652   0.35518   0.00000  Uiso   1.00
C510   C     0.76086   0.32354   0.32679   0.00000  Uiso   1.00
C511   C     0.72250   0.20415   0.25525   0.00000  Uiso   1.00
C512   C     0.80889   0.52005   0.52434   0.00000  Uiso   1.00
C513   C     0.76744   0.55372   0.53377   0.00000  Uiso   1.00
C514   C     0.74767   0.55262   0.58707   0.00000  Uiso   1.00
C515   C     0.70170   0.56585   0.66618   0.00000  Uiso   1.00
C516   C     0.91306   0.54744   0.50947   0.00000  Uiso   1.00
C517   C     0.95922   0.60414   0.50642   0.00000  Uiso   1.00
C518   C     0.02716   0.62612   0.54721   0.00000  Uiso   1.00
C519   C     0.14294   0.68186   0.60324   0.00000  Uiso   1.00
C520   C     0.87502   0.45304   0.54714   0.00000  Uiso   1.00
C521   C     0.83476   0.40110   0.46963   0.00000  Uiso   1.00
C522   C     0.81918   0.32816   0.44134   0.00000  Uiso   1.00
C523   C     0.78186   0.28991   0.36917   0.00000  Uiso   1.00
C524   C     0.82984   0.48649   0.56664   0.00000  Uiso   1.00
C525   C     0.81012   0.48535   0.61994   0.00000  Uiso   1.00
C526   C     0.76866   0.51900   0.62945   0.00000  Uiso   1.00
C527   C     0.93402   0.51387   0.55177   0.00000  Uiso   1.00
C528   C     0.00190   0.53577   0.59258   0.00000  Uiso   1.00
C529   C     0.04815   0.59249   0.58959   0.00000  Uiso   1.00
H530   H     0.82013   0.54096   0.43632   0.00000  Uiso   1.00
H531   H     0.76029   0.42252   0.32246   0.00000  Uiso   1.00
H532   H     0.75124   0.57969   0.50103   0.00000  Uiso   1.00
H533   H     0.94299   0.63010   0.47368   0.00000  Uiso   1.00
H534   H     0.70317   0.27638   0.21488   0.00000  Uiso   1.00
H535   H     0.68410   0.60782   0.59142   0.00000  Uiso   1.00
H536   H     0.08844   0.71412   0.53374   0.00000  Uiso   1.00
H537   H     0.89133   0.42691   0.58007   0.00000  Uiso   1.00
H538   H     0.83540   0.30220   0.47409   0.00000  Uiso   1.00
H539   H     0.82635   0.45937   0.65267   0.00000  Uiso   1.00
H540   H     0.01809   0.50978   0.62531   0.00000  Uiso   1.00
H541   H     0.76413   0.17873   0.33795   0.00000  Uiso   1.00
H542   H     0.74507   0.51017   0.71450   0.00000  Uiso   1.00
H543   H     0.14940   0.61647   0.65682   0.00000  Uiso   1.00
O544   O     0.69555   0.14757   0.20411   0.00000  Uiso   1.00
O545   O     0.67055   0.58241   0.69813   0.00000  Uiso   1.00
O546   O     0.20102   0.72188   0.62245   0.00000  Uiso   1.00
N547   N     0.72520   0.27052   0.25838   0.00000  Uiso   1.00
N548   N     0.70737   0.58038   0.61043   0.00000  Uiso   1.00
N549   N     0.08539   0.67978   0.55651   0.00000  Uiso   1.00
N550   N     0.75800   0.21797   0.32461   0.00000  Uiso   1.00
N551   N     0.74017   0.52783   0.67665   0.00000  Uiso   1.00
N552   N     0.11819   0.62723   0.62274   0.00000  Uiso   1.00
