data_job_02990
_audit_creation_date              2018-12-19
_audit_creation_method            'Materials Studio'
_symmetry_space_group_name_H-M    'P1'
_symmetry_Int_Tables_number       1
_symmetry_cell_setting            triclinic
loop_
_symmetry_equiv_pos_as_xyz
  x,y,z
_cell_length_a                    32.3196
_cell_length_b                    8.4043
_cell_length_c                    28.2696
_cell_angle_alpha                 90.0000
_cell_angle_beta                  157.9802
_cell_angle_gamma                 90.0000
loop_
_atom_site_label
_atom_site_type_symbol
_atom_site_fract_x
_atom_site_fract_y
_atom_site_fract_z
_atom_site_U_iso_or_equiv
_atom_site_adp_type
_atom_site_occupancy
C1     C     0.87335   0.32717   0.24567   0.00000  Uiso   1.00
C2     C     0.95273   0.46448   0.33906   0.00000  Uiso   1.00
C3     C     0.05355   0.45318   0.46895   0.00000  Uiso   1.00
C4     C     0.11398   0.59254   0.53794   0.00000  Uiso   1.00
C5     C     0.24317   0.78366   0.69190   0.00000  Uiso   1.00
C6     C     0.76356   0.37613   0.15131   0.00000  Uiso   1.00
C7     C     0.70533   0.29053   0.12334   0.00000  Uiso   1.00
C8     C     0.60651   0.35552   0.03426   0.00000  Uiso   1.00
C9     C     0.44197   0.40941   0.89667   0.00000  Uiso   1.00
C10    C     0.85443   0.32427   0.17231   0.00000  Uiso   1.00
C11    C     0.87257   0.19507   0.16196   0.00000  Uiso   1.00
C12    C     0.85024   0.21639   0.09053   0.00000  Uiso   1.00
C13    C     0.82679   0.18977   0.98555   0.00000  Uiso   1.00
C14    C     0.80141   0.59476   0.13719   0.00000  Uiso   1.00
C15    C     0.91365   0.60982   0.28013   0.00000  Uiso   1.00
C16    C     0.97396   0.74924   0.34894   0.00000  Uiso   1.00
C17    C     0.07484   0.73815   0.47892   0.00000  Uiso   1.00
C18    C     0.72449   0.52147   0.09239   0.00000  Uiso   1.00
C19    C     0.62573   0.58659   0.00332   0.00000  Uiso   1.00
C20    C     0.56737   0.50113   0.97523   0.00000  Uiso   1.00
C21    C     0.81536   0.46962   0.11338   0.00000  Uiso   1.00
C22    C     0.79299   0.49113   0.04195   0.00000  Uiso   1.00
C23    C     0.81109   0.36199   0.03151   0.00000  Uiso   1.00
H24    H     0.90376   0.21401   0.29153   0.00000  Uiso   1.00
H25    H     0.08375   0.34068   0.51451   0.00000  Uiso   1.00
H26    H     0.73558   0.17805   0.16894   0.00000  Uiso   1.00
H27    H     0.90281   0.08261   0.20757   0.00000  Uiso   1.00
H28    H     0.26606   0.54523   0.73574   0.00000  Uiso   1.00
H29    H     0.53190   0.20229   0.00705   0.00000  Uiso   1.00
H30    H     0.88453   0.00103   0.08849   0.00000  Uiso   1.00
H31    H     0.77098   0.70792   0.09132   0.00000  Uiso   1.00
H32    H     0.94369   0.86170   0.30332   0.00000  Uiso   1.00
H33    H     0.59552   0.69907   0.95774   0.00000  Uiso   1.00
H34    H     0.76275   0.60362   0.99637   0.00000  Uiso   1.00
H35    H     0.15238   0.96811   0.56432   0.00000  Uiso   1.00
H36    H     0.41822   0.62516   0.83563   0.00000  Uiso   1.00
H37    H     0.77085   0.42391   0.91708   0.00000  Uiso   1.00
O38    O     0.32521   0.84893   0.79310   0.00000  Uiso   1.00
O39    O     0.36202   0.39899   0.83707   0.00000  Uiso   1.00
O40    O     0.82466   0.13494   0.94393   0.00000  Uiso   1.00
N41    N     0.21561   0.62364   0.66631   0.00000  Uiso   1.00
N42    N     0.52923   0.30303   0.98504   0.00000  Uiso   1.00
N43    N     0.85887   0.11485   0.06115   0.00000  Uiso   1.00
N44    N     0.15444   0.85119   0.57407   0.00000  Uiso   1.00
N45    N     0.46806   0.53058   0.89280   0.00000  Uiso   1.00
N46    N     0.79771   0.34240   0.96892   0.00000  Uiso   1.00
C47    C     0.12665   0.32717   0.25433   0.00000  Uiso   1.00
C48    C     0.04727   0.46448   0.16094   0.00000  Uiso   1.00
C49    C     0.94645   0.45318   0.03105   0.00000  Uiso   1.00
C50    C     0.88602   0.59254   0.96206   0.00000  Uiso   1.00
C51    C     0.75683   0.78366   0.80810   0.00000  Uiso   1.00
C52    C     0.23644   0.37613   0.34869   0.00000  Uiso   1.00
C53    C     0.29467   0.29053   0.37666   0.00000  Uiso   1.00
C54    C     0.39349   0.35552   0.46574   0.00000  Uiso   1.00
C55    C     0.55803   0.40941   0.60333   0.00000  Uiso   1.00
C56    C     0.14557   0.32427   0.32769   0.00000  Uiso   1.00
C57    C     0.12743   0.19507   0.33804   0.00000  Uiso   1.00
C58    C     0.14976   0.21639   0.40947   0.00000  Uiso   1.00
C59    C     0.17321   0.18977   0.51445   0.00000  Uiso   1.00
C60    C     0.19859   0.59476   0.36281   0.00000  Uiso   1.00
C61    C     0.08635   0.60982   0.21987   0.00000  Uiso   1.00
C62    C     0.02604   0.74924   0.15106   0.00000  Uiso   1.00
C63    C     0.92516   0.73815   0.02108   0.00000  Uiso   1.00
C64    C     0.27551   0.52147   0.40761   0.00000  Uiso   1.00
C65    C     0.37427   0.58659   0.49668   0.00000  Uiso   1.00
C66    C     0.43263   0.50113   0.52477   0.00000  Uiso   1.00
C67    C     0.18464   0.46962   0.38662   0.00000  Uiso   1.00
C68    C     0.20701   0.49113   0.45805   0.00000  Uiso   1.00
C69    C     0.18891   0.36199   0.46849   0.00000  Uiso   1.00
H70    H     0.09624   0.21401   0.20847   0.00000  Uiso   1.00
H71    H     0.91625   0.34068   0.98549   0.00000  Uiso   1.00
H72    H     0.26442   0.17805   0.33106   0.00000  Uiso   1.00
H73    H     0.09719   0.08261   0.29243   0.00000  Uiso   1.00
H74    H     0.73394   0.54523   0.76426   0.00000  Uiso   1.00
H75    H     0.46810   0.20229   0.49295   0.00000  Uiso   1.00
H76    H     0.11547   0.00103   0.41151   0.00000  Uiso   1.00
H77    H     0.22902   0.70792   0.40868   0.00000  Uiso   1.00
H78    H     0.05631   0.86170   0.19668   0.00000  Uiso   1.00
H79    H     0.40448   0.69907   0.54226   0.00000  Uiso   1.00
H80    H     0.23725   0.60362   0.50363   0.00000  Uiso   1.00
H81    H     0.84762   0.96811   0.93568   0.00000  Uiso   1.00
H82    H     0.58178   0.62516   0.66437   0.00000  Uiso   1.00
H83    H     0.22915   0.42391   0.58292   0.00000  Uiso   1.00
O84    O     0.67479   0.84893   0.70690   0.00000  Uiso   1.00
O85    O     0.63798   0.39899   0.66293   0.00000  Uiso   1.00
O86    O     0.17534   0.13494   0.55607   0.00000  Uiso   1.00
N87    N     0.78439   0.62364   0.83369   0.00000  Uiso   1.00
N88    N     0.47077   0.30303   0.51496   0.00000  Uiso   1.00
N89    N     0.14113   0.11485   0.43885   0.00000  Uiso   1.00
N90    N     0.84556   0.85119   0.92593   0.00000  Uiso   1.00
N91    N     0.53194   0.53058   0.60720   0.00000  Uiso   1.00
N92    N     0.20229   0.34240   0.53108   0.00000  Uiso   1.00
C93    C     0.12665   0.67283   0.75433   0.00000  Uiso   1.00
C94    C     0.04727   0.53552   0.66094   0.00000  Uiso   1.00
C95    C     0.94645   0.54682   0.53105   0.00000  Uiso   1.00
C96    C     0.88602   0.40746   0.46206   0.00000  Uiso   1.00
C97    C     0.75683   0.21634   0.30810   0.00000  Uiso   1.00
C98    C     0.23644   0.62387   0.84869   0.00000  Uiso   1.00
C99    C     0.29467   0.70947   0.87666   0.00000  Uiso   1.00
C100   C     0.39349   0.64448   0.96574   0.00000  Uiso   1.00
C101   C     0.55803   0.59059   0.10333   0.00000  Uiso   1.00
C102   C     0.14557   0.67573   0.82769   0.00000  Uiso   1.00
C103   C     0.12743   0.80493   0.83804   0.00000  Uiso   1.00
C104   C     0.14976   0.78361   0.90947   0.00000  Uiso   1.00
C105   C     0.17321   0.81023   0.01445   0.00000  Uiso   1.00
C106   C     0.19859   0.40524   0.86281   0.00000  Uiso   1.00
C107   C     0.08635   0.39018   0.71987   0.00000  Uiso   1.00
C108   C     0.02604   0.25076   0.65106   0.00000  Uiso   1.00
C109   C     0.92516   0.26185   0.52108   0.00000  Uiso   1.00
C110   C     0.27551   0.47853   0.90761   0.00000  Uiso   1.00
C111   C     0.37427   0.41341   0.99668   0.00000  Uiso   1.00
C112   C     0.43263   0.49887   0.02477   0.00000  Uiso   1.00
C113   C     0.18464   0.53038   0.88662   0.00000  Uiso   1.00
C114   C     0.20701   0.50887   0.95805   0.00000  Uiso   1.00
C115   C     0.18891   0.63801   0.96849   0.00000  Uiso   1.00
H116   H     0.09624   0.78599   0.70847   0.00000  Uiso   1.00
H117   H     0.91625   0.65932   0.48549   0.00000  Uiso   1.00
H118   H     0.26442   0.82195   0.83106   0.00000  Uiso   1.00
H119   H     0.09719   0.91739   0.79243   0.00000  Uiso   1.00
H120   H     0.73394   0.45477   0.26426   0.00000  Uiso   1.00
H121   H     0.46810   0.79771   0.99295   0.00000  Uiso   1.00
H122   H     0.11547   0.99897   0.91151   0.00000  Uiso   1.00
H123   H     0.22902   0.29208   0.90868   0.00000  Uiso   1.00
H124   H     0.05631   0.13830   0.69668   0.00000  Uiso   1.00
H125   H     0.40448   0.30093   0.04226   0.00000  Uiso   1.00
H126   H     0.23725   0.39638   0.00363   0.00000  Uiso   1.00
H127   H     0.84762   0.03189   0.43568   0.00000  Uiso   1.00
H128   H     0.58178   0.37484   0.16437   0.00000  Uiso   1.00
H129   H     0.22915   0.57609   0.08292   0.00000  Uiso   1.00
O130   O     0.67479   0.15107   0.20690   0.00000  Uiso   1.00
O131   O     0.63798   0.60101   0.16293   0.00000  Uiso   1.00
O132   O     0.17534   0.86506   0.05607   0.00000  Uiso   1.00
N133   N     0.78439   0.37636   0.33369   0.00000  Uiso   1.00
N134   N     0.47077   0.69697   0.01496   0.00000  Uiso   1.00
N135   N     0.14113   0.88515   0.93885   0.00000  Uiso   1.00
N136   N     0.84556   0.14881   0.42593   0.00000  Uiso   1.00
N137   N     0.53194   0.46942   0.10720   0.00000  Uiso   1.00
N138   N     0.20229   0.65760   0.03108   0.00000  Uiso   1.00
C139   C     0.87335   0.67283   0.74567   0.00000  Uiso   1.00
C140   C     0.95273   0.53552   0.83906   0.00000  Uiso   1.00
C141   C     0.05355   0.54682   0.96895   0.00000  Uiso   1.00
C142   C     0.11398   0.40746   0.03794   0.00000  Uiso   1.00
C143   C     0.24317   0.21634   0.19190   0.00000  Uiso   1.00
C144   C     0.76356   0.62387   0.65131   0.00000  Uiso   1.00
C145   C     0.70533   0.70947   0.62334   0.00000  Uiso   1.00
C146   C     0.60651   0.64448   0.53426   0.00000  Uiso   1.00
C147   C     0.44197   0.59059   0.39667   0.00000  Uiso   1.00
C148   C     0.85443   0.67573   0.67231   0.00000  Uiso   1.00
C149   C     0.87257   0.80493   0.66196   0.00000  Uiso   1.00
C150   C     0.85024   0.78361   0.59053   0.00000  Uiso   1.00
C151   C     0.82679   0.81023   0.48555   0.00000  Uiso   1.00
C152   C     0.80141   0.40524   0.63719   0.00000  Uiso   1.00
C153   C     0.91365   0.39018   0.78013   0.00000  Uiso   1.00
C154   C     0.97396   0.25076   0.84894   0.00000  Uiso   1.00
C155   C     0.07484   0.26185   0.97892   0.00000  Uiso   1.00
C156   C     0.72449   0.47853   0.59239   0.00000  Uiso   1.00
C157   C     0.62573   0.41341   0.50332   0.00000  Uiso   1.00
C158   C     0.56737   0.49887   0.47523   0.00000  Uiso   1.00
C159   C     0.81536   0.53038   0.61338   0.00000  Uiso   1.00
C160   C     0.79299   0.50887   0.54195   0.00000  Uiso   1.00
C161   C     0.81109   0.63801   0.53151   0.00000  Uiso   1.00
H162   H     0.90376   0.78599   0.79153   0.00000  Uiso   1.00
H163   H     0.08375   0.65932   0.01451   0.00000  Uiso   1.00
H164   H     0.73558   0.82195   0.66894   0.00000  Uiso   1.00
H165   H     0.90281   0.91739   0.70757   0.00000  Uiso   1.00
H166   H     0.26606   0.45477   0.23574   0.00000  Uiso   1.00
H167   H     0.53190   0.79771   0.50705   0.00000  Uiso   1.00
H168   H     0.88453   0.99897   0.58849   0.00000  Uiso   1.00
H169   H     0.77098   0.29208   0.59132   0.00000  Uiso   1.00
H170   H     0.94369   0.13830   0.80332   0.00000  Uiso   1.00
H171   H     0.59552   0.30093   0.45774   0.00000  Uiso   1.00
H172   H     0.76275   0.39638   0.49637   0.00000  Uiso   1.00
H173   H     0.15238   0.03189   0.06432   0.00000  Uiso   1.00
H174   H     0.41822   0.37484   0.33563   0.00000  Uiso   1.00
H175   H     0.77085   0.57609   0.41708   0.00000  Uiso   1.00
O176   O     0.32521   0.15107   0.29310   0.00000  Uiso   1.00
O177   O     0.36202   0.60101   0.33707   0.00000  Uiso   1.00
O178   O     0.82466   0.86506   0.44393   0.00000  Uiso   1.00
N179   N     0.21561   0.37636   0.16631   0.00000  Uiso   1.00
N180   N     0.52923   0.69697   0.48504   0.00000  Uiso   1.00
N181   N     0.85887   0.88515   0.56115   0.00000  Uiso   1.00
N182   N     0.15444   0.14881   0.07407   0.00000  Uiso   1.00
N183   N     0.46806   0.46942   0.39280   0.00000  Uiso   1.00
N184   N     0.79771   0.65760   0.46892   0.00000  Uiso   1.00
