data_job_03344
_audit_creation_date              2018-12-19
_audit_creation_method            'Materials Studio'
_symmetry_space_group_name_H-M    'P1'
_symmetry_Int_Tables_number       1
_symmetry_cell_setting            triclinic
loop_
_symmetry_equiv_pos_as_xyz
  x,y,z
_cell_length_a                    7.2365
_cell_length_b                    47.6290
_cell_length_c                    18.4166
_cell_angle_alpha                 90.0000
_cell_angle_beta                  90.0000
_cell_angle_gamma                 90.0000
loop_
_atom_site_label
_atom_site_type_symbol
_atom_site_fract_x
_atom_site_fract_y
_atom_site_fract_z
_atom_site_U_iso_or_equiv
_atom_site_adp_type
_atom_site_occupancy
C1     C     0.46301   0.12579   0.76899   0.00000  Uiso   1.00
C2     C     0.56540   0.10018   0.73985   0.00000  Uiso   1.00
C3     C     0.48776   0.07864   0.69929   0.00000  Uiso   1.00
C4     C     0.60464   0.05707   0.67778   0.00000  Uiso   1.00
C5     C     0.73505   0.01730   0.62975   0.00000  Uiso   1.00
C6     C     0.49488   0.12586   0.85084   0.00000  Uiso   1.00
C7     C     0.35793   0.12593   0.90360   0.00000  Uiso   1.00
C8     C     0.41546   0.12599   0.97552   0.00000  Uiso   1.00
C9     C     0.43637   0.12611   0.09981   0.00000  Uiso   1.00
C10    C     0.56564   0.15133   0.73954   0.00000  Uiso   1.00
C11    C     0.48818   0.17281   0.69873   0.00000  Uiso   1.00
C12    C     0.60527   0.19432   0.67696   0.00000  Uiso   1.00
C13    C     0.73604   0.23398   0.62844   0.00000  Uiso   1.00
C14    C     0.80868   0.12579   0.80292   0.00000  Uiso   1.00
C15    C     0.75316   0.10018   0.75828   0.00000  Uiso   1.00
C16    C     0.87020   0.07864   0.73682   0.00000  Uiso   1.00
C17    C     0.79274   0.05707   0.69623   0.00000  Uiso   1.00
C18    C     0.68262   0.12586   0.86927   0.00000  Uiso   1.00
C19    C     0.74037   0.12592   0.94113   0.00000  Uiso   1.00
C20    C     0.60355   0.12598   0.99398   0.00000  Uiso   1.00
C21    C     0.75339   0.15133   0.75797   0.00000  Uiso   1.00
C22    C     0.87062   0.17280   0.73626   0.00000  Uiso   1.00
C23    C     0.79336   0.19431   0.69542   0.00000  Uiso   1.00
H24    H     0.31684   0.12579   0.75465   0.00000  Uiso   1.00
H25    H     0.34244   0.07865   0.68504   0.00000  Uiso   1.00
H26    H     0.21265   0.12593   0.88932   0.00000  Uiso   1.00
H27    H     0.34288   0.17281   0.68448   0.00000  Uiso   1.00
H28    H     0.45362   0.02638   0.61602   0.00000  Uiso   1.00
H29    H     0.17993   0.12608   0.04675   0.00000  Uiso   1.00
H30    H     0.45454   0.22493   0.61480   0.00000  Uiso   1.00
H31    H     0.95486   0.12578   0.81727   0.00000  Uiso   1.00
H32    H     0.01549   0.07864   0.75109   0.00000  Uiso   1.00
H33    H     0.88568   0.12592   0.95537   0.00000  Uiso   1.00
H34    H     0.01591   0.17280   0.75053   0.00000  Uiso   1.00
H35    H     0.99988   0.02637   0.66963   0.00000  Uiso   1.00
H36    H     0.72619   0.12607   0.10036   0.00000  Uiso   1.00
H37    H     0.00080   0.22492   0.66841   0.00000  Uiso   1.00
O38    O     0.75510   0.99535   0.59818   0.00000  Uiso   1.00
O39    O     0.39603   0.12617   0.16328   0.00000  Uiso   1.00
O40    O     0.75632   0.25585   0.59658   0.00000  Uiso   1.00
N41    N     0.57387   0.03285   0.63771   0.00000  Uiso   1.00
N42    N     0.31799   0.12606   0.04041   0.00000  Uiso   1.00
N43    N     0.57472   0.21848   0.63660   0.00000  Uiso   1.00
N44    N     0.86781   0.03284   0.66655   0.00000  Uiso   1.00
N45    N     0.61192   0.12606   0.06926   0.00000  Uiso   1.00
N46    N     0.86865   0.21847   0.66544   0.00000  Uiso   1.00
C47    C     0.46301   0.62579   0.26899   0.00000  Uiso   1.00
C48    C     0.56540   0.60018   0.23985   0.00000  Uiso   1.00
C49    C     0.48776   0.57864   0.19929   0.00000  Uiso   1.00
C50    C     0.60464   0.55707   0.17778   0.00000  Uiso   1.00
C51    C     0.73505   0.51730   0.12975   0.00000  Uiso   1.00
C52    C     0.49488   0.62586   0.35084   0.00000  Uiso   1.00
C53    C     0.35793   0.62593   0.40360   0.00000  Uiso   1.00
C54    C     0.41546   0.62599   0.47552   0.00000  Uiso   1.00
C55    C     0.43637   0.62611   0.59981   0.00000  Uiso   1.00
C56    C     0.56564   0.65133   0.23954   0.00000  Uiso   1.00
C57    C     0.48818   0.67281   0.19873   0.00000  Uiso   1.00
C58    C     0.60527   0.69432   0.17696   0.00000  Uiso   1.00
C59    C     0.73604   0.73398   0.12844   0.00000  Uiso   1.00
C60    C     0.80868   0.62579   0.30292   0.00000  Uiso   1.00
C61    C     0.75316   0.60018   0.25828   0.00000  Uiso   1.00
C62    C     0.87020   0.57864   0.23682   0.00000  Uiso   1.00
C63    C     0.79274   0.55707   0.19623   0.00000  Uiso   1.00
C64    C     0.68262   0.62586   0.36927   0.00000  Uiso   1.00
C65    C     0.74037   0.62592   0.44113   0.00000  Uiso   1.00
C66    C     0.60355   0.62598   0.49398   0.00000  Uiso   1.00
C67    C     0.75339   0.65133   0.25797   0.00000  Uiso   1.00
C68    C     0.87062   0.67280   0.23626   0.00000  Uiso   1.00
C69    C     0.79336   0.69431   0.19542   0.00000  Uiso   1.00
H70    H     0.31684   0.62579   0.25465   0.00000  Uiso   1.00
H71    H     0.34244   0.57865   0.18504   0.00000  Uiso   1.00
H72    H     0.21265   0.62593   0.38932   0.00000  Uiso   1.00
H73    H     0.34288   0.67281   0.18448   0.00000  Uiso   1.00
H74    H     0.45362   0.52638   0.11602   0.00000  Uiso   1.00
H75    H     0.17993   0.62608   0.54675   0.00000  Uiso   1.00
H76    H     0.45454   0.72493   0.11480   0.00000  Uiso   1.00
H77    H     0.95486   0.62578   0.31727   0.00000  Uiso   1.00
H78    H     0.01549   0.57864   0.25109   0.00000  Uiso   1.00
H79    H     0.88568   0.62592   0.45537   0.00000  Uiso   1.00
H80    H     0.01591   0.67280   0.25053   0.00000  Uiso   1.00
H81    H     0.99988   0.52637   0.16963   0.00000  Uiso   1.00
H82    H     0.72619   0.62607   0.60036   0.00000  Uiso   1.00
H83    H     0.00080   0.72492   0.16841   0.00000  Uiso   1.00
O84    O     0.75510   0.49535   0.09818   0.00000  Uiso   1.00
O85    O     0.39603   0.62617   0.66328   0.00000  Uiso   1.00
O86    O     0.75632   0.75585   0.09658   0.00000  Uiso   1.00
N87    N     0.57387   0.53285   0.13771   0.00000  Uiso   1.00
N88    N     0.31799   0.62606   0.54041   0.00000  Uiso   1.00
N89    N     0.57472   0.71848   0.13660   0.00000  Uiso   1.00
N90    N     0.86781   0.53284   0.16655   0.00000  Uiso   1.00
N91    N     0.61192   0.62606   0.56926   0.00000  Uiso   1.00
N92    N     0.86865   0.71847   0.16544   0.00000  Uiso   1.00
C93    C     0.53699   0.87421   0.76899   0.00000  Uiso   1.00
C94    C     0.43460   0.89982   0.73985   0.00000  Uiso   1.00
C95    C     0.51224   0.92136   0.69929   0.00000  Uiso   1.00
C96    C     0.39536   0.94293   0.67778   0.00000  Uiso   1.00
C97    C     0.26495   0.98270   0.62975   0.00000  Uiso   1.00
C98    C     0.50512   0.87414   0.85084   0.00000  Uiso   1.00
C99    C     0.64207   0.87407   0.90360   0.00000  Uiso   1.00
C100   C     0.58454   0.87401   0.97552   0.00000  Uiso   1.00
C101   C     0.56363   0.87389   0.09981   0.00000  Uiso   1.00
C102   C     0.43436   0.84867   0.73954   0.00000  Uiso   1.00
C103   C     0.51182   0.82719   0.69873   0.00000  Uiso   1.00
C104   C     0.39473   0.80568   0.67696   0.00000  Uiso   1.00
C105   C     0.26396   0.76602   0.62844   0.00000  Uiso   1.00
C106   C     0.19132   0.87421   0.80292   0.00000  Uiso   1.00
C107   C     0.24684   0.89982   0.75828   0.00000  Uiso   1.00
C108   C     0.12980   0.92136   0.73682   0.00000  Uiso   1.00
C109   C     0.20726   0.94293   0.69623   0.00000  Uiso   1.00
C110   C     0.31738   0.87414   0.86927   0.00000  Uiso   1.00
C111   C     0.25963   0.87408   0.94113   0.00000  Uiso   1.00
C112   C     0.39645   0.87402   0.99398   0.00000  Uiso   1.00
C113   C     0.24661   0.84867   0.75797   0.00000  Uiso   1.00
C114   C     0.12938   0.82720   0.73626   0.00000  Uiso   1.00
C115   C     0.20664   0.80569   0.69542   0.00000  Uiso   1.00
H116   H     0.68316   0.87421   0.75465   0.00000  Uiso   1.00
H117   H     0.65756   0.92135   0.68504   0.00000  Uiso   1.00
H118   H     0.78735   0.87407   0.88932   0.00000  Uiso   1.00
H119   H     0.65712   0.82719   0.68448   0.00000  Uiso   1.00
H120   H     0.54638   0.97362   0.61602   0.00000  Uiso   1.00
H121   H     0.82007   0.87392   0.04675   0.00000  Uiso   1.00
H122   H     0.54546   0.77507   0.61480   0.00000  Uiso   1.00
H123   H     0.04514   0.87422   0.81727   0.00000  Uiso   1.00
H124   H     0.98451   0.92136   0.75109   0.00000  Uiso   1.00
H125   H     0.11432   0.87408   0.95537   0.00000  Uiso   1.00
H126   H     0.98409   0.82720   0.75053   0.00000  Uiso   1.00
H127   H     0.00012   0.97363   0.66963   0.00000  Uiso   1.00
H128   H     0.27381   0.87393   0.10036   0.00000  Uiso   1.00
H129   H     0.99920   0.77508   0.66841   0.00000  Uiso   1.00
O130   O     0.24490   0.00465   0.59818   0.00000  Uiso   1.00
O131   O     0.60397   0.87383   0.16328   0.00000  Uiso   1.00
O132   O     0.24368   0.74415   0.59658   0.00000  Uiso   1.00
N133   N     0.42613   0.96715   0.63771   0.00000  Uiso   1.00
N134   N     0.68201   0.87394   0.04041   0.00000  Uiso   1.00
N135   N     0.42528   0.78152   0.63660   0.00000  Uiso   1.00
N136   N     0.13219   0.96716   0.66655   0.00000  Uiso   1.00
N137   N     0.38808   0.87394   0.06926   0.00000  Uiso   1.00
N138   N     0.13135   0.78153   0.66544   0.00000  Uiso   1.00
C139   C     0.53699   0.37421   0.26899   0.00000  Uiso   1.00
C140   C     0.43460   0.39982   0.23985   0.00000  Uiso   1.00
C141   C     0.51224   0.42136   0.19929   0.00000  Uiso   1.00
C142   C     0.39536   0.44293   0.17778   0.00000  Uiso   1.00
C143   C     0.26495   0.48270   0.12975   0.00000  Uiso   1.00
C144   C     0.50512   0.37414   0.35084   0.00000  Uiso   1.00
C145   C     0.64207   0.37407   0.40360   0.00000  Uiso   1.00
C146   C     0.58454   0.37401   0.47552   0.00000  Uiso   1.00
C147   C     0.56363   0.37389   0.59981   0.00000  Uiso   1.00
C148   C     0.43436   0.34867   0.23954   0.00000  Uiso   1.00
C149   C     0.51182   0.32719   0.19873   0.00000  Uiso   1.00
C150   C     0.39473   0.30568   0.17696   0.00000  Uiso   1.00
C151   C     0.26396   0.26602   0.12844   0.00000  Uiso   1.00
C152   C     0.19132   0.37421   0.30292   0.00000  Uiso   1.00
C153   C     0.24684   0.39982   0.25828   0.00000  Uiso   1.00
C154   C     0.12980   0.42136   0.23682   0.00000  Uiso   1.00
C155   C     0.20726   0.44293   0.19623   0.00000  Uiso   1.00
C156   C     0.31738   0.37414   0.36927   0.00000  Uiso   1.00
C157   C     0.25963   0.37408   0.44113   0.00000  Uiso   1.00
C158   C     0.39645   0.37402   0.49398   0.00000  Uiso   1.00
C159   C     0.24661   0.34867   0.25797   0.00000  Uiso   1.00
C160   C     0.12938   0.32720   0.23626   0.00000  Uiso   1.00
C161   C     0.20664   0.30569   0.19542   0.00000  Uiso   1.00
H162   H     0.68316   0.37421   0.25465   0.00000  Uiso   1.00
H163   H     0.65756   0.42135   0.18504   0.00000  Uiso   1.00
H164   H     0.78735   0.37407   0.38932   0.00000  Uiso   1.00
H165   H     0.65712   0.32719   0.18448   0.00000  Uiso   1.00
H166   H     0.54638   0.47362   0.11602   0.00000  Uiso   1.00
H167   H     0.82007   0.37392   0.54675   0.00000  Uiso   1.00
H168   H     0.54546   0.27507   0.11480   0.00000  Uiso   1.00
H169   H     0.04514   0.37422   0.31727   0.00000  Uiso   1.00
H170   H     0.98451   0.42136   0.25109   0.00000  Uiso   1.00
H171   H     0.11432   0.37408   0.45537   0.00000  Uiso   1.00
H172   H     0.98409   0.32720   0.25053   0.00000  Uiso   1.00
H173   H     0.00012   0.47363   0.16963   0.00000  Uiso   1.00
H174   H     0.27381   0.37393   0.60036   0.00000  Uiso   1.00
H175   H     0.99920   0.27508   0.16841   0.00000  Uiso   1.00
O176   O     0.24490   0.50465   0.09818   0.00000  Uiso   1.00
O177   O     0.60397   0.37383   0.66328   0.00000  Uiso   1.00
O178   O     0.24368   0.24415   0.09658   0.00000  Uiso   1.00
N179   N     0.42613   0.46715   0.13771   0.00000  Uiso   1.00
N180   N     0.68201   0.37394   0.54041   0.00000  Uiso   1.00
N181   N     0.42528   0.28152   0.13660   0.00000  Uiso   1.00
N182   N     0.13219   0.46716   0.16655   0.00000  Uiso   1.00
N183   N     0.38808   0.37394   0.56926   0.00000  Uiso   1.00
N184   N     0.13135   0.28153   0.16544   0.00000  Uiso   1.00
C185   C     0.96301   0.37421   0.76899   0.00000  Uiso   1.00
C186   C     0.06540   0.39982   0.73985   0.00000  Uiso   1.00
C187   C     0.98776   0.42136   0.69929   0.00000  Uiso   1.00
C188   C     0.10464   0.44293   0.67778   0.00000  Uiso   1.00
C189   C     0.23505   0.48270   0.62975   0.00000  Uiso   1.00
C190   C     0.99488   0.37414   0.85084   0.00000  Uiso   1.00
C191   C     0.85793   0.37407   0.90360   0.00000  Uiso   1.00
C192   C     0.91546   0.37401   0.97552   0.00000  Uiso   1.00
C193   C     0.93637   0.37389   0.09981   0.00000  Uiso   1.00
C194   C     0.06564   0.34867   0.73954   0.00000  Uiso   1.00
C195   C     0.98818   0.32719   0.69873   0.00000  Uiso   1.00
C196   C     0.10527   0.30568   0.67696   0.00000  Uiso   1.00
C197   C     0.23604   0.26602   0.62844   0.00000  Uiso   1.00
C198   C     0.30868   0.37421   0.80292   0.00000  Uiso   1.00
C199   C     0.25316   0.39982   0.75828   0.00000  Uiso   1.00
C200   C     0.37020   0.42136   0.73682   0.00000  Uiso   1.00
C201   C     0.29274   0.44293   0.69623   0.00000  Uiso   1.00
C202   C     0.18262   0.37414   0.86927   0.00000  Uiso   1.00
C203   C     0.24037   0.37408   0.94113   0.00000  Uiso   1.00
C204   C     0.10355   0.37402   0.99398   0.00000  Uiso   1.00
C205   C     0.25339   0.34867   0.75797   0.00000  Uiso   1.00
C206   C     0.37062   0.32720   0.73626   0.00000  Uiso   1.00
C207   C     0.29336   0.30569   0.69542   0.00000  Uiso   1.00
H208   H     0.81684   0.37421   0.75465   0.00000  Uiso   1.00
H209   H     0.84244   0.42135   0.68504   0.00000  Uiso   1.00
H210   H     0.71265   0.37407   0.88932   0.00000  Uiso   1.00
H211   H     0.84288   0.32719   0.68448   0.00000  Uiso   1.00
H212   H     0.95362   0.47362   0.61602   0.00000  Uiso   1.00
H213   H     0.67993   0.37392   0.04675   0.00000  Uiso   1.00
H214   H     0.95454   0.27507   0.61480   0.00000  Uiso   1.00
H215   H     0.45486   0.37422   0.81727   0.00000  Uiso   1.00
H216   H     0.51549   0.42136   0.75109   0.00000  Uiso   1.00
H217   H     0.38568   0.37408   0.95537   0.00000  Uiso   1.00
H218   H     0.51591   0.32720   0.75053   0.00000  Uiso   1.00
H219   H     0.49988   0.47363   0.66963   0.00000  Uiso   1.00
H220   H     0.22619   0.37393   0.10036   0.00000  Uiso   1.00
H221   H     0.50080   0.27508   0.66841   0.00000  Uiso   1.00
O222   O     0.25510   0.50465   0.59818   0.00000  Uiso   1.00
O223   O     0.89603   0.37383   0.16328   0.00000  Uiso   1.00
O224   O     0.25632   0.24415   0.59658   0.00000  Uiso   1.00
N225   N     0.07387   0.46715   0.63771   0.00000  Uiso   1.00
N226   N     0.81799   0.37394   0.04041   0.00000  Uiso   1.00
N227   N     0.07472   0.28152   0.63660   0.00000  Uiso   1.00
N228   N     0.36781   0.46716   0.66655   0.00000  Uiso   1.00
N229   N     0.11192   0.37394   0.06926   0.00000  Uiso   1.00
N230   N     0.36865   0.28153   0.66544   0.00000  Uiso   1.00
C231   C     0.96301   0.87421   0.26899   0.00000  Uiso   1.00
C232   C     0.06540   0.89982   0.23985   0.00000  Uiso   1.00
C233   C     0.98776   0.92136   0.19929   0.00000  Uiso   1.00
C234   C     0.10464   0.94293   0.17778   0.00000  Uiso   1.00
C235   C     0.23505   0.98270   0.12975   0.00000  Uiso   1.00
C236   C     0.99488   0.87414   0.35084   0.00000  Uiso   1.00
C237   C     0.85793   0.87407   0.40360   0.00000  Uiso   1.00
C238   C     0.91546   0.87401   0.47552   0.00000  Uiso   1.00
C239   C     0.93637   0.87389   0.59981   0.00000  Uiso   1.00
C240   C     0.06564   0.84867   0.23954   0.00000  Uiso   1.00
C241   C     0.98818   0.82719   0.19873   0.00000  Uiso   1.00
C242   C     0.10527   0.80568   0.17696   0.00000  Uiso   1.00
C243   C     0.23604   0.76602   0.12844   0.00000  Uiso   1.00
C244   C     0.30868   0.87421   0.30292   0.00000  Uiso   1.00
C245   C     0.25316   0.89982   0.25828   0.00000  Uiso   1.00
C246   C     0.37020   0.92136   0.23682   0.00000  Uiso   1.00
C247   C     0.29274   0.94293   0.19623   0.00000  Uiso   1.00
C248   C     0.18262   0.87414   0.36927   0.00000  Uiso   1.00
C249   C     0.24037   0.87408   0.44113   0.00000  Uiso   1.00
C250   C     0.10355   0.87402   0.49398   0.00000  Uiso   1.00
C251   C     0.25339   0.84867   0.25797   0.00000  Uiso   1.00
C252   C     0.37062   0.82720   0.23626   0.00000  Uiso   1.00
C253   C     0.29336   0.80569   0.19542   0.00000  Uiso   1.00
H254   H     0.81684   0.87421   0.25465   0.00000  Uiso   1.00
H255   H     0.84244   0.92135   0.18504   0.00000  Uiso   1.00
H256   H     0.71265   0.87407   0.38932   0.00000  Uiso   1.00
H257   H     0.84288   0.82719   0.18448   0.00000  Uiso   1.00
H258   H     0.95362   0.97362   0.11602   0.00000  Uiso   1.00
H259   H     0.67993   0.87392   0.54675   0.00000  Uiso   1.00
H260   H     0.95454   0.77507   0.11480   0.00000  Uiso   1.00
H261   H     0.45486   0.87422   0.31727   0.00000  Uiso   1.00
H262   H     0.51549   0.92136   0.25109   0.00000  Uiso   1.00
H263   H     0.38568   0.87408   0.45537   0.00000  Uiso   1.00
H264   H     0.51591   0.82720   0.25053   0.00000  Uiso   1.00
H265   H     0.49988   0.97363   0.16963   0.00000  Uiso   1.00
H266   H     0.22619   0.87393   0.60036   0.00000  Uiso   1.00
H267   H     0.50080   0.77508   0.16841   0.00000  Uiso   1.00
O268   O     0.25510   0.00465   0.09818   0.00000  Uiso   1.00
O269   O     0.89603   0.87383   0.66328   0.00000  Uiso   1.00
O270   O     0.25632   0.74415   0.09658   0.00000  Uiso   1.00
N271   N     0.07387   0.96715   0.13771   0.00000  Uiso   1.00
N272   N     0.81799   0.87394   0.54041   0.00000  Uiso   1.00
N273   N     0.07472   0.78152   0.13660   0.00000  Uiso   1.00
N274   N     0.36781   0.96716   0.16655   0.00000  Uiso   1.00
N275   N     0.11192   0.87394   0.56926   0.00000  Uiso   1.00
N276   N     0.36865   0.78153   0.16544   0.00000  Uiso   1.00
C277   C     0.03699   0.62579   0.76899   0.00000  Uiso   1.00
C278   C     0.93460   0.60018   0.73985   0.00000  Uiso   1.00
C279   C     0.01224   0.57864   0.69929   0.00000  Uiso   1.00
C280   C     0.89536   0.55707   0.67778   0.00000  Uiso   1.00
C281   C     0.76495   0.51730   0.62975   0.00000  Uiso   1.00
C282   C     0.00512   0.62586   0.85084   0.00000  Uiso   1.00
C283   C     0.14207   0.62593   0.90360   0.00000  Uiso   1.00
C284   C     0.08454   0.62599   0.97552   0.00000  Uiso   1.00
C285   C     0.06363   0.62611   0.09981   0.00000  Uiso   1.00
C286   C     0.93436   0.65133   0.73954   0.00000  Uiso   1.00
C287   C     0.01182   0.67281   0.69873   0.00000  Uiso   1.00
C288   C     0.89473   0.69432   0.67696   0.00000  Uiso   1.00
C289   C     0.76396   0.73398   0.62844   0.00000  Uiso   1.00
C290   C     0.69132   0.62579   0.80292   0.00000  Uiso   1.00
C291   C     0.74684   0.60018   0.75828   0.00000  Uiso   1.00
C292   C     0.62980   0.57864   0.73682   0.00000  Uiso   1.00
C293   C     0.70726   0.55707   0.69623   0.00000  Uiso   1.00
C294   C     0.81738   0.62586   0.86927   0.00000  Uiso   1.00
C295   C     0.75963   0.62592   0.94113   0.00000  Uiso   1.00
C296   C     0.89645   0.62598   0.99398   0.00000  Uiso   1.00
C297   C     0.74661   0.65133   0.75797   0.00000  Uiso   1.00
C298   C     0.62938   0.67280   0.73626   0.00000  Uiso   1.00
C299   C     0.70664   0.69431   0.69542   0.00000  Uiso   1.00
H300   H     0.18316   0.62579   0.75465   0.00000  Uiso   1.00
H301   H     0.15756   0.57865   0.68504   0.00000  Uiso   1.00
H302   H     0.28735   0.62593   0.88932   0.00000  Uiso   1.00
H303   H     0.15712   0.67281   0.68448   0.00000  Uiso   1.00
H304   H     0.04638   0.52638   0.61602   0.00000  Uiso   1.00
H305   H     0.32007   0.62608   0.04675   0.00000  Uiso   1.00
H306   H     0.04546   0.72493   0.61480   0.00000  Uiso   1.00
H307   H     0.54514   0.62578   0.81727   0.00000  Uiso   1.00
H308   H     0.48451   0.57864   0.75109   0.00000  Uiso   1.00
H309   H     0.61432   0.62592   0.95537   0.00000  Uiso   1.00
H310   H     0.48409   0.67280   0.75053   0.00000  Uiso   1.00
H311   H     0.50012   0.52637   0.66963   0.00000  Uiso   1.00
H312   H     0.77381   0.62607   0.10036   0.00000  Uiso   1.00
H313   H     0.49920   0.72492   0.66841   0.00000  Uiso   1.00
O314   O     0.74490   0.49535   0.59818   0.00000  Uiso   1.00
O315   O     0.10397   0.62617   0.16328   0.00000  Uiso   1.00
O316   O     0.74368   0.75585   0.59658   0.00000  Uiso   1.00
N317   N     0.92613   0.53285   0.63771   0.00000  Uiso   1.00
N318   N     0.18201   0.62606   0.04041   0.00000  Uiso   1.00
N319   N     0.92528   0.71848   0.63660   0.00000  Uiso   1.00
N320   N     0.63219   0.53284   0.66655   0.00000  Uiso   1.00
N321   N     0.88808   0.62606   0.06926   0.00000  Uiso   1.00
N322   N     0.63135   0.71847   0.66544   0.00000  Uiso   1.00
C323   C     0.03699   0.12579   0.26899   0.00000  Uiso   1.00
C324   C     0.93460   0.10018   0.23985   0.00000  Uiso   1.00
C325   C     0.01224   0.07864   0.19929   0.00000  Uiso   1.00
C326   C     0.89536   0.05707   0.17778   0.00000  Uiso   1.00
C327   C     0.76495   0.01730   0.12975   0.00000  Uiso   1.00
C328   C     0.00512   0.12586   0.35084   0.00000  Uiso   1.00
C329   C     0.14207   0.12593   0.40360   0.00000  Uiso   1.00
C330   C     0.08454   0.12599   0.47552   0.00000  Uiso   1.00
C331   C     0.06363   0.12611   0.59981   0.00000  Uiso   1.00
C332   C     0.93436   0.15133   0.23954   0.00000  Uiso   1.00
C333   C     0.01182   0.17281   0.19873   0.00000  Uiso   1.00
C334   C     0.89473   0.19432   0.17696   0.00000  Uiso   1.00
C335   C     0.76396   0.23398   0.12844   0.00000  Uiso   1.00
C336   C     0.69132   0.12579   0.30292   0.00000  Uiso   1.00
C337   C     0.74684   0.10018   0.25828   0.00000  Uiso   1.00
C338   C     0.62980   0.07864   0.23682   0.00000  Uiso   1.00
C339   C     0.70726   0.05707   0.19623   0.00000  Uiso   1.00
C340   C     0.81738   0.12586   0.36927   0.00000  Uiso   1.00
C341   C     0.75963   0.12592   0.44113   0.00000  Uiso   1.00
C342   C     0.89645   0.12598   0.49398   0.00000  Uiso   1.00
C343   C     0.74661   0.15133   0.25797   0.00000  Uiso   1.00
C344   C     0.62938   0.17280   0.23626   0.00000  Uiso   1.00
C345   C     0.70664   0.19431   0.19542   0.00000  Uiso   1.00
H346   H     0.18316   0.12579   0.25465   0.00000  Uiso   1.00
H347   H     0.15756   0.07865   0.18504   0.00000  Uiso   1.00
H348   H     0.28735   0.12593   0.38932   0.00000  Uiso   1.00
H349   H     0.15712   0.17281   0.18448   0.00000  Uiso   1.00
H350   H     0.04638   0.02638   0.11602   0.00000  Uiso   1.00
H351   H     0.32007   0.12608   0.54675   0.00000  Uiso   1.00
H352   H     0.04546   0.22493   0.11480   0.00000  Uiso   1.00
H353   H     0.54514   0.12578   0.31727   0.00000  Uiso   1.00
H354   H     0.48451   0.07864   0.25109   0.00000  Uiso   1.00
H355   H     0.61432   0.12592   0.45537   0.00000  Uiso   1.00
H356   H     0.48409   0.17280   0.25053   0.00000  Uiso   1.00
H357   H     0.50012   0.02637   0.16963   0.00000  Uiso   1.00
H358   H     0.77381   0.12607   0.60036   0.00000  Uiso   1.00
H359   H     0.49920   0.22492   0.16841   0.00000  Uiso   1.00
O360   O     0.74490   0.99535   0.09818   0.00000  Uiso   1.00
O361   O     0.10397   0.12617   0.66328   0.00000  Uiso   1.00
O362   O     0.74368   0.25585   0.09658   0.00000  Uiso   1.00
N363   N     0.92613   0.03285   0.13771   0.00000  Uiso   1.00
N364   N     0.18201   0.12606   0.54041   0.00000  Uiso   1.00
N365   N     0.92528   0.21848   0.13660   0.00000  Uiso   1.00
N366   N     0.63219   0.03284   0.16655   0.00000  Uiso   1.00
N367   N     0.88808   0.12606   0.56926   0.00000  Uiso   1.00
N368   N     0.63135   0.21847   0.16544   0.00000  Uiso   1.00
