data_job_00859
_audit_creation_date              2018-12-19
_audit_creation_method            'Materials Studio'
_symmetry_space_group_name_H-M    'P1'
_symmetry_Int_Tables_number       1
_symmetry_cell_setting            triclinic
loop_
_symmetry_equiv_pos_as_xyz
  x,y,z
_cell_length_a                    13.7347
_cell_length_b                    12.4823
_cell_length_c                    27.1123
_cell_angle_alpha                 90.0000
_cell_angle_beta                  90.0000
_cell_angle_gamma                 90.0000
loop_
_atom_site_label
_atom_site_type_symbol
_atom_site_fract_x
_atom_site_fract_y
_atom_site_fract_z
_atom_site_U_iso_or_equiv
_atom_site_adp_type
_atom_site_occupancy
C1     C     0.48210   0.46182   0.32331   0.00000  Uiso   1.00
C2     C     0.51439   0.37934   0.36144   0.00000  Uiso   1.00
C3     C     0.56028   0.28277   0.35129   0.00000  Uiso   1.00
C4     C     0.58396   0.21844   0.39130   0.00000  Uiso   1.00
C5     C     0.63741   0.08565   0.44315   0.00000  Uiso   1.00
C6     C     0.53139   0.56669   0.33777   0.00000  Uiso   1.00
C7     C     0.59155   0.62765   0.30771   0.00000  Uiso   1.00
C8     C     0.62953   0.72105   0.32780   0.00000  Uiso   1.00
C9     C     0.70931   0.87916   0.34288   0.00000  Uiso   1.00
C10    C     0.37344   0.47882   0.33179   0.00000  Uiso   1.00
C11    C     0.30081   0.46593   0.29670   0.00000  Uiso   1.00
C12    C     0.20581   0.48537   0.31175   0.00000  Uiso   1.00
C13    C     0.04035   0.50705   0.31756   0.00000  Uiso   1.00
C14    C     0.44255   0.51929   0.41243   0.00000  Uiso   1.00
C15    C     0.49291   0.41056   0.40985   0.00000  Uiso   1.00
C16    C     0.51652   0.34636   0.44989   0.00000  Uiso   1.00
C17    C     0.56244   0.24971   0.43980   0.00000  Uiso   1.00
C18    C     0.50991   0.59791   0.38617   0.00000  Uiso   1.00
C19    C     0.54780   0.69124   0.40631   0.00000  Uiso   1.00
C20    C     0.60801   0.75232   0.37629   0.00000  Uiso   1.00
C21    C     0.35196   0.51004   0.38020   0.00000  Uiso   1.00
C22    C     0.25706   0.52951   0.39530   0.00000  Uiso   1.00
C23    C     0.18429   0.51665   0.36025   0.00000  Uiso   1.00
H24    H     0.49883   0.43753   0.28562   0.00000  Uiso   1.00
H25    H     0.57690   0.25865   0.31382   0.00000  Uiso   1.00
H26    H     0.60816   0.60348   0.27025   0.00000  Uiso   1.00
H27    H     0.31746   0.44178   0.25925   0.00000  Uiso   1.00
H28    H     0.65401   0.07412   0.36644   0.00000  Uiso   1.00
H29    H     0.71990   0.80123   0.27456   0.00000  Uiso   1.00
H30    H     0.10690   0.46026   0.25135   0.00000  Uiso   1.00
H31    H     0.42583   0.54360   0.45011   0.00000  Uiso   1.00
H32    H     0.49989   0.37053   0.48734   0.00000  Uiso   1.00
H33    H     0.53115   0.71537   0.44377   0.00000  Uiso   1.00
H34    H     0.24046   0.55367   0.43276   0.00000  Uiso   1.00
H35    H     0.59152   0.16493   0.50727   0.00000  Uiso   1.00
H36    H     0.65740   0.89205   0.41539   0.00000  Uiso   1.00
H37    H     0.04441   0.55107   0.39219   0.00000  Uiso   1.00
O38    O     0.67283   0.00378   0.45838   0.00000  Uiso   1.00
O39    O     0.75925   0.95774   0.33783   0.00000  Uiso   1.00
O40    O     0.95502   0.51038   0.30739   0.00000  Uiso   1.00
N41    N     0.62912   0.11923   0.39447   0.00000  Uiso   1.00
N42    N     0.69073   0.79903   0.30857   0.00000  Uiso   1.00
N43    N     0.11764   0.48027   0.28687   0.00000  Uiso   1.00
N44    N     0.59549   0.16810   0.47025   0.00000  Uiso   1.00
N45    N     0.65710   0.84790   0.38436   0.00000  Uiso   1.00
N46    N     0.08401   0.52914   0.36266   0.00000  Uiso   1.00
C47    C     0.01790   0.03818   0.82331   0.00000  Uiso   1.00
C48    C     0.98561   0.12066   0.86144   0.00000  Uiso   1.00
C49    C     0.93972   0.21723   0.85129   0.00000  Uiso   1.00
C50    C     0.91604   0.28156   0.89130   0.00000  Uiso   1.00
C51    C     0.86259   0.41435   0.94315   0.00000  Uiso   1.00
C52    C     0.96861   0.93331   0.83777   0.00000  Uiso   1.00
C53    C     0.90845   0.87235   0.80771   0.00000  Uiso   1.00
C54    C     0.87047   0.77895   0.82780   0.00000  Uiso   1.00
C55    C     0.79069   0.62084   0.84288   0.00000  Uiso   1.00
C56    C     0.12656   0.02118   0.83179   0.00000  Uiso   1.00
C57    C     0.19919   0.03407   0.79670   0.00000  Uiso   1.00
C58    C     0.29419   0.01463   0.81175   0.00000  Uiso   1.00
C59    C     0.45965   0.99295   0.81756   0.00000  Uiso   1.00
C60    C     0.05745   0.98071   0.91243   0.00000  Uiso   1.00
C61    C     0.00709   0.08944   0.90985   0.00000  Uiso   1.00
C62    C     0.98348   0.15364   0.94989   0.00000  Uiso   1.00
C63    C     0.93756   0.25029   0.93980   0.00000  Uiso   1.00
C64    C     0.99009   0.90209   0.88617   0.00000  Uiso   1.00
C65    C     0.95220   0.80876   0.90631   0.00000  Uiso   1.00
C66    C     0.89199   0.74768   0.87629   0.00000  Uiso   1.00
C67    C     0.14804   0.98996   0.88020   0.00000  Uiso   1.00
C68    C     0.24294   0.97049   0.89530   0.00000  Uiso   1.00
C69    C     0.31571   0.98335   0.86025   0.00000  Uiso   1.00
H70    H     0.00117   0.06247   0.78562   0.00000  Uiso   1.00
H71    H     0.92310   0.24135   0.81382   0.00000  Uiso   1.00
H72    H     0.89184   0.89652   0.77025   0.00000  Uiso   1.00
H73    H     0.18254   0.05822   0.75925   0.00000  Uiso   1.00
H74    H     0.84599   0.42588   0.86644   0.00000  Uiso   1.00
H75    H     0.78010   0.69877   0.77456   0.00000  Uiso   1.00
H76    H     0.39310   0.03974   0.75135   0.00000  Uiso   1.00
H77    H     0.07417   0.95640   0.95011   0.00000  Uiso   1.00
H78    H     0.00011   0.12947   0.98734   0.00000  Uiso   1.00
H79    H     0.96885   0.78463   0.94377   0.00000  Uiso   1.00
H80    H     0.25954   0.94633   0.93276   0.00000  Uiso   1.00
H81    H     0.90848   0.33507   0.00727   0.00000  Uiso   1.00
H82    H     0.84260   0.60795   0.91539   0.00000  Uiso   1.00
H83    H     0.45559   0.94893   0.89219   0.00000  Uiso   1.00
O84    O     0.82717   0.49622   0.95838   0.00000  Uiso   1.00
O85    O     0.74075   0.54226   0.83783   0.00000  Uiso   1.00
O86    O     0.54498   0.98962   0.80739   0.00000  Uiso   1.00
N87    N     0.87088   0.38077   0.89447   0.00000  Uiso   1.00
N88    N     0.80927   0.70097   0.80857   0.00000  Uiso   1.00
N89    N     0.38236   0.01973   0.78687   0.00000  Uiso   1.00
N90    N     0.90451   0.33190   0.97025   0.00000  Uiso   1.00
N91    N     0.84290   0.65210   0.88436   0.00000  Uiso   1.00
N92    N     0.41599   0.97086   0.86266   0.00000  Uiso   1.00
C93    C     0.51790   0.46182   0.17669   0.00000  Uiso   1.00
C94    C     0.48561   0.37934   0.13856   0.00000  Uiso   1.00
C95    C     0.43972   0.28277   0.14871   0.00000  Uiso   1.00
C96    C     0.41604   0.21844   0.10870   0.00000  Uiso   1.00
C97    C     0.36259   0.08565   0.05685   0.00000  Uiso   1.00
C98    C     0.46861   0.56669   0.16223   0.00000  Uiso   1.00
C99    C     0.40845   0.62765   0.19229   0.00000  Uiso   1.00
C100   C     0.37047   0.72105   0.17220   0.00000  Uiso   1.00
C101   C     0.29069   0.87916   0.15712   0.00000  Uiso   1.00
C102   C     0.62656   0.47882   0.16821   0.00000  Uiso   1.00
C103   C     0.69919   0.46593   0.20330   0.00000  Uiso   1.00
C104   C     0.79419   0.48537   0.18825   0.00000  Uiso   1.00
C105   C     0.95965   0.50705   0.18244   0.00000  Uiso   1.00
C106   C     0.55745   0.51929   0.08757   0.00000  Uiso   1.00
C107   C     0.50709   0.41056   0.09015   0.00000  Uiso   1.00
C108   C     0.48348   0.34636   0.05011   0.00000  Uiso   1.00
C109   C     0.43756   0.24971   0.06020   0.00000  Uiso   1.00
C110   C     0.49009   0.59791   0.11383   0.00000  Uiso   1.00
C111   C     0.45220   0.69124   0.09369   0.00000  Uiso   1.00
C112   C     0.39199   0.75232   0.12371   0.00000  Uiso   1.00
C113   C     0.64804   0.51004   0.11980   0.00000  Uiso   1.00
C114   C     0.74294   0.52951   0.10470   0.00000  Uiso   1.00
C115   C     0.81571   0.51665   0.13975   0.00000  Uiso   1.00
H116   H     0.50117   0.43753   0.21438   0.00000  Uiso   1.00
H117   H     0.42310   0.25865   0.18618   0.00000  Uiso   1.00
H118   H     0.39184   0.60348   0.22975   0.00000  Uiso   1.00
H119   H     0.68254   0.44178   0.24075   0.00000  Uiso   1.00
H120   H     0.34599   0.07412   0.13356   0.00000  Uiso   1.00
H121   H     0.28010   0.80123   0.22544   0.00000  Uiso   1.00
H122   H     0.89310   0.46026   0.24865   0.00000  Uiso   1.00
H123   H     0.57417   0.54360   0.04989   0.00000  Uiso   1.00
H124   H     0.50011   0.37053   0.01266   0.00000  Uiso   1.00
H125   H     0.46885   0.71537   0.05623   0.00000  Uiso   1.00
H126   H     0.75954   0.55367   0.06724   0.00000  Uiso   1.00
H127   H     0.40848   0.16493   0.99273   0.00000  Uiso   1.00
H128   H     0.34260   0.89205   0.08461   0.00000  Uiso   1.00
H129   H     0.95559   0.55107   0.10781   0.00000  Uiso   1.00
O130   O     0.32717   0.00378   0.04162   0.00000  Uiso   1.00
O131   O     0.24075   0.95774   0.16217   0.00000  Uiso   1.00
O132   O     0.04498   0.51038   0.19261   0.00000  Uiso   1.00
N133   N     0.37088   0.11923   0.10553   0.00000  Uiso   1.00
N134   N     0.30927   0.79903   0.19143   0.00000  Uiso   1.00
N135   N     0.88236   0.48027   0.21313   0.00000  Uiso   1.00
N136   N     0.40451   0.16810   0.02975   0.00000  Uiso   1.00
N137   N     0.34290   0.84790   0.11564   0.00000  Uiso   1.00
N138   N     0.91599   0.52914   0.13734   0.00000  Uiso   1.00
C139   C     0.98210   0.03818   0.67669   0.00000  Uiso   1.00
C140   C     0.01439   0.12066   0.63856   0.00000  Uiso   1.00
C141   C     0.06028   0.21723   0.64871   0.00000  Uiso   1.00
C142   C     0.08396   0.28156   0.60870   0.00000  Uiso   1.00
C143   C     0.13741   0.41435   0.55685   0.00000  Uiso   1.00
C144   C     0.03139   0.93331   0.66223   0.00000  Uiso   1.00
C145   C     0.09155   0.87235   0.69229   0.00000  Uiso   1.00
C146   C     0.12953   0.77895   0.67220   0.00000  Uiso   1.00
C147   C     0.20931   0.62084   0.65712   0.00000  Uiso   1.00
C148   C     0.87344   0.02118   0.66821   0.00000  Uiso   1.00
C149   C     0.80081   0.03407   0.70330   0.00000  Uiso   1.00
C150   C     0.70581   0.01463   0.68825   0.00000  Uiso   1.00
C151   C     0.54035   0.99295   0.68244   0.00000  Uiso   1.00
C152   C     0.94255   0.98071   0.58757   0.00000  Uiso   1.00
C153   C     0.99291   0.08944   0.59015   0.00000  Uiso   1.00
C154   C     0.01652   0.15364   0.55011   0.00000  Uiso   1.00
C155   C     0.06244   0.25029   0.56020   0.00000  Uiso   1.00
C156   C     0.00991   0.90209   0.61383   0.00000  Uiso   1.00
C157   C     0.04780   0.80876   0.59369   0.00000  Uiso   1.00
C158   C     0.10801   0.74768   0.62371   0.00000  Uiso   1.00
C159   C     0.85196   0.98996   0.61980   0.00000  Uiso   1.00
C160   C     0.75706   0.97049   0.60470   0.00000  Uiso   1.00
C161   C     0.68429   0.98335   0.63975   0.00000  Uiso   1.00
H162   H     0.99883   0.06247   0.71438   0.00000  Uiso   1.00
H163   H     0.07690   0.24135   0.68618   0.00000  Uiso   1.00
H164   H     0.10816   0.89652   0.72975   0.00000  Uiso   1.00
H165   H     0.81746   0.05822   0.74075   0.00000  Uiso   1.00
H166   H     0.15401   0.42588   0.63356   0.00000  Uiso   1.00
H167   H     0.21990   0.69877   0.72544   0.00000  Uiso   1.00
H168   H     0.60690   0.03974   0.74865   0.00000  Uiso   1.00
H169   H     0.92583   0.95640   0.54989   0.00000  Uiso   1.00
H170   H     0.99989   0.12947   0.51266   0.00000  Uiso   1.00
H171   H     0.03115   0.78463   0.55623   0.00000  Uiso   1.00
H172   H     0.74046   0.94633   0.56724   0.00000  Uiso   1.00
H173   H     0.09152   0.33507   0.49273   0.00000  Uiso   1.00
H174   H     0.15740   0.60795   0.58461   0.00000  Uiso   1.00
H175   H     0.54441   0.94893   0.60781   0.00000  Uiso   1.00
O176   O     0.17283   0.49622   0.54162   0.00000  Uiso   1.00
O177   O     0.25925   0.54226   0.66217   0.00000  Uiso   1.00
O178   O     0.45502   0.98962   0.69261   0.00000  Uiso   1.00
N179   N     0.12912   0.38077   0.60553   0.00000  Uiso   1.00
N180   N     0.19073   0.70097   0.69143   0.00000  Uiso   1.00
N181   N     0.61764   0.01973   0.71313   0.00000  Uiso   1.00
N182   N     0.09549   0.33190   0.52975   0.00000  Uiso   1.00
N183   N     0.15710   0.65210   0.61564   0.00000  Uiso   1.00
N184   N     0.58401   0.97086   0.63734   0.00000  Uiso   1.00
C185   C     0.51790   0.53818   0.67669   0.00000  Uiso   1.00
C186   C     0.48561   0.62066   0.63856   0.00000  Uiso   1.00
C187   C     0.43972   0.71723   0.64871   0.00000  Uiso   1.00
C188   C     0.41604   0.78156   0.60870   0.00000  Uiso   1.00
C189   C     0.36259   0.91435   0.55685   0.00000  Uiso   1.00
C190   C     0.46861   0.43331   0.66223   0.00000  Uiso   1.00
C191   C     0.40845   0.37235   0.69229   0.00000  Uiso   1.00
C192   C     0.37047   0.27895   0.67220   0.00000  Uiso   1.00
C193   C     0.29069   0.12084   0.65712   0.00000  Uiso   1.00
C194   C     0.62656   0.52118   0.66821   0.00000  Uiso   1.00
C195   C     0.69919   0.53407   0.70330   0.00000  Uiso   1.00
C196   C     0.79419   0.51463   0.68825   0.00000  Uiso   1.00
C197   C     0.95965   0.49295   0.68244   0.00000  Uiso   1.00
C198   C     0.55745   0.48071   0.58757   0.00000  Uiso   1.00
C199   C     0.50709   0.58944   0.59015   0.00000  Uiso   1.00
C200   C     0.48348   0.65364   0.55011   0.00000  Uiso   1.00
C201   C     0.43756   0.75029   0.56020   0.00000  Uiso   1.00
C202   C     0.49009   0.40209   0.61383   0.00000  Uiso   1.00
C203   C     0.45220   0.30876   0.59369   0.00000  Uiso   1.00
C204   C     0.39199   0.24768   0.62371   0.00000  Uiso   1.00
C205   C     0.64804   0.48996   0.61980   0.00000  Uiso   1.00
C206   C     0.74294   0.47049   0.60470   0.00000  Uiso   1.00
C207   C     0.81571   0.48335   0.63975   0.00000  Uiso   1.00
H208   H     0.50117   0.56247   0.71438   0.00000  Uiso   1.00
H209   H     0.42310   0.74135   0.68618   0.00000  Uiso   1.00
H210   H     0.39184   0.39652   0.72975   0.00000  Uiso   1.00
H211   H     0.68254   0.55822   0.74075   0.00000  Uiso   1.00
H212   H     0.34599   0.92588   0.63356   0.00000  Uiso   1.00
H213   H     0.28010   0.19877   0.72544   0.00000  Uiso   1.00
H214   H     0.89310   0.53974   0.74865   0.00000  Uiso   1.00
H215   H     0.57417   0.45640   0.54989   0.00000  Uiso   1.00
H216   H     0.50011   0.62947   0.51266   0.00000  Uiso   1.00
H217   H     0.46885   0.28463   0.55623   0.00000  Uiso   1.00
H218   H     0.75954   0.44633   0.56724   0.00000  Uiso   1.00
H219   H     0.40848   0.83507   0.49273   0.00000  Uiso   1.00
H220   H     0.34260   0.10795   0.58461   0.00000  Uiso   1.00
H221   H     0.95559   0.44893   0.60781   0.00000  Uiso   1.00
O222   O     0.32717   0.99622   0.54162   0.00000  Uiso   1.00
O223   O     0.24075   0.04226   0.66217   0.00000  Uiso   1.00
O224   O     0.04498   0.48962   0.69261   0.00000  Uiso   1.00
N225   N     0.37088   0.88077   0.60553   0.00000  Uiso   1.00
N226   N     0.30927   0.20097   0.69143   0.00000  Uiso   1.00
N227   N     0.88236   0.51973   0.71313   0.00000  Uiso   1.00
N228   N     0.40451   0.83190   0.52975   0.00000  Uiso   1.00
N229   N     0.34290   0.15210   0.61564   0.00000  Uiso   1.00
N230   N     0.91599   0.47086   0.63734   0.00000  Uiso   1.00
C231   C     0.98210   0.96182   0.17669   0.00000  Uiso   1.00
C232   C     0.01439   0.87934   0.13856   0.00000  Uiso   1.00
C233   C     0.06028   0.78277   0.14871   0.00000  Uiso   1.00
C234   C     0.08396   0.71844   0.10870   0.00000  Uiso   1.00
C235   C     0.13741   0.58565   0.05685   0.00000  Uiso   1.00
C236   C     0.03139   0.06669   0.16223   0.00000  Uiso   1.00
C237   C     0.09155   0.12765   0.19229   0.00000  Uiso   1.00
C238   C     0.12953   0.22105   0.17220   0.00000  Uiso   1.00
C239   C     0.20931   0.37916   0.15712   0.00000  Uiso   1.00
C240   C     0.87344   0.97882   0.16821   0.00000  Uiso   1.00
C241   C     0.80081   0.96593   0.20330   0.00000  Uiso   1.00
C242   C     0.70581   0.98537   0.18825   0.00000  Uiso   1.00
C243   C     0.54035   0.00705   0.18244   0.00000  Uiso   1.00
C244   C     0.94255   0.01929   0.08757   0.00000  Uiso   1.00
C245   C     0.99291   0.91056   0.09015   0.00000  Uiso   1.00
C246   C     0.01652   0.84636   0.05011   0.00000  Uiso   1.00
C247   C     0.06244   0.74971   0.06020   0.00000  Uiso   1.00
C248   C     0.00991   0.09791   0.11383   0.00000  Uiso   1.00
C249   C     0.04780   0.19124   0.09369   0.00000  Uiso   1.00
C250   C     0.10801   0.25232   0.12371   0.00000  Uiso   1.00
C251   C     0.85196   0.01004   0.11980   0.00000  Uiso   1.00
C252   C     0.75706   0.02951   0.10470   0.00000  Uiso   1.00
C253   C     0.68429   0.01665   0.13975   0.00000  Uiso   1.00
H254   H     0.99883   0.93753   0.21438   0.00000  Uiso   1.00
H255   H     0.07690   0.75865   0.18618   0.00000  Uiso   1.00
H256   H     0.10816   0.10348   0.22975   0.00000  Uiso   1.00
H257   H     0.81746   0.94178   0.24075   0.00000  Uiso   1.00
H258   H     0.15401   0.57412   0.13356   0.00000  Uiso   1.00
H259   H     0.21990   0.30123   0.22544   0.00000  Uiso   1.00
H260   H     0.60690   0.96026   0.24865   0.00000  Uiso   1.00
H261   H     0.92583   0.04360   0.04989   0.00000  Uiso   1.00
H262   H     0.99989   0.87053   0.01266   0.00000  Uiso   1.00
H263   H     0.03115   0.21537   0.05623   0.00000  Uiso   1.00
H264   H     0.74046   0.05367   0.06724   0.00000  Uiso   1.00
H265   H     0.09152   0.66493   0.99273   0.00000  Uiso   1.00
H266   H     0.15740   0.39205   0.08461   0.00000  Uiso   1.00
H267   H     0.54441   0.05107   0.10781   0.00000  Uiso   1.00
O268   O     0.17283   0.50378   0.04162   0.00000  Uiso   1.00
O269   O     0.25925   0.45774   0.16217   0.00000  Uiso   1.00
O270   O     0.45502   0.01038   0.19261   0.00000  Uiso   1.00
N271   N     0.12912   0.61923   0.10553   0.00000  Uiso   1.00
N272   N     0.19073   0.29903   0.19143   0.00000  Uiso   1.00
N273   N     0.61764   0.98027   0.21313   0.00000  Uiso   1.00
N274   N     0.09549   0.66810   0.02975   0.00000  Uiso   1.00
N275   N     0.15710   0.34790   0.11564   0.00000  Uiso   1.00
N276   N     0.58401   0.02914   0.13734   0.00000  Uiso   1.00
C277   C     0.48210   0.53818   0.82331   0.00000  Uiso   1.00
C278   C     0.51439   0.62066   0.86144   0.00000  Uiso   1.00
C279   C     0.56028   0.71723   0.85129   0.00000  Uiso   1.00
C280   C     0.58396   0.78156   0.89130   0.00000  Uiso   1.00
C281   C     0.63741   0.91435   0.94315   0.00000  Uiso   1.00
C282   C     0.53139   0.43331   0.83777   0.00000  Uiso   1.00
C283   C     0.59155   0.37235   0.80771   0.00000  Uiso   1.00
C284   C     0.62953   0.27895   0.82780   0.00000  Uiso   1.00
C285   C     0.70931   0.12084   0.84288   0.00000  Uiso   1.00
C286   C     0.37344   0.52118   0.83179   0.00000  Uiso   1.00
C287   C     0.30081   0.53407   0.79670   0.00000  Uiso   1.00
C288   C     0.20581   0.51463   0.81175   0.00000  Uiso   1.00
C289   C     0.04035   0.49295   0.81756   0.00000  Uiso   1.00
C290   C     0.44255   0.48071   0.91243   0.00000  Uiso   1.00
C291   C     0.49291   0.58944   0.90985   0.00000  Uiso   1.00
C292   C     0.51652   0.65364   0.94989   0.00000  Uiso   1.00
C293   C     0.56244   0.75029   0.93980   0.00000  Uiso   1.00
C294   C     0.50991   0.40209   0.88617   0.00000  Uiso   1.00
C295   C     0.54780   0.30876   0.90631   0.00000  Uiso   1.00
C296   C     0.60801   0.24768   0.87629   0.00000  Uiso   1.00
C297   C     0.35196   0.48996   0.88020   0.00000  Uiso   1.00
C298   C     0.25706   0.47049   0.89530   0.00000  Uiso   1.00
C299   C     0.18429   0.48335   0.86025   0.00000  Uiso   1.00
H300   H     0.49883   0.56247   0.78562   0.00000  Uiso   1.00
H301   H     0.57690   0.74135   0.81382   0.00000  Uiso   1.00
H302   H     0.60816   0.39652   0.77025   0.00000  Uiso   1.00
H303   H     0.31746   0.55822   0.75925   0.00000  Uiso   1.00
H304   H     0.65401   0.92588   0.86644   0.00000  Uiso   1.00
H305   H     0.71990   0.19877   0.77456   0.00000  Uiso   1.00
H306   H     0.10690   0.53974   0.75135   0.00000  Uiso   1.00
H307   H     0.42583   0.45640   0.95011   0.00000  Uiso   1.00
H308   H     0.49989   0.62947   0.98734   0.00000  Uiso   1.00
H309   H     0.53115   0.28463   0.94377   0.00000  Uiso   1.00
H310   H     0.24046   0.44633   0.93276   0.00000  Uiso   1.00
H311   H     0.59152   0.83507   0.00727   0.00000  Uiso   1.00
H312   H     0.65740   0.10795   0.91539   0.00000  Uiso   1.00
H313   H     0.04441   0.44893   0.89219   0.00000  Uiso   1.00
O314   O     0.67283   0.99622   0.95838   0.00000  Uiso   1.00
O315   O     0.75925   0.04226   0.83783   0.00000  Uiso   1.00
O316   O     0.95502   0.48962   0.80739   0.00000  Uiso   1.00
N317   N     0.62912   0.88077   0.89447   0.00000  Uiso   1.00
N318   N     0.69073   0.20097   0.80857   0.00000  Uiso   1.00
N319   N     0.11764   0.51973   0.78687   0.00000  Uiso   1.00
N320   N     0.59549   0.83190   0.97025   0.00000  Uiso   1.00
N321   N     0.65710   0.15210   0.88436   0.00000  Uiso   1.00
N322   N     0.08401   0.47086   0.86266   0.00000  Uiso   1.00
C323   C     0.01790   0.96182   0.32331   0.00000  Uiso   1.00
C324   C     0.98561   0.87934   0.36144   0.00000  Uiso   1.00
C325   C     0.93972   0.78277   0.35129   0.00000  Uiso   1.00
C326   C     0.91604   0.71844   0.39130   0.00000  Uiso   1.00
C327   C     0.86259   0.58565   0.44315   0.00000  Uiso   1.00
C328   C     0.96861   0.06669   0.33777   0.00000  Uiso   1.00
C329   C     0.90845   0.12765   0.30771   0.00000  Uiso   1.00
C330   C     0.87047   0.22105   0.32780   0.00000  Uiso   1.00
C331   C     0.79069   0.37916   0.34288   0.00000  Uiso   1.00
C332   C     0.12656   0.97882   0.33179   0.00000  Uiso   1.00
C333   C     0.19919   0.96593   0.29670   0.00000  Uiso   1.00
C334   C     0.29419   0.98537   0.31175   0.00000  Uiso   1.00
C335   C     0.45965   0.00705   0.31756   0.00000  Uiso   1.00
C336   C     0.05745   0.01929   0.41243   0.00000  Uiso   1.00
C337   C     0.00709   0.91056   0.40985   0.00000  Uiso   1.00
C338   C     0.98348   0.84636   0.44989   0.00000  Uiso   1.00
C339   C     0.93756   0.74971   0.43980   0.00000  Uiso   1.00
C340   C     0.99009   0.09791   0.38617   0.00000  Uiso   1.00
C341   C     0.95220   0.19124   0.40631   0.00000  Uiso   1.00
C342   C     0.89199   0.25232   0.37629   0.00000  Uiso   1.00
C343   C     0.14804   0.01004   0.38020   0.00000  Uiso   1.00
C344   C     0.24294   0.02951   0.39530   0.00000  Uiso   1.00
C345   C     0.31571   0.01665   0.36025   0.00000  Uiso   1.00
H346   H     0.00117   0.93753   0.28562   0.00000  Uiso   1.00
H347   H     0.92310   0.75865   0.31382   0.00000  Uiso   1.00
H348   H     0.89184   0.10348   0.27025   0.00000  Uiso   1.00
H349   H     0.18254   0.94178   0.25925   0.00000  Uiso   1.00
H350   H     0.84599   0.57412   0.36644   0.00000  Uiso   1.00
H351   H     0.78010   0.30123   0.27456   0.00000  Uiso   1.00
H352   H     0.39310   0.96026   0.25135   0.00000  Uiso   1.00
H353   H     0.07417   0.04360   0.45011   0.00000  Uiso   1.00
H354   H     0.00011   0.87053   0.48734   0.00000  Uiso   1.00
H355   H     0.96885   0.21537   0.44377   0.00000  Uiso   1.00
H356   H     0.25954   0.05367   0.43276   0.00000  Uiso   1.00
H357   H     0.90848   0.66493   0.50727   0.00000  Uiso   1.00
H358   H     0.84260   0.39205   0.41539   0.00000  Uiso   1.00
H359   H     0.45559   0.05107   0.39219   0.00000  Uiso   1.00
O360   O     0.82717   0.50378   0.45838   0.00000  Uiso   1.00
O361   O     0.74075   0.45774   0.33783   0.00000  Uiso   1.00
O362   O     0.54498   0.01038   0.30739   0.00000  Uiso   1.00
N363   N     0.87088   0.61923   0.39447   0.00000  Uiso   1.00
N364   N     0.80927   0.29903   0.30857   0.00000  Uiso   1.00
N365   N     0.38236   0.98027   0.28687   0.00000  Uiso   1.00
N366   N     0.90451   0.66810   0.47025   0.00000  Uiso   1.00
N367   N     0.84290   0.34790   0.38436   0.00000  Uiso   1.00
N368   N     0.41599   0.02914   0.36266   0.00000  Uiso   1.00
