data_job_03158
_audit_creation_date              2018-12-19
_audit_creation_method            'Materials Studio'
_symmetry_space_group_name_H-M    'P1'
_symmetry_Int_Tables_number       1
_symmetry_cell_setting            triclinic
loop_
_symmetry_equiv_pos_as_xyz
  x,y,z
_cell_length_a                    7.1422
_cell_length_b                    23.1544
_cell_length_c                    32.5883
_cell_angle_alpha                 90.0000
_cell_angle_beta                  90.0000
_cell_angle_gamma                 90.0000
loop_
_atom_site_label
_atom_site_type_symbol
_atom_site_fract_x
_atom_site_fract_y
_atom_site_fract_z
_atom_site_U_iso_or_equiv
_atom_site_adp_type
_atom_site_occupancy
C1     C     0.42047   0.40500   0.08991   0.00000  Uiso   1.00
C2     C     0.49901   0.45789   0.11185   0.00000  Uiso   1.00
C3     C     0.40271   0.50884   0.11945   0.00000  Uiso   1.00
C4     C     0.49927   0.55216   0.13994   0.00000  Uiso   1.00
C5     C     0.59293   0.63543   0.17209   0.00000  Uiso   1.00
C6     C     0.55222   0.39319   0.05406   0.00000  Uiso   1.00
C7     C     0.50065   0.38972   0.01307   0.00000  Uiso   1.00
C8     C     0.64200   0.37857   0.98492   0.00000  Uiso   1.00
C9     C     0.81824   0.36134   0.92735   0.00000  Uiso   1.00
C10    C     0.44506   0.35455   0.11951   0.00000  Uiso   1.00
C11    C     0.30341   0.31859   0.13355   0.00000  Uiso   1.00
C12    C     0.35455   0.27490   0.16049   0.00000  Uiso   1.00
C13    C     0.36442   0.19769   0.20455   0.00000  Uiso   1.00
C14    C     0.76320   0.39133   0.11279   0.00000  Uiso   1.00
C15    C     0.68517   0.45047   0.12427   0.00000  Uiso   1.00
C16    C     0.78190   0.49372   0.14476   0.00000  Uiso   1.00
C17    C     0.68576   0.54472   0.15239   0.00000  Uiso   1.00
C18    C     0.73837   0.38576   0.06648   0.00000  Uiso   1.00
C19    C     0.87983   0.37461   0.03839   0.00000  Uiso   1.00
C20    C     0.82849   0.37113   0.99737   0.00000  Uiso   1.00
C21    C     0.63122   0.34713   0.13194   0.00000  Uiso   1.00
C22    C     0.68259   0.30348   0.15886   0.00000  Uiso   1.00
C23    C     0.54104   0.26747   0.17294   0.00000  Uiso   1.00
H24    H     0.27555   0.41077   0.08024   0.00000  Uiso   1.00
H25    H     0.25865   0.51456   0.10982   0.00000  Uiso   1.00
H26    H     0.35658   0.39546   0.00347   0.00000  Uiso   1.00
H27    H     0.15937   0.32435   0.12392   0.00000  Uiso   1.00
H28    H     0.32204   0.62637   0.14809   0.00000  Uiso   1.00
H29    H     0.52850   0.37522   0.92383   0.00000  Uiso   1.00
H30    H     0.11265   0.22526   0.17784   0.00000  Uiso   1.00
H31    H     0.90813   0.38555   0.12247   0.00000  Uiso   1.00
H32    H     0.92595   0.48796   0.15437   0.00000  Uiso   1.00
H33    H     0.02387   0.36886   0.04801   0.00000  Uiso   1.00
H34    H     0.82666   0.29775   0.16847   0.00000  Uiso   1.00
H35    H     0.86365   0.60478   0.18424   0.00000  Uiso   1.00
H36    H     0.07010   0.35363   0.95999   0.00000  Uiso   1.00
H37    H     0.65425   0.20367   0.21400   0.00000  Uiso   1.00
O38    O     0.59318   0.68341   0.18638   0.00000  Uiso   1.00
O39    O     0.86403   0.35389   0.89217   0.00000  Uiso   1.00
O40    O     0.31844   0.15716   0.22542   0.00000  Uiso   1.00
N41    N     0.44705   0.60723   0.15223   0.00000  Uiso   1.00
N42    N     0.64008   0.37243   0.94256   0.00000  Uiso   1.00
N43    N     0.25130   0.23222   0.18003   0.00000  Uiso   1.00
N44    N     0.73849   0.59562   0.17168   0.00000  Uiso   1.00
N45    N     0.93151   0.36081   0.96202   0.00000  Uiso   1.00
N46    N     0.54274   0.22061   0.19948   0.00000  Uiso   1.00
C47    C     0.07953   0.09500   0.58991   0.00000  Uiso   1.00
C48    C     0.00099   0.04211   0.61185   0.00000  Uiso   1.00
C49    C     0.09729   0.99116   0.61945   0.00000  Uiso   1.00
C50    C     0.00073   0.94784   0.63994   0.00000  Uiso   1.00
C51    C     0.90707   0.86457   0.67209   0.00000  Uiso   1.00
C52    C     0.94778   0.10681   0.55406   0.00000  Uiso   1.00
C53    C     0.99935   0.11028   0.51307   0.00000  Uiso   1.00
C54    C     0.85800   0.12143   0.48492   0.00000  Uiso   1.00
C55    C     0.68176   0.13866   0.42735   0.00000  Uiso   1.00
C56    C     0.05494   0.14545   0.61951   0.00000  Uiso   1.00
C57    C     0.19659   0.18141   0.63355   0.00000  Uiso   1.00
C58    C     0.14545   0.22510   0.66049   0.00000  Uiso   1.00
C59    C     0.13558   0.30231   0.70455   0.00000  Uiso   1.00
C60    C     0.73680   0.10867   0.61279   0.00000  Uiso   1.00
C61    C     0.81483   0.04953   0.62427   0.00000  Uiso   1.00
C62    C     0.71810   0.00628   0.64476   0.00000  Uiso   1.00
C63    C     0.81424   0.95528   0.65239   0.00000  Uiso   1.00
C64    C     0.76163   0.11424   0.56648   0.00000  Uiso   1.00
C65    C     0.62017   0.12539   0.53839   0.00000  Uiso   1.00
C66    C     0.67151   0.12887   0.49737   0.00000  Uiso   1.00
C67    C     0.86878   0.15287   0.63194   0.00000  Uiso   1.00
C68    C     0.81741   0.19652   0.65886   0.00000  Uiso   1.00
C69    C     0.95896   0.23253   0.67294   0.00000  Uiso   1.00
H70    H     0.22445   0.08923   0.58024   0.00000  Uiso   1.00
H71    H     0.24135   0.98544   0.60982   0.00000  Uiso   1.00
H72    H     0.14342   0.10454   0.50347   0.00000  Uiso   1.00
H73    H     0.34063   0.17565   0.62392   0.00000  Uiso   1.00
H74    H     0.17796   0.87363   0.64809   0.00000  Uiso   1.00
H75    H     0.97150   0.12478   0.42383   0.00000  Uiso   1.00
H76    H     0.38735   0.27474   0.67784   0.00000  Uiso   1.00
H77    H     0.59187   0.11445   0.62247   0.00000  Uiso   1.00
H78    H     0.57405   0.01204   0.65437   0.00000  Uiso   1.00
H79    H     0.47613   0.13114   0.54801   0.00000  Uiso   1.00
H80    H     0.67334   0.20225   0.66847   0.00000  Uiso   1.00
H81    H     0.63635   0.89522   0.68424   0.00000  Uiso   1.00
H82    H     0.42990   0.14637   0.45999   0.00000  Uiso   1.00
H83    H     0.84575   0.29633   0.71400   0.00000  Uiso   1.00
O84    O     0.90682   0.81659   0.68638   0.00000  Uiso   1.00
O85    O     0.63597   0.14611   0.39217   0.00000  Uiso   1.00
O86    O     0.18156   0.34284   0.72542   0.00000  Uiso   1.00
N87    N     0.05295   0.89277   0.65223   0.00000  Uiso   1.00
N88    N     0.85992   0.12757   0.44256   0.00000  Uiso   1.00
N89    N     0.24870   0.26778   0.68003   0.00000  Uiso   1.00
N90    N     0.76151   0.90438   0.67168   0.00000  Uiso   1.00
N91    N     0.56849   0.13919   0.46202   0.00000  Uiso   1.00
N92    N     0.95726   0.27939   0.69948   0.00000  Uiso   1.00
C93    C     0.57953   0.40500   0.41009   0.00000  Uiso   1.00
C94    C     0.50099   0.45789   0.38815   0.00000  Uiso   1.00
C95    C     0.59729   0.50884   0.38055   0.00000  Uiso   1.00
C96    C     0.50073   0.55216   0.36006   0.00000  Uiso   1.00
C97    C     0.40707   0.63543   0.32791   0.00000  Uiso   1.00
C98    C     0.44778   0.39319   0.44594   0.00000  Uiso   1.00
C99    C     0.49935   0.38972   0.48693   0.00000  Uiso   1.00
C100   C     0.35800   0.37857   0.51508   0.00000  Uiso   1.00
C101   C     0.18176   0.36134   0.57265   0.00000  Uiso   1.00
C102   C     0.55494   0.35455   0.38049   0.00000  Uiso   1.00
C103   C     0.69659   0.31859   0.36645   0.00000  Uiso   1.00
C104   C     0.64545   0.27490   0.33951   0.00000  Uiso   1.00
C105   C     0.63558   0.19769   0.29545   0.00000  Uiso   1.00
C106   C     0.23680   0.39133   0.38721   0.00000  Uiso   1.00
C107   C     0.31483   0.45047   0.37573   0.00000  Uiso   1.00
C108   C     0.21810   0.49372   0.35524   0.00000  Uiso   1.00
C109   C     0.31424   0.54472   0.34761   0.00000  Uiso   1.00
C110   C     0.26163   0.38576   0.43352   0.00000  Uiso   1.00
C111   C     0.12017   0.37461   0.46161   0.00000  Uiso   1.00
C112   C     0.17151   0.37113   0.50263   0.00000  Uiso   1.00
C113   C     0.36878   0.34713   0.36806   0.00000  Uiso   1.00
C114   C     0.31741   0.30348   0.34114   0.00000  Uiso   1.00
C115   C     0.45896   0.26747   0.32706   0.00000  Uiso   1.00
H116   H     0.72445   0.41077   0.41976   0.00000  Uiso   1.00
H117   H     0.74135   0.51456   0.39018   0.00000  Uiso   1.00
H118   H     0.64342   0.39546   0.49653   0.00000  Uiso   1.00
H119   H     0.84063   0.32435   0.37608   0.00000  Uiso   1.00
H120   H     0.67796   0.62637   0.35191   0.00000  Uiso   1.00
H121   H     0.47150   0.37522   0.57617   0.00000  Uiso   1.00
H122   H     0.88735   0.22526   0.32216   0.00000  Uiso   1.00
H123   H     0.09187   0.38555   0.37753   0.00000  Uiso   1.00
H124   H     0.07405   0.48796   0.34563   0.00000  Uiso   1.00
H125   H     0.97613   0.36886   0.45199   0.00000  Uiso   1.00
H126   H     0.17334   0.29775   0.33153   0.00000  Uiso   1.00
H127   H     0.13635   0.60478   0.31576   0.00000  Uiso   1.00
H128   H     0.92990   0.35363   0.54001   0.00000  Uiso   1.00
H129   H     0.34575   0.20367   0.28600   0.00000  Uiso   1.00
O130   O     0.40682   0.68341   0.31362   0.00000  Uiso   1.00
O131   O     0.13597   0.35389   0.60783   0.00000  Uiso   1.00
O132   O     0.68156   0.15716   0.27458   0.00000  Uiso   1.00
N133   N     0.55295   0.60723   0.34777   0.00000  Uiso   1.00
N134   N     0.35992   0.37243   0.55744   0.00000  Uiso   1.00
N135   N     0.74870   0.23222   0.31997   0.00000  Uiso   1.00
N136   N     0.26151   0.59562   0.32832   0.00000  Uiso   1.00
N137   N     0.06849   0.36081   0.53798   0.00000  Uiso   1.00
N138   N     0.45726   0.22061   0.30052   0.00000  Uiso   1.00
C139   C     0.92047   0.09500   0.91009   0.00000  Uiso   1.00
C140   C     0.99901   0.04211   0.88815   0.00000  Uiso   1.00
C141   C     0.90271   0.99116   0.88055   0.00000  Uiso   1.00
C142   C     0.99927   0.94784   0.86006   0.00000  Uiso   1.00
C143   C     0.09293   0.86457   0.82791   0.00000  Uiso   1.00
C144   C     0.05222   0.10681   0.94594   0.00000  Uiso   1.00
C145   C     0.00065   0.11028   0.98693   0.00000  Uiso   1.00
C146   C     0.14200   0.12143   0.01508   0.00000  Uiso   1.00
C147   C     0.31824   0.13866   0.07265   0.00000  Uiso   1.00
C148   C     0.94506   0.14545   0.88049   0.00000  Uiso   1.00
C149   C     0.80341   0.18141   0.86645   0.00000  Uiso   1.00
C150   C     0.85455   0.22510   0.83951   0.00000  Uiso   1.00
C151   C     0.86442   0.30231   0.79545   0.00000  Uiso   1.00
C152   C     0.26320   0.10867   0.88721   0.00000  Uiso   1.00
C153   C     0.18517   0.04953   0.87573   0.00000  Uiso   1.00
C154   C     0.28190   0.00628   0.85524   0.00000  Uiso   1.00
C155   C     0.18576   0.95528   0.84761   0.00000  Uiso   1.00
C156   C     0.23837   0.11424   0.93352   0.00000  Uiso   1.00
C157   C     0.37983   0.12539   0.96161   0.00000  Uiso   1.00
C158   C     0.32849   0.12887   0.00263   0.00000  Uiso   1.00
C159   C     0.13122   0.15287   0.86806   0.00000  Uiso   1.00
C160   C     0.18259   0.19652   0.84114   0.00000  Uiso   1.00
C161   C     0.04104   0.23253   0.82706   0.00000  Uiso   1.00
H162   H     0.77555   0.08923   0.91976   0.00000  Uiso   1.00
H163   H     0.75865   0.98544   0.89018   0.00000  Uiso   1.00
H164   H     0.85658   0.10454   0.99653   0.00000  Uiso   1.00
H165   H     0.65937   0.17565   0.87608   0.00000  Uiso   1.00
H166   H     0.82204   0.87363   0.85191   0.00000  Uiso   1.00
H167   H     0.02850   0.12478   0.07617   0.00000  Uiso   1.00
H168   H     0.61265   0.27474   0.82216   0.00000  Uiso   1.00
H169   H     0.40813   0.11445   0.87753   0.00000  Uiso   1.00
H170   H     0.42595   0.01204   0.84563   0.00000  Uiso   1.00
H171   H     0.52387   0.13114   0.95199   0.00000  Uiso   1.00
H172   H     0.32666   0.20225   0.83153   0.00000  Uiso   1.00
H173   H     0.36365   0.89522   0.81576   0.00000  Uiso   1.00
H174   H     0.57010   0.14637   0.04001   0.00000  Uiso   1.00
H175   H     0.15425   0.29633   0.78600   0.00000  Uiso   1.00
O176   O     0.09318   0.81659   0.81362   0.00000  Uiso   1.00
O177   O     0.36403   0.14611   0.10783   0.00000  Uiso   1.00
O178   O     0.81844   0.34284   0.77458   0.00000  Uiso   1.00
N179   N     0.94705   0.89277   0.84777   0.00000  Uiso   1.00
N180   N     0.14008   0.12757   0.05744   0.00000  Uiso   1.00
N181   N     0.75130   0.26778   0.81997   0.00000  Uiso   1.00
N182   N     0.23849   0.90438   0.82832   0.00000  Uiso   1.00
N183   N     0.43151   0.13919   0.03798   0.00000  Uiso   1.00
N184   N     0.04274   0.27939   0.80052   0.00000  Uiso   1.00
C185   C     0.57953   0.59500   0.91009   0.00000  Uiso   1.00
C186   C     0.50099   0.54211   0.88815   0.00000  Uiso   1.00
C187   C     0.59729   0.49116   0.88055   0.00000  Uiso   1.00
C188   C     0.50073   0.44784   0.86006   0.00000  Uiso   1.00
C189   C     0.40707   0.36457   0.82791   0.00000  Uiso   1.00
C190   C     0.44778   0.60681   0.94594   0.00000  Uiso   1.00
C191   C     0.49935   0.61028   0.98693   0.00000  Uiso   1.00
C192   C     0.35800   0.62143   0.01508   0.00000  Uiso   1.00
C193   C     0.18176   0.63866   0.07265   0.00000  Uiso   1.00
C194   C     0.55494   0.64545   0.88049   0.00000  Uiso   1.00
C195   C     0.69659   0.68141   0.86645   0.00000  Uiso   1.00
C196   C     0.64545   0.72510   0.83951   0.00000  Uiso   1.00
C197   C     0.63558   0.80231   0.79545   0.00000  Uiso   1.00
C198   C     0.23680   0.60867   0.88721   0.00000  Uiso   1.00
C199   C     0.31483   0.54953   0.87573   0.00000  Uiso   1.00
C200   C     0.21810   0.50628   0.85524   0.00000  Uiso   1.00
C201   C     0.31424   0.45528   0.84761   0.00000  Uiso   1.00
C202   C     0.26163   0.61424   0.93352   0.00000  Uiso   1.00
C203   C     0.12017   0.62539   0.96161   0.00000  Uiso   1.00
C204   C     0.17151   0.62887   0.00263   0.00000  Uiso   1.00
C205   C     0.36878   0.65287   0.86806   0.00000  Uiso   1.00
C206   C     0.31741   0.69652   0.84114   0.00000  Uiso   1.00
C207   C     0.45896   0.73253   0.82706   0.00000  Uiso   1.00
H208   H     0.72445   0.58923   0.91976   0.00000  Uiso   1.00
H209   H     0.74135   0.48544   0.89018   0.00000  Uiso   1.00
H210   H     0.64342   0.60454   0.99653   0.00000  Uiso   1.00
H211   H     0.84063   0.67565   0.87608   0.00000  Uiso   1.00
H212   H     0.67796   0.37363   0.85191   0.00000  Uiso   1.00
H213   H     0.47150   0.62478   0.07617   0.00000  Uiso   1.00
H214   H     0.88735   0.77474   0.82216   0.00000  Uiso   1.00
H215   H     0.09187   0.61445   0.87753   0.00000  Uiso   1.00
H216   H     0.07405   0.51204   0.84563   0.00000  Uiso   1.00
H217   H     0.97613   0.63114   0.95199   0.00000  Uiso   1.00
H218   H     0.17334   0.70225   0.83153   0.00000  Uiso   1.00
H219   H     0.13635   0.39522   0.81576   0.00000  Uiso   1.00
H220   H     0.92990   0.64637   0.04001   0.00000  Uiso   1.00
H221   H     0.34575   0.79633   0.78600   0.00000  Uiso   1.00
O222   O     0.40682   0.31659   0.81362   0.00000  Uiso   1.00
O223   O     0.13597   0.64611   0.10783   0.00000  Uiso   1.00
O224   O     0.68156   0.84284   0.77458   0.00000  Uiso   1.00
N225   N     0.55295   0.39277   0.84777   0.00000  Uiso   1.00
N226   N     0.35992   0.62757   0.05744   0.00000  Uiso   1.00
N227   N     0.74870   0.76778   0.81997   0.00000  Uiso   1.00
N228   N     0.26151   0.40438   0.82832   0.00000  Uiso   1.00
N229   N     0.06849   0.63919   0.03798   0.00000  Uiso   1.00
N230   N     0.45726   0.77939   0.80052   0.00000  Uiso   1.00
C231   C     0.92047   0.90500   0.41009   0.00000  Uiso   1.00
C232   C     0.99901   0.95789   0.38815   0.00000  Uiso   1.00
C233   C     0.90271   0.00884   0.38055   0.00000  Uiso   1.00
C234   C     0.99927   0.05216   0.36006   0.00000  Uiso   1.00
C235   C     0.09293   0.13543   0.32791   0.00000  Uiso   1.00
C236   C     0.05222   0.89319   0.44594   0.00000  Uiso   1.00
C237   C     0.00065   0.88972   0.48693   0.00000  Uiso   1.00
C238   C     0.14200   0.87857   0.51508   0.00000  Uiso   1.00
C239   C     0.31824   0.86134   0.57265   0.00000  Uiso   1.00
C240   C     0.94506   0.85455   0.38049   0.00000  Uiso   1.00
C241   C     0.80341   0.81859   0.36645   0.00000  Uiso   1.00
C242   C     0.85455   0.77490   0.33951   0.00000  Uiso   1.00
C243   C     0.86442   0.69769   0.29545   0.00000  Uiso   1.00
C244   C     0.26320   0.89133   0.38721   0.00000  Uiso   1.00
C245   C     0.18517   0.95047   0.37573   0.00000  Uiso   1.00
C246   C     0.28190   0.99372   0.35524   0.00000  Uiso   1.00
C247   C     0.18576   0.04472   0.34761   0.00000  Uiso   1.00
C248   C     0.23837   0.88576   0.43352   0.00000  Uiso   1.00
C249   C     0.37983   0.87461   0.46161   0.00000  Uiso   1.00
C250   C     0.32849   0.87113   0.50263   0.00000  Uiso   1.00
C251   C     0.13122   0.84713   0.36806   0.00000  Uiso   1.00
C252   C     0.18259   0.80348   0.34114   0.00000  Uiso   1.00
C253   C     0.04104   0.76747   0.32706   0.00000  Uiso   1.00
H254   H     0.77555   0.91077   0.41976   0.00000  Uiso   1.00
H255   H     0.75865   0.01456   0.39018   0.00000  Uiso   1.00
H256   H     0.85658   0.89546   0.49653   0.00000  Uiso   1.00
H257   H     0.65937   0.82435   0.37608   0.00000  Uiso   1.00
H258   H     0.82204   0.12637   0.35191   0.00000  Uiso   1.00
H259   H     0.02850   0.87522   0.57617   0.00000  Uiso   1.00
H260   H     0.61265   0.72526   0.32216   0.00000  Uiso   1.00
H261   H     0.40813   0.88555   0.37753   0.00000  Uiso   1.00
H262   H     0.42595   0.98796   0.34563   0.00000  Uiso   1.00
H263   H     0.52387   0.86886   0.45199   0.00000  Uiso   1.00
H264   H     0.32666   0.79775   0.33153   0.00000  Uiso   1.00
H265   H     0.36365   0.10478   0.31576   0.00000  Uiso   1.00
H266   H     0.57010   0.85363   0.54001   0.00000  Uiso   1.00
H267   H     0.15425   0.70367   0.28600   0.00000  Uiso   1.00
O268   O     0.09318   0.18341   0.31362   0.00000  Uiso   1.00
O269   O     0.36403   0.85389   0.60783   0.00000  Uiso   1.00
O270   O     0.81844   0.65716   0.27458   0.00000  Uiso   1.00
N271   N     0.94705   0.10723   0.34777   0.00000  Uiso   1.00
N272   N     0.14008   0.87243   0.55744   0.00000  Uiso   1.00
N273   N     0.75130   0.73222   0.31997   0.00000  Uiso   1.00
N274   N     0.23849   0.09562   0.32832   0.00000  Uiso   1.00
N275   N     0.43151   0.86081   0.53798   0.00000  Uiso   1.00
N276   N     0.04274   0.72061   0.30052   0.00000  Uiso   1.00
C277   C     0.42047   0.59500   0.58991   0.00000  Uiso   1.00
C278   C     0.49901   0.54211   0.61185   0.00000  Uiso   1.00
C279   C     0.40271   0.49116   0.61945   0.00000  Uiso   1.00
C280   C     0.49927   0.44784   0.63994   0.00000  Uiso   1.00
C281   C     0.59293   0.36457   0.67209   0.00000  Uiso   1.00
C282   C     0.55222   0.60681   0.55406   0.00000  Uiso   1.00
C283   C     0.50065   0.61028   0.51307   0.00000  Uiso   1.00
C284   C     0.64200   0.62143   0.48492   0.00000  Uiso   1.00
C285   C     0.81824   0.63866   0.42735   0.00000  Uiso   1.00
C286   C     0.44506   0.64545   0.61951   0.00000  Uiso   1.00
C287   C     0.30341   0.68141   0.63355   0.00000  Uiso   1.00
C288   C     0.35455   0.72510   0.66049   0.00000  Uiso   1.00
C289   C     0.36442   0.80231   0.70455   0.00000  Uiso   1.00
C290   C     0.76320   0.60867   0.61279   0.00000  Uiso   1.00
C291   C     0.68517   0.54953   0.62427   0.00000  Uiso   1.00
C292   C     0.78190   0.50628   0.64476   0.00000  Uiso   1.00
C293   C     0.68576   0.45528   0.65239   0.00000  Uiso   1.00
C294   C     0.73837   0.61424   0.56648   0.00000  Uiso   1.00
C295   C     0.87983   0.62539   0.53839   0.00000  Uiso   1.00
C296   C     0.82849   0.62887   0.49737   0.00000  Uiso   1.00
C297   C     0.63122   0.65287   0.63194   0.00000  Uiso   1.00
C298   C     0.68259   0.69652   0.65886   0.00000  Uiso   1.00
C299   C     0.54104   0.73253   0.67294   0.00000  Uiso   1.00
H300   H     0.27555   0.58923   0.58024   0.00000  Uiso   1.00
H301   H     0.25865   0.48544   0.60982   0.00000  Uiso   1.00
H302   H     0.35658   0.60454   0.50347   0.00000  Uiso   1.00
H303   H     0.15937   0.67565   0.62392   0.00000  Uiso   1.00
H304   H     0.32204   0.37363   0.64809   0.00000  Uiso   1.00
H305   H     0.52850   0.62478   0.42383   0.00000  Uiso   1.00
H306   H     0.11265   0.77474   0.67784   0.00000  Uiso   1.00
H307   H     0.90813   0.61445   0.62247   0.00000  Uiso   1.00
H308   H     0.92595   0.51204   0.65437   0.00000  Uiso   1.00
H309   H     0.02387   0.63114   0.54801   0.00000  Uiso   1.00
H310   H     0.82666   0.70225   0.66847   0.00000  Uiso   1.00
H311   H     0.86365   0.39522   0.68424   0.00000  Uiso   1.00
H312   H     0.07010   0.64637   0.45999   0.00000  Uiso   1.00
H313   H     0.65425   0.79633   0.71400   0.00000  Uiso   1.00
O314   O     0.59318   0.31659   0.68638   0.00000  Uiso   1.00
O315   O     0.86403   0.64611   0.39217   0.00000  Uiso   1.00
O316   O     0.31844   0.84284   0.72542   0.00000  Uiso   1.00
N317   N     0.44705   0.39277   0.65223   0.00000  Uiso   1.00
N318   N     0.64008   0.62757   0.44256   0.00000  Uiso   1.00
N319   N     0.25130   0.76778   0.68003   0.00000  Uiso   1.00
N320   N     0.73849   0.40438   0.67168   0.00000  Uiso   1.00
N321   N     0.93151   0.63919   0.46202   0.00000  Uiso   1.00
N322   N     0.54274   0.77939   0.69948   0.00000  Uiso   1.00
C323   C     0.07953   0.90500   0.08991   0.00000  Uiso   1.00
C324   C     0.00099   0.95789   0.11185   0.00000  Uiso   1.00
C325   C     0.09729   0.00884   0.11945   0.00000  Uiso   1.00
C326   C     0.00073   0.05216   0.13994   0.00000  Uiso   1.00
C327   C     0.90707   0.13543   0.17209   0.00000  Uiso   1.00
C328   C     0.94778   0.89319   0.05406   0.00000  Uiso   1.00
C329   C     0.99935   0.88972   0.01307   0.00000  Uiso   1.00
C330   C     0.85800   0.87857   0.98492   0.00000  Uiso   1.00
C331   C     0.68176   0.86134   0.92735   0.00000  Uiso   1.00
C332   C     0.05494   0.85455   0.11951   0.00000  Uiso   1.00
C333   C     0.19659   0.81859   0.13355   0.00000  Uiso   1.00
C334   C     0.14545   0.77490   0.16049   0.00000  Uiso   1.00
C335   C     0.13558   0.69769   0.20455   0.00000  Uiso   1.00
C336   C     0.73680   0.89133   0.11279   0.00000  Uiso   1.00
C337   C     0.81483   0.95047   0.12427   0.00000  Uiso   1.00
C338   C     0.71810   0.99372   0.14476   0.00000  Uiso   1.00
C339   C     0.81424   0.04472   0.15239   0.00000  Uiso   1.00
C340   C     0.76163   0.88576   0.06648   0.00000  Uiso   1.00
C341   C     0.62017   0.87461   0.03839   0.00000  Uiso   1.00
C342   C     0.67151   0.87113   0.99737   0.00000  Uiso   1.00
C343   C     0.86878   0.84713   0.13194   0.00000  Uiso   1.00
C344   C     0.81741   0.80348   0.15886   0.00000  Uiso   1.00
C345   C     0.95896   0.76747   0.17294   0.00000  Uiso   1.00
H346   H     0.22445   0.91077   0.08024   0.00000  Uiso   1.00
H347   H     0.24135   0.01456   0.10982   0.00000  Uiso   1.00
H348   H     0.14342   0.89546   0.00347   0.00000  Uiso   1.00
H349   H     0.34063   0.82435   0.12392   0.00000  Uiso   1.00
H350   H     0.17796   0.12637   0.14809   0.00000  Uiso   1.00
H351   H     0.97150   0.87522   0.92383   0.00000  Uiso   1.00
H352   H     0.38735   0.72526   0.17784   0.00000  Uiso   1.00
H353   H     0.59187   0.88555   0.12247   0.00000  Uiso   1.00
H354   H     0.57405   0.98796   0.15437   0.00000  Uiso   1.00
H355   H     0.47613   0.86886   0.04801   0.00000  Uiso   1.00
H356   H     0.67334   0.79775   0.16847   0.00000  Uiso   1.00
H357   H     0.63635   0.10478   0.18424   0.00000  Uiso   1.00
H358   H     0.42990   0.85363   0.95999   0.00000  Uiso   1.00
H359   H     0.84575   0.70367   0.21400   0.00000  Uiso   1.00
O360   O     0.90682   0.18341   0.18638   0.00000  Uiso   1.00
O361   O     0.63597   0.85389   0.89217   0.00000  Uiso   1.00
O362   O     0.18156   0.65716   0.22542   0.00000  Uiso   1.00
N363   N     0.05295   0.10723   0.15223   0.00000  Uiso   1.00
N364   N     0.85992   0.87243   0.94256   0.00000  Uiso   1.00
N365   N     0.24870   0.73222   0.18003   0.00000  Uiso   1.00
N366   N     0.76151   0.09562   0.17168   0.00000  Uiso   1.00
N367   N     0.56849   0.86081   0.96202   0.00000  Uiso   1.00
N368   N     0.95726   0.72061   0.19948   0.00000  Uiso   1.00
