data_job_01629
_audit_creation_date              2018-12-19
_audit_creation_method            'Materials Studio'
_symmetry_space_group_name_H-M    'P1'
_symmetry_Int_Tables_number       1
_symmetry_cell_setting            triclinic
loop_
_symmetry_equiv_pos_as_xyz
  x,y,z
_cell_length_a                    27.8493
_cell_length_b                    12.4178
_cell_length_c                    18.7793
_cell_angle_alpha                 90.0000
_cell_angle_beta                  72.5962
_cell_angle_gamma                 90.0000
loop_
_atom_site_label
_atom_site_type_symbol
_atom_site_fract_x
_atom_site_fract_y
_atom_site_fract_z
_atom_site_U_iso_or_equiv
_atom_site_adp_type
_atom_site_occupancy
C1     C     0.88886   0.30039   0.63455   0.00000  Uiso   1.00
C2     C     0.87869   0.22358   0.57736   0.00000  Uiso   1.00
C3     C     0.90624   0.13174   0.54924   0.00000  Uiso   1.00
C4     C     0.89091   0.07220   0.49734   0.00000  Uiso   1.00
C5     C     0.88143   0.94821   0.41200   0.00000  Uiso   1.00
C6     C     0.89551   0.41156   0.59842   0.00000  Uiso   1.00
C7     C     0.93720   0.47777   0.58801   0.00000  Uiso   1.00
C8     C     0.93603   0.57648   0.55384   0.00000  Uiso   1.00
C9     C     0.95264   0.74436   0.50123   0.00000  Uiso   1.00
C10    C     0.84017   0.30550   0.69898   0.00000  Uiso   1.00
C11    C     0.83532   0.28256   0.77313   0.00000  Uiso   1.00
C12    C     0.78756   0.29200   0.82363   0.00000  Uiso   1.00
C13    C     0.71825   0.29520   0.92715   0.00000  Uiso   1.00
C14    C     0.81266   0.35798   0.59238   0.00000  Uiso   1.00
C15    C     0.83730   0.25487   0.55446   0.00000  Uiso   1.00
C16    C     0.82193   0.19545   0.50259   0.00000  Uiso   1.00
C17    C     0.84945   0.10353   0.47440   0.00000  Uiso   1.00
C18    C     0.85412   0.44285   0.57551   0.00000  Uiso   1.00
C19    C     0.85289   0.54148   0.54136   0.00000  Uiso   1.00
C20    C     0.89456   0.60782   0.53090   0.00000  Uiso   1.00
C21    C     0.79878   0.33678   0.67607   0.00000  Uiso   1.00
C22    C     0.75101   0.34627   0.72647   0.00000  Uiso   1.00
C23    C     0.74610   0.32334   0.80068   0.00000  Uiso   1.00
H24    H     0.92109   0.27605   0.65238   0.00000  Uiso   1.00
H25    H     0.93827   0.10756   0.56698   0.00000  Uiso   1.00
H26    H     0.96922   0.45354   0.60575   0.00000  Uiso   1.00
H27    H     0.86736   0.25836   0.79083   0.00000  Uiso   1.00
H28    H     0.93908   0.93458   0.46217   0.00000  Uiso   1.00
H29    H     0.00433   0.66412   0.54394   0.00000  Uiso   1.00
H30    H     0.78954   0.25253   0.93423   0.00000  Uiso   1.00
H31    H     0.78043   0.38234   0.57455   0.00000  Uiso   1.00
H32    H     0.78990   0.21968   0.48487   0.00000  Uiso   1.00
H33    H     0.82085   0.56566   0.52364   0.00000  Uiso   1.00
H34    H     0.71899   0.37048   0.70872   0.00000  Uiso   1.00
H35    H     0.81865   0.02558   0.39553   0.00000  Uiso   1.00
H36    H     0.88391   0.75512   0.47730   0.00000  Uiso   1.00
H37    H     0.66912   0.34353   0.86758   0.00000  Uiso   1.00
O38    O     0.88764   0.87118   0.37124   0.00000  Uiso   1.00
O39    O     0.97325   0.82831   0.47853   0.00000  Uiso   1.00
O40    O     0.69145   0.28831   0.99058   0.00000  Uiso   1.00
N41    N     0.90943   0.97831   0.45880   0.00000  Uiso   1.00
N42    N     0.97044   0.66037   0.53524   0.00000  Uiso   1.00
N43    N     0.76964   0.27560   0.90013   0.00000  Uiso   1.00
N44    N     0.84463   0.02727   0.42295   0.00000  Uiso   1.00
N45    N     0.90565   0.70934   0.49938   0.00000  Uiso   1.00
N46    N     0.70484   0.32457   0.86427   0.00000  Uiso   1.00
C47    C     0.38886   0.80039   0.63455   0.00000  Uiso   1.00
C48    C     0.37869   0.72358   0.57736   0.00000  Uiso   1.00
C49    C     0.40624   0.63174   0.54924   0.00000  Uiso   1.00
C50    C     0.39091   0.57220   0.49734   0.00000  Uiso   1.00
C51    C     0.38143   0.44821   0.41200   0.00000  Uiso   1.00
C52    C     0.39551   0.91156   0.59842   0.00000  Uiso   1.00
C53    C     0.43720   0.97777   0.58801   0.00000  Uiso   1.00
C54    C     0.43603   0.07648   0.55384   0.00000  Uiso   1.00
C55    C     0.45264   0.24436   0.50123   0.00000  Uiso   1.00
C56    C     0.34017   0.80550   0.69898   0.00000  Uiso   1.00
C57    C     0.33532   0.78256   0.77313   0.00000  Uiso   1.00
C58    C     0.28756   0.79200   0.82363   0.00000  Uiso   1.00
C59    C     0.21825   0.79520   0.92715   0.00000  Uiso   1.00
C60    C     0.31266   0.85798   0.59238   0.00000  Uiso   1.00
C61    C     0.33730   0.75487   0.55446   0.00000  Uiso   1.00
C62    C     0.32193   0.69545   0.50259   0.00000  Uiso   1.00
C63    C     0.34945   0.60353   0.47440   0.00000  Uiso   1.00
C64    C     0.35412   0.94285   0.57551   0.00000  Uiso   1.00
C65    C     0.35289   0.04148   0.54136   0.00000  Uiso   1.00
C66    C     0.39456   0.10782   0.53090   0.00000  Uiso   1.00
C67    C     0.29878   0.83678   0.67607   0.00000  Uiso   1.00
C68    C     0.25101   0.84627   0.72647   0.00000  Uiso   1.00
C69    C     0.24610   0.82334   0.80068   0.00000  Uiso   1.00
H70    H     0.42109   0.77605   0.65238   0.00000  Uiso   1.00
H71    H     0.43827   0.60756   0.56698   0.00000  Uiso   1.00
H72    H     0.46922   0.95354   0.60575   0.00000  Uiso   1.00
H73    H     0.36736   0.75836   0.79083   0.00000  Uiso   1.00
H74    H     0.43908   0.43458   0.46217   0.00000  Uiso   1.00
H75    H     0.50433   0.16412   0.54394   0.00000  Uiso   1.00
H76    H     0.28954   0.75253   0.93423   0.00000  Uiso   1.00
H77    H     0.28043   0.88234   0.57455   0.00000  Uiso   1.00
H78    H     0.28990   0.71968   0.48487   0.00000  Uiso   1.00
H79    H     0.32085   0.06566   0.52364   0.00000  Uiso   1.00
H80    H     0.21899   0.87048   0.70872   0.00000  Uiso   1.00
H81    H     0.31865   0.52558   0.39553   0.00000  Uiso   1.00
H82    H     0.38391   0.25512   0.47730   0.00000  Uiso   1.00
H83    H     0.16912   0.84353   0.86758   0.00000  Uiso   1.00
O84    O     0.38764   0.37118   0.37124   0.00000  Uiso   1.00
O85    O     0.47325   0.32831   0.47853   0.00000  Uiso   1.00
O86    O     0.19145   0.78831   0.99058   0.00000  Uiso   1.00
N87    N     0.40943   0.47831   0.45880   0.00000  Uiso   1.00
N88    N     0.47044   0.16037   0.53524   0.00000  Uiso   1.00
N89    N     0.26964   0.77560   0.90013   0.00000  Uiso   1.00
N90    N     0.34463   0.52727   0.42295   0.00000  Uiso   1.00
N91    N     0.40565   0.20934   0.49938   0.00000  Uiso   1.00
N92    N     0.20484   0.82457   0.86427   0.00000  Uiso   1.00
C93    C     0.11114   0.30039   0.86545   0.00000  Uiso   1.00
C94    C     0.12131   0.22358   0.92264   0.00000  Uiso   1.00
C95    C     0.09376   0.13174   0.95076   0.00000  Uiso   1.00
C96    C     0.10909   0.07220   0.00266   0.00000  Uiso   1.00
C97    C     0.11857   0.94821   0.08800   0.00000  Uiso   1.00
C98    C     0.10449   0.41156   0.90158   0.00000  Uiso   1.00
C99    C     0.06280   0.47777   0.91199   0.00000  Uiso   1.00
C100   C     0.06397   0.57648   0.94616   0.00000  Uiso   1.00
C101   C     0.04736   0.74436   0.99877   0.00000  Uiso   1.00
C102   C     0.15983   0.30550   0.80102   0.00000  Uiso   1.00
C103   C     0.16468   0.28256   0.72687   0.00000  Uiso   1.00
C104   C     0.21244   0.29200   0.67637   0.00000  Uiso   1.00
C105   C     0.28175   0.29520   0.57285   0.00000  Uiso   1.00
C106   C     0.18734   0.35798   0.90762   0.00000  Uiso   1.00
C107   C     0.16270   0.25487   0.94554   0.00000  Uiso   1.00
C108   C     0.17807   0.19545   0.99741   0.00000  Uiso   1.00
C109   C     0.15055   0.10353   0.02560   0.00000  Uiso   1.00
C110   C     0.14588   0.44285   0.92449   0.00000  Uiso   1.00
C111   C     0.14711   0.54148   0.95864   0.00000  Uiso   1.00
C112   C     0.10544   0.60782   0.96910   0.00000  Uiso   1.00
C113   C     0.20122   0.33678   0.82393   0.00000  Uiso   1.00
C114   C     0.24899   0.34627   0.77353   0.00000  Uiso   1.00
C115   C     0.25390   0.32334   0.69932   0.00000  Uiso   1.00
H116   H     0.07891   0.27605   0.84762   0.00000  Uiso   1.00
H117   H     0.06173   0.10756   0.93302   0.00000  Uiso   1.00
H118   H     0.03078   0.45354   0.89425   0.00000  Uiso   1.00
H119   H     0.13264   0.25836   0.70917   0.00000  Uiso   1.00
H120   H     0.06092   0.93458   0.03783   0.00000  Uiso   1.00
H121   H     0.99567   0.66412   0.95606   0.00000  Uiso   1.00
H122   H     0.21046   0.25253   0.56577   0.00000  Uiso   1.00
H123   H     0.21957   0.38234   0.92545   0.00000  Uiso   1.00
H124   H     0.21010   0.21968   0.01513   0.00000  Uiso   1.00
H125   H     0.17915   0.56566   0.97636   0.00000  Uiso   1.00
H126   H     0.28101   0.37048   0.79128   0.00000  Uiso   1.00
H127   H     0.18135   0.02558   0.10447   0.00000  Uiso   1.00
H128   H     0.11609   0.75512   0.02270   0.00000  Uiso   1.00
H129   H     0.33088   0.34353   0.63242   0.00000  Uiso   1.00
O130   O     0.11236   0.87118   0.12876   0.00000  Uiso   1.00
O131   O     0.02675   0.82831   0.02147   0.00000  Uiso   1.00
O132   O     0.30855   0.28831   0.50942   0.00000  Uiso   1.00
N133   N     0.09057   0.97831   0.04120   0.00000  Uiso   1.00
N134   N     0.02956   0.66037   0.96476   0.00000  Uiso   1.00
N135   N     0.23036   0.27560   0.59987   0.00000  Uiso   1.00
N136   N     0.15537   0.02727   0.07705   0.00000  Uiso   1.00
N137   N     0.09435   0.70934   0.00062   0.00000  Uiso   1.00
N138   N     0.29516   0.32457   0.63573   0.00000  Uiso   1.00
C139   C     0.61114   0.80039   0.86545   0.00000  Uiso   1.00
C140   C     0.62131   0.72358   0.92264   0.00000  Uiso   1.00
C141   C     0.59376   0.63174   0.95076   0.00000  Uiso   1.00
C142   C     0.60909   0.57220   0.00266   0.00000  Uiso   1.00
C143   C     0.61857   0.44821   0.08800   0.00000  Uiso   1.00
C144   C     0.60449   0.91156   0.90158   0.00000  Uiso   1.00
C145   C     0.56280   0.97777   0.91199   0.00000  Uiso   1.00
C146   C     0.56397   0.07648   0.94616   0.00000  Uiso   1.00
C147   C     0.54736   0.24436   0.99877   0.00000  Uiso   1.00
C148   C     0.65983   0.80550   0.80102   0.00000  Uiso   1.00
C149   C     0.66468   0.78256   0.72687   0.00000  Uiso   1.00
C150   C     0.71244   0.79200   0.67637   0.00000  Uiso   1.00
C151   C     0.78175   0.79520   0.57285   0.00000  Uiso   1.00
C152   C     0.68734   0.85798   0.90762   0.00000  Uiso   1.00
C153   C     0.66270   0.75487   0.94554   0.00000  Uiso   1.00
C154   C     0.67807   0.69545   0.99741   0.00000  Uiso   1.00
C155   C     0.65055   0.60353   0.02560   0.00000  Uiso   1.00
C156   C     0.64588   0.94285   0.92449   0.00000  Uiso   1.00
C157   C     0.64711   0.04148   0.95864   0.00000  Uiso   1.00
C158   C     0.60544   0.10782   0.96910   0.00000  Uiso   1.00
C159   C     0.70122   0.83678   0.82393   0.00000  Uiso   1.00
C160   C     0.74899   0.84627   0.77353   0.00000  Uiso   1.00
C161   C     0.75390   0.82334   0.69932   0.00000  Uiso   1.00
H162   H     0.57891   0.77605   0.84762   0.00000  Uiso   1.00
H163   H     0.56173   0.60756   0.93302   0.00000  Uiso   1.00
H164   H     0.53078   0.95354   0.89425   0.00000  Uiso   1.00
H165   H     0.63264   0.75836   0.70917   0.00000  Uiso   1.00
H166   H     0.56092   0.43458   0.03783   0.00000  Uiso   1.00
H167   H     0.49567   0.16412   0.95606   0.00000  Uiso   1.00
H168   H     0.71046   0.75253   0.56577   0.00000  Uiso   1.00
H169   H     0.71957   0.88234   0.92545   0.00000  Uiso   1.00
H170   H     0.71010   0.71968   0.01513   0.00000  Uiso   1.00
H171   H     0.67915   0.06566   0.97636   0.00000  Uiso   1.00
H172   H     0.78101   0.87048   0.79128   0.00000  Uiso   1.00
H173   H     0.68135   0.52558   0.10447   0.00000  Uiso   1.00
H174   H     0.61609   0.25512   0.02270   0.00000  Uiso   1.00
H175   H     0.83088   0.84353   0.63242   0.00000  Uiso   1.00
O176   O     0.61236   0.37118   0.12876   0.00000  Uiso   1.00
O177   O     0.52675   0.32831   0.02147   0.00000  Uiso   1.00
O178   O     0.80855   0.78831   0.50942   0.00000  Uiso   1.00
N179   N     0.59057   0.47831   0.04120   0.00000  Uiso   1.00
N180   N     0.52956   0.16037   0.96476   0.00000  Uiso   1.00
N181   N     0.73036   0.77560   0.59987   0.00000  Uiso   1.00
N182   N     0.65537   0.52727   0.07705   0.00000  Uiso   1.00
N183   N     0.59435   0.20934   0.00062   0.00000  Uiso   1.00
N184   N     0.79516   0.82457   0.63573   0.00000  Uiso   1.00
C185   C     0.11114   0.69961   0.36545   0.00000  Uiso   1.00
C186   C     0.12131   0.77642   0.42264   0.00000  Uiso   1.00
C187   C     0.09376   0.86826   0.45076   0.00000  Uiso   1.00
C188   C     0.10909   0.92780   0.50266   0.00000  Uiso   1.00
C189   C     0.11857   0.05179   0.58800   0.00000  Uiso   1.00
C190   C     0.10449   0.58844   0.40158   0.00000  Uiso   1.00
C191   C     0.06280   0.52223   0.41199   0.00000  Uiso   1.00
C192   C     0.06397   0.42352   0.44616   0.00000  Uiso   1.00
C193   C     0.04736   0.25564   0.49877   0.00000  Uiso   1.00
C194   C     0.15983   0.69450   0.30102   0.00000  Uiso   1.00
C195   C     0.16468   0.71744   0.22687   0.00000  Uiso   1.00
C196   C     0.21244   0.70800   0.17637   0.00000  Uiso   1.00
C197   C     0.28175   0.70480   0.07285   0.00000  Uiso   1.00
C198   C     0.18734   0.64202   0.40762   0.00000  Uiso   1.00
C199   C     0.16270   0.74513   0.44554   0.00000  Uiso   1.00
C200   C     0.17807   0.80455   0.49741   0.00000  Uiso   1.00
C201   C     0.15055   0.89647   0.52560   0.00000  Uiso   1.00
C202   C     0.14588   0.55715   0.42449   0.00000  Uiso   1.00
C203   C     0.14711   0.45852   0.45864   0.00000  Uiso   1.00
C204   C     0.10544   0.39218   0.46910   0.00000  Uiso   1.00
C205   C     0.20122   0.66322   0.32393   0.00000  Uiso   1.00
C206   C     0.24899   0.65373   0.27353   0.00000  Uiso   1.00
C207   C     0.25390   0.67666   0.19932   0.00000  Uiso   1.00
H208   H     0.07891   0.72395   0.34762   0.00000  Uiso   1.00
H209   H     0.06173   0.89244   0.43302   0.00000  Uiso   1.00
H210   H     0.03078   0.54646   0.39425   0.00000  Uiso   1.00
H211   H     0.13264   0.74164   0.20917   0.00000  Uiso   1.00
H212   H     0.06092   0.06542   0.53783   0.00000  Uiso   1.00
H213   H     0.99567   0.33588   0.45606   0.00000  Uiso   1.00
H214   H     0.21046   0.74747   0.06577   0.00000  Uiso   1.00
H215   H     0.21957   0.61766   0.42545   0.00000  Uiso   1.00
H216   H     0.21010   0.78032   0.51513   0.00000  Uiso   1.00
H217   H     0.17915   0.43434   0.47636   0.00000  Uiso   1.00
H218   H     0.28101   0.62952   0.29128   0.00000  Uiso   1.00
H219   H     0.18135   0.97442   0.60447   0.00000  Uiso   1.00
H220   H     0.11609   0.24488   0.52270   0.00000  Uiso   1.00
H221   H     0.33088   0.65647   0.13242   0.00000  Uiso   1.00
O222   O     0.11236   0.12882   0.62876   0.00000  Uiso   1.00
O223   O     0.02675   0.17169   0.52147   0.00000  Uiso   1.00
O224   O     0.30855   0.71169   0.00942   0.00000  Uiso   1.00
N225   N     0.09057   0.02169   0.54120   0.00000  Uiso   1.00
N226   N     0.02956   0.33963   0.46476   0.00000  Uiso   1.00
N227   N     0.23036   0.72440   0.09987   0.00000  Uiso   1.00
N228   N     0.15537   0.97273   0.57705   0.00000  Uiso   1.00
N229   N     0.09435   0.29066   0.50062   0.00000  Uiso   1.00
N230   N     0.29516   0.67543   0.13573   0.00000  Uiso   1.00
C231   C     0.61114   0.19961   0.36545   0.00000  Uiso   1.00
C232   C     0.62131   0.27642   0.42264   0.00000  Uiso   1.00
C233   C     0.59376   0.36826   0.45076   0.00000  Uiso   1.00
C234   C     0.60909   0.42780   0.50266   0.00000  Uiso   1.00
C235   C     0.61857   0.55179   0.58800   0.00000  Uiso   1.00
C236   C     0.60449   0.08844   0.40158   0.00000  Uiso   1.00
C237   C     0.56280   0.02223   0.41199   0.00000  Uiso   1.00
C238   C     0.56397   0.92352   0.44616   0.00000  Uiso   1.00
C239   C     0.54736   0.75564   0.49877   0.00000  Uiso   1.00
C240   C     0.65983   0.19450   0.30102   0.00000  Uiso   1.00
C241   C     0.66468   0.21744   0.22687   0.00000  Uiso   1.00
C242   C     0.71244   0.20800   0.17637   0.00000  Uiso   1.00
C243   C     0.78175   0.20480   0.07285   0.00000  Uiso   1.00
C244   C     0.68734   0.14202   0.40762   0.00000  Uiso   1.00
C245   C     0.66270   0.24513   0.44554   0.00000  Uiso   1.00
C246   C     0.67807   0.30455   0.49741   0.00000  Uiso   1.00
C247   C     0.65055   0.39647   0.52560   0.00000  Uiso   1.00
C248   C     0.64588   0.05715   0.42449   0.00000  Uiso   1.00
C249   C     0.64711   0.95852   0.45864   0.00000  Uiso   1.00
C250   C     0.60544   0.89218   0.46910   0.00000  Uiso   1.00
C251   C     0.70122   0.16322   0.32393   0.00000  Uiso   1.00
C252   C     0.74899   0.15373   0.27353   0.00000  Uiso   1.00
C253   C     0.75390   0.17666   0.19932   0.00000  Uiso   1.00
H254   H     0.57891   0.22395   0.34762   0.00000  Uiso   1.00
H255   H     0.56173   0.39244   0.43302   0.00000  Uiso   1.00
H256   H     0.53078   0.04646   0.39425   0.00000  Uiso   1.00
H257   H     0.63264   0.24164   0.20917   0.00000  Uiso   1.00
H258   H     0.56092   0.56542   0.53783   0.00000  Uiso   1.00
H259   H     0.49567   0.83588   0.45606   0.00000  Uiso   1.00
H260   H     0.71046   0.24747   0.06577   0.00000  Uiso   1.00
H261   H     0.71957   0.11766   0.42545   0.00000  Uiso   1.00
H262   H     0.71010   0.28032   0.51513   0.00000  Uiso   1.00
H263   H     0.67915   0.93434   0.47636   0.00000  Uiso   1.00
H264   H     0.78101   0.12952   0.29128   0.00000  Uiso   1.00
H265   H     0.68135   0.47442   0.60447   0.00000  Uiso   1.00
H266   H     0.61609   0.74488   0.52270   0.00000  Uiso   1.00
H267   H     0.83088   0.15647   0.13242   0.00000  Uiso   1.00
O268   O     0.61236   0.62882   0.62876   0.00000  Uiso   1.00
O269   O     0.52675   0.67169   0.52147   0.00000  Uiso   1.00
O270   O     0.80855   0.21169   0.00942   0.00000  Uiso   1.00
N271   N     0.59057   0.52169   0.54120   0.00000  Uiso   1.00
N272   N     0.52956   0.83963   0.46476   0.00000  Uiso   1.00
N273   N     0.73036   0.22440   0.09987   0.00000  Uiso   1.00
N274   N     0.65537   0.47273   0.57705   0.00000  Uiso   1.00
N275   N     0.59435   0.79066   0.50062   0.00000  Uiso   1.00
N276   N     0.79516   0.17543   0.13573   0.00000  Uiso   1.00
C277   C     0.88886   0.69961   0.13455   0.00000  Uiso   1.00
C278   C     0.87869   0.77642   0.07736   0.00000  Uiso   1.00
C279   C     0.90624   0.86826   0.04924   0.00000  Uiso   1.00
C280   C     0.89091   0.92780   0.99734   0.00000  Uiso   1.00
C281   C     0.88143   0.05179   0.91200   0.00000  Uiso   1.00
C282   C     0.89551   0.58844   0.09842   0.00000  Uiso   1.00
C283   C     0.93720   0.52223   0.08801   0.00000  Uiso   1.00
C284   C     0.93603   0.42352   0.05384   0.00000  Uiso   1.00
C285   C     0.95264   0.25564   0.00123   0.00000  Uiso   1.00
C286   C     0.84017   0.69450   0.19898   0.00000  Uiso   1.00
C287   C     0.83532   0.71744   0.27313   0.00000  Uiso   1.00
C288   C     0.78756   0.70800   0.32363   0.00000  Uiso   1.00
C289   C     0.71825   0.70480   0.42715   0.00000  Uiso   1.00
C290   C     0.81266   0.64202   0.09238   0.00000  Uiso   1.00
C291   C     0.83730   0.74513   0.05446   0.00000  Uiso   1.00
C292   C     0.82193   0.80455   0.00259   0.00000  Uiso   1.00
C293   C     0.84945   0.89647   0.97440   0.00000  Uiso   1.00
C294   C     0.85412   0.55715   0.07551   0.00000  Uiso   1.00
C295   C     0.85289   0.45852   0.04136   0.00000  Uiso   1.00
C296   C     0.89456   0.39218   0.03090   0.00000  Uiso   1.00
C297   C     0.79878   0.66322   0.17607   0.00000  Uiso   1.00
C298   C     0.75101   0.65373   0.22647   0.00000  Uiso   1.00
C299   C     0.74610   0.67666   0.30068   0.00000  Uiso   1.00
H300   H     0.92109   0.72395   0.15238   0.00000  Uiso   1.00
H301   H     0.93827   0.89244   0.06698   0.00000  Uiso   1.00
H302   H     0.96922   0.54646   0.10575   0.00000  Uiso   1.00
H303   H     0.86736   0.74164   0.29083   0.00000  Uiso   1.00
H304   H     0.93908   0.06542   0.96217   0.00000  Uiso   1.00
H305   H     0.00433   0.33588   0.04394   0.00000  Uiso   1.00
H306   H     0.78954   0.74747   0.43423   0.00000  Uiso   1.00
H307   H     0.78043   0.61766   0.07455   0.00000  Uiso   1.00
H308   H     0.78990   0.78032   0.98487   0.00000  Uiso   1.00
H309   H     0.82085   0.43434   0.02364   0.00000  Uiso   1.00
H310   H     0.71899   0.62952   0.20872   0.00000  Uiso   1.00
H311   H     0.81865   0.97442   0.89553   0.00000  Uiso   1.00
H312   H     0.88391   0.24488   0.97730   0.00000  Uiso   1.00
H313   H     0.66912   0.65647   0.36758   0.00000  Uiso   1.00
O314   O     0.88764   0.12882   0.87124   0.00000  Uiso   1.00
O315   O     0.97325   0.17169   0.97853   0.00000  Uiso   1.00
O316   O     0.69145   0.71169   0.49058   0.00000  Uiso   1.00
N317   N     0.90943   0.02169   0.95880   0.00000  Uiso   1.00
N318   N     0.97044   0.33963   0.03524   0.00000  Uiso   1.00
N319   N     0.76964   0.72440   0.40013   0.00000  Uiso   1.00
N320   N     0.84463   0.97273   0.92295   0.00000  Uiso   1.00
N321   N     0.90565   0.29066   0.99938   0.00000  Uiso   1.00
N322   N     0.70484   0.67543   0.36427   0.00000  Uiso   1.00
C323   C     0.38886   0.19961   0.13455   0.00000  Uiso   1.00
C324   C     0.37869   0.27642   0.07736   0.00000  Uiso   1.00
C325   C     0.40624   0.36826   0.04924   0.00000  Uiso   1.00
C326   C     0.39091   0.42780   0.99734   0.00000  Uiso   1.00
C327   C     0.38143   0.55179   0.91200   0.00000  Uiso   1.00
C328   C     0.39551   0.08844   0.09842   0.00000  Uiso   1.00
C329   C     0.43720   0.02223   0.08801   0.00000  Uiso   1.00
C330   C     0.43603   0.92352   0.05384   0.00000  Uiso   1.00
C331   C     0.45264   0.75564   0.00123   0.00000  Uiso   1.00
C332   C     0.34017   0.19450   0.19898   0.00000  Uiso   1.00
C333   C     0.33532   0.21744   0.27313   0.00000  Uiso   1.00
C334   C     0.28756   0.20800   0.32363   0.00000  Uiso   1.00
C335   C     0.21825   0.20480   0.42715   0.00000  Uiso   1.00
C336   C     0.31266   0.14202   0.09238   0.00000  Uiso   1.00
C337   C     0.33730   0.24513   0.05446   0.00000  Uiso   1.00
C338   C     0.32193   0.30455   0.00259   0.00000  Uiso   1.00
C339   C     0.34945   0.39647   0.97440   0.00000  Uiso   1.00
C340   C     0.35412   0.05715   0.07551   0.00000  Uiso   1.00
C341   C     0.35289   0.95852   0.04136   0.00000  Uiso   1.00
C342   C     0.39456   0.89218   0.03090   0.00000  Uiso   1.00
C343   C     0.29878   0.16322   0.17607   0.00000  Uiso   1.00
C344   C     0.25101   0.15373   0.22647   0.00000  Uiso   1.00
C345   C     0.24610   0.17666   0.30068   0.00000  Uiso   1.00
H346   H     0.42109   0.22395   0.15238   0.00000  Uiso   1.00
H347   H     0.43827   0.39244   0.06698   0.00000  Uiso   1.00
H348   H     0.46922   0.04646   0.10575   0.00000  Uiso   1.00
H349   H     0.36736   0.24164   0.29083   0.00000  Uiso   1.00
H350   H     0.43908   0.56542   0.96217   0.00000  Uiso   1.00
H351   H     0.50433   0.83588   0.04394   0.00000  Uiso   1.00
H352   H     0.28954   0.24747   0.43423   0.00000  Uiso   1.00
H353   H     0.28043   0.11766   0.07455   0.00000  Uiso   1.00
H354   H     0.28990   0.28032   0.98487   0.00000  Uiso   1.00
H355   H     0.32085   0.93434   0.02364   0.00000  Uiso   1.00
H356   H     0.21899   0.12952   0.20872   0.00000  Uiso   1.00
H357   H     0.31865   0.47442   0.89553   0.00000  Uiso   1.00
H358   H     0.38391   0.74488   0.97730   0.00000  Uiso   1.00
H359   H     0.16912   0.15647   0.36758   0.00000  Uiso   1.00
O360   O     0.38764   0.62882   0.87124   0.00000  Uiso   1.00
O361   O     0.47325   0.67169   0.97853   0.00000  Uiso   1.00
O362   O     0.19145   0.21169   0.49058   0.00000  Uiso   1.00
N363   N     0.40943   0.52169   0.95880   0.00000  Uiso   1.00
N364   N     0.47044   0.83963   0.03524   0.00000  Uiso   1.00
N365   N     0.26964   0.22440   0.40013   0.00000  Uiso   1.00
N366   N     0.34463   0.47273   0.92295   0.00000  Uiso   1.00
N367   N     0.40565   0.79066   0.99938   0.00000  Uiso   1.00
N368   N     0.20484   0.17543   0.36427   0.00000  Uiso   1.00
