data_job_04879
_audit_creation_date              2018-12-19
_audit_creation_method            'Materials Studio'
_symmetry_space_group_name_H-M    'P1'
_symmetry_Int_Tables_number       1
_symmetry_cell_setting            triclinic
loop_
_symmetry_equiv_pos_as_xyz
  x,y,z
_cell_length_a                    12.1244
_cell_length_b                    9.8314
_cell_length_c                    23.9456
_cell_angle_alpha                 90.0000
_cell_angle_beta                  87.8569
_cell_angle_gamma                 90.0000
loop_
_atom_site_label
_atom_site_type_symbol
_atom_site_fract_x
_atom_site_fract_y
_atom_site_fract_z
_atom_site_U_iso_or_equiv
_atom_site_adp_type
_atom_site_occupancy
C1     C     0.76645   0.25023   0.86486   0.00000  Uiso   1.00
C2     C     0.71772   0.31457   0.91822   0.00000  Uiso   1.00
C3     C     0.66361   0.24557   0.96175   0.00000  Uiso   1.00
C4     C     0.62503   0.32282   0.00692   0.00000  Uiso   1.00
C5     C     0.54702   0.40126   0.08953   0.00000  Uiso   1.00
C6     C     0.71276   0.32313   0.81666   0.00000  Uiso   1.00
C7     C     0.65449   0.26131   0.77480   0.00000  Uiso   1.00
C8     C     0.61175   0.34576   0.73447   0.00000  Uiso   1.00
C9     C     0.52612   0.43747   0.65939   0.00000  Uiso   1.00
C10    C     0.88784   0.29110   0.86162   0.00000  Uiso   1.00
C11    C     0.97680   0.20236   0.85754   0.00000  Uiso   1.00
C12    C     0.08147   0.25985   0.85505   0.00000  Uiso   1.00
C13    C     0.26768   0.30183   0.84977   0.00000  Uiso   1.00
C14    C     0.79415   0.51012   0.86767   0.00000  Uiso   1.00
C15    C     0.73276   0.45574   0.91974   0.00000  Uiso   1.00
C16    C     0.69426   0.53311   0.96486   0.00000  Uiso   1.00
C17    C     0.64011   0.46423   0.00845   0.00000  Uiso   1.00
C18    C     0.72780   0.46428   0.81819   0.00000  Uiso   1.00
C19    C     0.68515   0.54885   0.77791   0.00000  Uiso   1.00
C20    C     0.62683   0.48718   0.73600   0.00000  Uiso   1.00
C21    C     0.90289   0.43226   0.86314   0.00000  Uiso   1.00
C22    C     0.00745   0.48990   0.86065   0.00000  Uiso   1.00
C23    C     0.09654   0.40126   0.85658   0.00000  Uiso   1.00
H24    H     0.75473   0.14033   0.86366   0.00000  Uiso   1.00
H25    H     0.65197   0.13633   0.96055   0.00000  Uiso   1.00
H26    H     0.64287   0.15206   0.77362   0.00000  Uiso   1.00
H27    H     0.96512   0.09312   0.85636   0.00000  Uiso   1.00
H28    H     0.54464   0.19415   0.06862   0.00000  Uiso   1.00
H29    H     0.52549   0.22732   0.67448   0.00000  Uiso   1.00
H30    H     0.20502   0.10303   0.84893   0.00000  Uiso   1.00
H31    H     0.80587   0.62003   0.86886   0.00000  Uiso   1.00
H32    H     0.70592   0.64235   0.96603   0.00000  Uiso   1.00
H33    H     0.69681   0.65808   0.77911   0.00000  Uiso   1.00
H34    H     0.01906   0.59914   0.86184   0.00000  Uiso   1.00
H35    H     0.58842   0.60485   0.07307   0.00000  Uiso   1.00
H36    H     0.56927   0.63803   0.67892   0.00000  Uiso   1.00
H37    H     0.24879   0.51374   0.85338   0.00000  Uiso   1.00
O38    O     0.49983   0.40553   0.13467   0.00000  Uiso   1.00
O39    O     0.47472   0.44905   0.61756   0.00000  Uiso   1.00
O40    O     0.36623   0.28599   0.84644   0.00000  Uiso   1.00
N41    N     0.56868   0.28774   0.05634   0.00000  Uiso   1.00
N42    N     0.55076   0.31876   0.68784   0.00000  Uiso   1.00
N43    N     0.18606   0.20256   0.85092   0.00000  Uiso   1.00
N44    N     0.59224   0.50874   0.05873   0.00000  Uiso   1.00
N45    N     0.57432   0.53976   0.69024   0.00000  Uiso   1.00
N46    N     0.20962   0.42356   0.85332   0.00000  Uiso   1.00
C47    C     0.23355   0.75023   0.63514   0.00000  Uiso   1.00
C48    C     0.28228   0.81457   0.58178   0.00000  Uiso   1.00
C49    C     0.33639   0.74557   0.53825   0.00000  Uiso   1.00
C50    C     0.37497   0.82282   0.49308   0.00000  Uiso   1.00
C51    C     0.45298   0.90126   0.41047   0.00000  Uiso   1.00
C52    C     0.28724   0.82313   0.68334   0.00000  Uiso   1.00
C53    C     0.34551   0.76131   0.72520   0.00000  Uiso   1.00
C54    C     0.38825   0.84576   0.76553   0.00000  Uiso   1.00
C55    C     0.47388   0.93747   0.84061   0.00000  Uiso   1.00
C56    C     0.11216   0.79110   0.63838   0.00000  Uiso   1.00
C57    C     0.02320   0.70236   0.64246   0.00000  Uiso   1.00
C58    C     0.91853   0.75985   0.64495   0.00000  Uiso   1.00
C59    C     0.73232   0.80183   0.65023   0.00000  Uiso   1.00
C60    C     0.20585   0.01012   0.63233   0.00000  Uiso   1.00
C61    C     0.26724   0.95574   0.58026   0.00000  Uiso   1.00
C62    C     0.30574   0.03311   0.53514   0.00000  Uiso   1.00
C63    C     0.35989   0.96423   0.49155   0.00000  Uiso   1.00
C64    C     0.27220   0.96428   0.68181   0.00000  Uiso   1.00
C65    C     0.31485   0.04885   0.72209   0.00000  Uiso   1.00
C66    C     0.37317   0.98718   0.76400   0.00000  Uiso   1.00
C67    C     0.09711   0.93226   0.63686   0.00000  Uiso   1.00
C68    C     0.99255   0.98990   0.63935   0.00000  Uiso   1.00
C69    C     0.90346   0.90126   0.64342   0.00000  Uiso   1.00
H70    H     0.24527   0.64033   0.63634   0.00000  Uiso   1.00
H71    H     0.34803   0.63633   0.53945   0.00000  Uiso   1.00
H72    H     0.35713   0.65206   0.72638   0.00000  Uiso   1.00
H73    H     0.03488   0.59312   0.64364   0.00000  Uiso   1.00
H74    H     0.45536   0.69415   0.43138   0.00000  Uiso   1.00
H75    H     0.47451   0.72732   0.82552   0.00000  Uiso   1.00
H76    H     0.79498   0.60303   0.65107   0.00000  Uiso   1.00
H77    H     0.19413   0.12003   0.63114   0.00000  Uiso   1.00
H78    H     0.29408   0.14235   0.53397   0.00000  Uiso   1.00
H79    H     0.30319   0.15808   0.72089   0.00000  Uiso   1.00
H80    H     0.98094   0.09914   0.63816   0.00000  Uiso   1.00
H81    H     0.41158   0.10485   0.42693   0.00000  Uiso   1.00
H82    H     0.43073   0.13803   0.82108   0.00000  Uiso   1.00
H83    H     0.75121   0.01374   0.64662   0.00000  Uiso   1.00
O84    O     0.50017   0.90553   0.36533   0.00000  Uiso   1.00
O85    O     0.52528   0.94905   0.88244   0.00000  Uiso   1.00
O86    O     0.63377   0.78599   0.65356   0.00000  Uiso   1.00
N87    N     0.43132   0.78774   0.44366   0.00000  Uiso   1.00
N88    N     0.44924   0.81876   0.81216   0.00000  Uiso   1.00
N89    N     0.81394   0.70256   0.64908   0.00000  Uiso   1.00
N90    N     0.40776   0.00874   0.44127   0.00000  Uiso   1.00
N91    N     0.42568   0.03976   0.80976   0.00000  Uiso   1.00
N92    N     0.79038   0.92356   0.64668   0.00000  Uiso   1.00
C93    C     0.23355   0.74977   0.13514   0.00000  Uiso   1.00
C94    C     0.28228   0.68543   0.08178   0.00000  Uiso   1.00
C95    C     0.33639   0.75443   0.03825   0.00000  Uiso   1.00
C96    C     0.37497   0.67718   0.99308   0.00000  Uiso   1.00
C97    C     0.45298   0.59874   0.91047   0.00000  Uiso   1.00
C98    C     0.28724   0.67687   0.18334   0.00000  Uiso   1.00
C99    C     0.34551   0.73869   0.22520   0.00000  Uiso   1.00
C100   C     0.38825   0.65424   0.26553   0.00000  Uiso   1.00
C101   C     0.47388   0.56253   0.34061   0.00000  Uiso   1.00
C102   C     0.11216   0.70890   0.13838   0.00000  Uiso   1.00
C103   C     0.02320   0.79764   0.14246   0.00000  Uiso   1.00
C104   C     0.91853   0.74015   0.14495   0.00000  Uiso   1.00
C105   C     0.73232   0.69817   0.15023   0.00000  Uiso   1.00
C106   C     0.20585   0.48988   0.13233   0.00000  Uiso   1.00
C107   C     0.26724   0.54426   0.08026   0.00000  Uiso   1.00
C108   C     0.30574   0.46689   0.03514   0.00000  Uiso   1.00
C109   C     0.35989   0.53577   0.99155   0.00000  Uiso   1.00
C110   C     0.27220   0.53572   0.18181   0.00000  Uiso   1.00
C111   C     0.31485   0.45115   0.22209   0.00000  Uiso   1.00
C112   C     0.37317   0.51282   0.26400   0.00000  Uiso   1.00
C113   C     0.09711   0.56774   0.13686   0.00000  Uiso   1.00
C114   C     0.99255   0.51010   0.13935   0.00000  Uiso   1.00
C115   C     0.90346   0.59874   0.14342   0.00000  Uiso   1.00
H116   H     0.24527   0.85967   0.13634   0.00000  Uiso   1.00
H117   H     0.34803   0.86367   0.03945   0.00000  Uiso   1.00
H118   H     0.35713   0.84794   0.22638   0.00000  Uiso   1.00
H119   H     0.03488   0.90688   0.14364   0.00000  Uiso   1.00
H120   H     0.45536   0.80585   0.93138   0.00000  Uiso   1.00
H121   H     0.47451   0.77268   0.32552   0.00000  Uiso   1.00
H122   H     0.79498   0.89697   0.15107   0.00000  Uiso   1.00
H123   H     0.19413   0.37997   0.13114   0.00000  Uiso   1.00
H124   H     0.29408   0.35765   0.03397   0.00000  Uiso   1.00
H125   H     0.30319   0.34192   0.22089   0.00000  Uiso   1.00
H126   H     0.98094   0.40086   0.13816   0.00000  Uiso   1.00
H127   H     0.41158   0.39515   0.92693   0.00000  Uiso   1.00
H128   H     0.43073   0.36197   0.32108   0.00000  Uiso   1.00
H129   H     0.75121   0.48626   0.14662   0.00000  Uiso   1.00
O130   O     0.50017   0.59447   0.86533   0.00000  Uiso   1.00
O131   O     0.52528   0.55095   0.38244   0.00000  Uiso   1.00
O132   O     0.63377   0.71401   0.15356   0.00000  Uiso   1.00
N133   N     0.43132   0.71226   0.94366   0.00000  Uiso   1.00
N134   N     0.44924   0.68124   0.31216   0.00000  Uiso   1.00
N135   N     0.81394   0.79744   0.14908   0.00000  Uiso   1.00
N136   N     0.40776   0.49126   0.94127   0.00000  Uiso   1.00
N137   N     0.42568   0.46024   0.30976   0.00000  Uiso   1.00
N138   N     0.79038   0.57644   0.14668   0.00000  Uiso   1.00
C139   C     0.76645   0.24977   0.36486   0.00000  Uiso   1.00
C140   C     0.71772   0.18543   0.41822   0.00000  Uiso   1.00
C141   C     0.66361   0.25443   0.46175   0.00000  Uiso   1.00
C142   C     0.62503   0.17718   0.50692   0.00000  Uiso   1.00
C143   C     0.54702   0.09874   0.58953   0.00000  Uiso   1.00
C144   C     0.71276   0.17687   0.31666   0.00000  Uiso   1.00
C145   C     0.65449   0.23869   0.27480   0.00000  Uiso   1.00
C146   C     0.61175   0.15424   0.23447   0.00000  Uiso   1.00
C147   C     0.52612   0.06253   0.15939   0.00000  Uiso   1.00
C148   C     0.88784   0.20890   0.36162   0.00000  Uiso   1.00
C149   C     0.97680   0.29764   0.35754   0.00000  Uiso   1.00
C150   C     0.08147   0.24015   0.35505   0.00000  Uiso   1.00
C151   C     0.26768   0.19817   0.34977   0.00000  Uiso   1.00
C152   C     0.79415   0.98988   0.36767   0.00000  Uiso   1.00
C153   C     0.73276   0.04426   0.41974   0.00000  Uiso   1.00
C154   C     0.69426   0.96689   0.46486   0.00000  Uiso   1.00
C155   C     0.64011   0.03577   0.50845   0.00000  Uiso   1.00
C156   C     0.72780   0.03572   0.31819   0.00000  Uiso   1.00
C157   C     0.68515   0.95115   0.27791   0.00000  Uiso   1.00
C158   C     0.62683   0.01282   0.23600   0.00000  Uiso   1.00
C159   C     0.90289   0.06774   0.36314   0.00000  Uiso   1.00
C160   C     0.00745   0.01010   0.36065   0.00000  Uiso   1.00
C161   C     0.09654   0.09874   0.35658   0.00000  Uiso   1.00
H162   H     0.75473   0.35967   0.36366   0.00000  Uiso   1.00
H163   H     0.65197   0.36367   0.46055   0.00000  Uiso   1.00
H164   H     0.64287   0.34794   0.27362   0.00000  Uiso   1.00
H165   H     0.96512   0.40688   0.35636   0.00000  Uiso   1.00
H166   H     0.54464   0.30585   0.56862   0.00000  Uiso   1.00
H167   H     0.52549   0.27268   0.17448   0.00000  Uiso   1.00
H168   H     0.20502   0.39697   0.34893   0.00000  Uiso   1.00
H169   H     0.80587   0.87997   0.36886   0.00000  Uiso   1.00
H170   H     0.70592   0.85765   0.46603   0.00000  Uiso   1.00
H171   H     0.69681   0.84192   0.27911   0.00000  Uiso   1.00
H172   H     0.01906   0.90086   0.36184   0.00000  Uiso   1.00
H173   H     0.58842   0.89515   0.57307   0.00000  Uiso   1.00
H174   H     0.56927   0.86197   0.17892   0.00000  Uiso   1.00
H175   H     0.24879   0.98626   0.35338   0.00000  Uiso   1.00
O176   O     0.49983   0.09447   0.63467   0.00000  Uiso   1.00
O177   O     0.47472   0.05095   0.11756   0.00000  Uiso   1.00
O178   O     0.36623   0.21401   0.34644   0.00000  Uiso   1.00
N179   N     0.56868   0.21226   0.55634   0.00000  Uiso   1.00
N180   N     0.55076   0.18124   0.18784   0.00000  Uiso   1.00
N181   N     0.18606   0.29744   0.35092   0.00000  Uiso   1.00
N182   N     0.59224   0.99126   0.55873   0.00000  Uiso   1.00
N183   N     0.57432   0.96024   0.19024   0.00000  Uiso   1.00
N184   N     0.20962   0.07644   0.35332   0.00000  Uiso   1.00
