data_job_06646
_audit_creation_date              2018-12-19
_audit_creation_method            'Materials Studio'
_symmetry_space_group_name_H-M    'P1'
_symmetry_Int_Tables_number       1
_symmetry_cell_setting            triclinic
loop_
_symmetry_equiv_pos_as_xyz
  x,y,z
_cell_length_a                    20.3493
_cell_length_b                    22.0187
_cell_length_c                    20.8362
_cell_angle_alpha                 77.2991
_cell_angle_beta                  91.1681
_cell_angle_gamma                 103.2080
loop_
_atom_site_label
_atom_site_type_symbol
_atom_site_fract_x
_atom_site_fract_y
_atom_site_fract_z
_atom_site_U_iso_or_equiv
_atom_site_adp_type
_atom_site_occupancy
C1     C     0.84047   0.27774   0.32578   0.00000  Uiso   1.00
C2     C     0.80356   0.27255   0.39042   0.00000  Uiso   1.00
C3     C     0.76146   0.21761   0.42700   0.00000  Uiso   1.00
C4     C     0.73245   0.22273   0.48474   0.00000  Uiso   1.00
C5     C     0.67318   0.20587   0.58199   0.00000  Uiso   1.00
C6     C     0.81871   0.33083   0.27593   0.00000  Uiso   1.00
C7     C     0.78936   0.32488   0.21625   0.00000  Uiso   1.00
C8     C     0.77311   0.37906   0.17761   0.00000  Uiso   1.00
C9     C     0.73741   0.45268   0.09709   0.00000  Uiso   1.00
C10    C     0.91514   0.30302   0.33670   0.00000  Uiso   1.00
C11    C     0.96687   0.27370   0.32808   0.00000  Uiso   1.00
C12    C     0.03181   0.30448   0.34059   0.00000  Uiso   1.00
C13    C     0.14582   0.33491   0.35441   0.00000  Uiso   1.00
C14    C     0.86383   0.38453   0.36328   0.00000  Uiso   1.00
C15    C     0.81625   0.33056   0.41079   0.00000  Uiso   1.00
C16    C     0.78730   0.33576   0.46849   0.00000  Uiso   1.00
C17    C     0.74516   0.28084   0.50515   0.00000  Uiso   1.00
C18    C     0.83140   0.38883   0.29630   0.00000  Uiso   1.00
C19    C     0.81519   0.44304   0.25774   0.00000  Uiso   1.00
C20    C     0.78582   0.43718   0.19801   0.00000  Uiso   1.00
C21    C     0.92782   0.36102   0.35707   0.00000  Uiso   1.00
C22    C     0.99270   0.39185   0.36958   0.00000  Uiso   1.00
C23    C     0.04452   0.36259   0.36099   0.00000  Uiso   1.00
H24    H     0.83060   0.23258   0.30992   0.00000  Uiso   1.00
H25    H     0.75165   0.17273   0.41122   0.00000  Uiso   1.00
H26    H     0.77955   0.27999   0.20049   0.00000  Uiso   1.00
H27    H     0.95703   0.22881   0.31232   0.00000  Uiso   1.00
H28    H     0.66970   0.13197   0.53249   0.00000  Uiso   1.00
H29    H     0.72855   0.35813   0.08816   0.00000  Uiso   1.00
H30    H     0.10280   0.25021   0.32396   0.00000  Uiso   1.00
H31    H     0.87370   0.42969   0.37914   0.00000  Uiso   1.00
H32    H     0.79712   0.38066   0.48424   0.00000  Uiso   1.00
H33    H     0.82502   0.48792   0.27351   0.00000  Uiso   1.00
H34    H     0.00250   0.43674   0.38534   0.00000  Uiso   1.00
H35    H     0.70660   0.30073   0.59175   0.00000  Uiso   1.00
H36    H     0.76546   0.52689   0.14742   0.00000  Uiso   1.00
H37    H     0.13971   0.41898   0.38323   0.00000  Uiso   1.00
O38    O     0.63698   0.18054   0.63000   0.00000  Uiso   1.00
O39    O     0.71421   0.47726   0.04705   0.00000  Uiso   1.00
O40    O     0.20521   0.33567   0.35642   0.00000  Uiso   1.00
N41    N     0.68891   0.17841   0.53202   0.00000  Uiso   1.00
N42    N     0.74392   0.38986   0.11660   0.00000  Uiso   1.00
N43    N     0.09381   0.28897   0.33704   0.00000  Uiso   1.00
N44    N     0.70876   0.26922   0.56391   0.00000  Uiso   1.00
N45    N     0.76378   0.48067   0.14849   0.00000  Uiso   1.00
N46    N     0.11367   0.37978   0.36893   0.00000  Uiso   1.00
C47    C     0.43116   0.85400   0.19075   0.00000  Uiso   1.00
C48    C     0.46071   0.79768   0.18485   0.00000  Uiso   1.00
C49    C     0.49011   0.79041   0.12833   0.00000  Uiso   1.00
C50    C     0.51413   0.73548   0.13303   0.00000  Uiso   1.00
C51    C     0.56078   0.65500   0.11487   0.00000  Uiso   1.00
C52    C     0.35824   0.82540   0.21549   0.00000  Uiso   1.00
C53    C     0.30149   0.84145   0.18473   0.00000  Uiso   1.00
C54    C     0.23924   0.80985   0.21523   0.00000  Uiso   1.00
C55    C     0.12681   0.77245   0.24466   0.00000  Uiso   1.00
C56    C     0.46792   0.88092   0.24650   0.00000  Uiso   1.00
C57    C     0.50337   0.94365   0.24183   0.00000  Uiso   1.00
C58    C     0.53346   0.95881   0.29844   0.00000  Uiso   1.00
C59    C     0.59132   0.00761   0.37602   0.00000  Uiso   1.00
C60    C     0.42154   0.76938   0.29960   0.00000  Uiso   1.00
C61    C     0.45548   0.75172   0.24398   0.00000  Uiso   1.00
C62    C     0.47946   0.69678   0.24876   0.00000  Uiso   1.00
C63    C     0.50889   0.68943   0.19226   0.00000  Uiso   1.00
C64    C     0.35302   0.77944   0.27461   0.00000  Uiso   1.00
C65    C     0.29084   0.74782   0.30517   0.00000  Uiso   1.00
C66    C     0.23401   0.76380   0.27446   0.00000  Uiso   1.00
C67    C     0.46270   0.83496   0.30563   0.00000  Uiso   1.00
C68    C     0.49273   0.85002   0.36226   0.00000  Uiso   1.00
C69    C     0.52822   0.91276   0.35767   0.00000  Uiso   1.00
H70    H     0.43523   0.88979   0.14472   0.00000  Uiso   1.00
H71    H     0.49414   0.82599   0.08258   0.00000  Uiso   1.00
H72    H     0.30555   0.87702   0.13898   0.00000  Uiso   1.00
H73    H     0.50741   0.97921   0.19607   0.00000  Uiso   1.00
H74    H     0.55713   0.73498   0.03976   0.00000  Uiso   1.00
H75    H     0.15948   0.84260   0.15869   0.00000  Uiso   1.00
H76    H     0.58513   0.05808   0.27907   0.00000  Uiso   1.00
H77    H     0.41747   0.73359   0.34564   0.00000  Uiso   1.00
H78    H     0.47541   0.66122   0.29452   0.00000  Uiso   1.00
H79    H     0.28682   0.71225   0.35092   0.00000  Uiso   1.00
H80    H     0.48868   0.81444   0.40801   0.00000  Uiso   1.00
H81    H     0.54193   0.60124   0.21178   0.00000  Uiso   1.00
H82    H     0.14427   0.70887   0.33071   0.00000  Uiso   1.00
H83    H     0.56993   0.92435   0.45108   0.00000  Uiso   1.00
O84    O     0.58795   0.62331   0.08851   0.00000  Uiso   1.00
O85    O     0.06624   0.76452   0.24455   0.00000  Uiso   1.00
O86    O     0.62469   0.04722   0.40248   0.00000  Uiso   1.00
N87    N     0.54561   0.71344   0.08726   0.00000  Uiso   1.00
N88    N     0.17383   0.81405   0.19845   0.00000  Uiso   1.00
N89    N     0.57177   0.01552   0.31100   0.00000  Uiso   1.00
N90    N     0.53743   0.64148   0.17982   0.00000  Uiso   1.00
N91    N     0.16565   0.74209   0.29101   0.00000  Uiso   1.00
N92    N     0.56359   0.94356   0.40356   0.00000  Uiso   1.00
C93    C     0.44134   0.47926   0.80341   0.00000  Uiso   1.00
C94    C     0.44981   0.49821   0.72861   0.00000  Uiso   1.00
C95    C     0.39819   0.50359   0.68467   0.00000  Uiso   1.00
C96    C     0.41633   0.52151   0.61814   0.00000  Uiso   1.00
C97    C     0.41924   0.54906   0.50529   0.00000  Uiso   1.00
C98    C     0.47223   0.42138   0.82515   0.00000  Uiso   1.00
C99    C     0.43944   0.36215   0.86239   0.00000  Uiso   1.00
C100   C     0.47646   0.31540   0.87713   0.00000  Uiso   1.00
C101   C     0.51418   0.22367   0.91421   0.00000  Uiso   1.00
C102   C     0.48698   0.53345   0.82906   0.00000  Uiso   1.00
C103   C     0.46661   0.56845   0.86960   0.00000  Uiso   1.00
C104   C     0.51605   0.61604   0.88765   0.00000  Uiso   1.00
C105   C     0.57667   0.69833   0.93079   0.00000  Uiso   1.00
C106   C     0.56538   0.50152   0.76339   0.00000  Uiso   1.00
C107   C     0.51719   0.51030   0.70687   0.00000  Uiso   1.00
C108   C     0.53542   0.52822   0.64039   0.00000  Uiso   1.00
C109   C     0.48383   0.53363   0.59636   0.00000  Uiso   1.00
C110   C     0.53960   0.43346   0.80341   0.00000  Uiso   1.00
C111   C     0.57668   0.38679   0.81811   0.00000  Uiso   1.00
C112   C     0.54396   0.32751   0.85536   0.00000  Uiso   1.00
C113   C     0.55435   0.54554   0.80732   0.00000  Uiso   1.00
C114   C     0.60384   0.59308   0.82531   0.00000  Uiso   1.00
C115   C     0.58355   0.62815   0.86587   0.00000  Uiso   1.00
H116   H     0.38889   0.46984   0.82034   0.00000  Uiso   1.00
H117   H     0.34605   0.49422   0.70151   0.00000  Uiso   1.00
H118   H     0.38731   0.35281   0.87921   0.00000  Uiso   1.00
H119   H     0.41447   0.55908   0.88641   0.00000  Uiso   1.00
H120   H     0.32827   0.52656   0.56018   0.00000  Uiso   1.00
H121   H     0.41526   0.22840   0.93489   0.00000  Uiso   1.00
H122   H     0.47253   0.66335   0.95008   0.00000  Uiso   1.00
H123   H     0.61783   0.51094   0.74646   0.00000  Uiso   1.00
H124   H     0.58756   0.53758   0.62358   0.00000  Uiso   1.00
H125   H     0.62881   0.39616   0.80128   0.00000  Uiso   1.00
H126   H     0.65597   0.60243   0.80848   0.00000  Uiso   1.00
H127   H     0.52429   0.56174   0.49693   0.00000  Uiso   1.00
H128   H     0.61128   0.26358   0.87163   0.00000  Uiso   1.00
H129   H     0.66855   0.69853   0.88682   0.00000  Uiso   1.00
O130   O     0.40223   0.56091   0.44905   0.00000  Uiso   1.00
O131   O     0.51636   0.16974   0.94066   0.00000  Uiso   1.00
O132   O     0.59150   0.74038   0.96058   0.00000  Uiso   1.00
N133   N     0.37856   0.53120   0.56216   0.00000  Uiso   1.00
N134   N     0.45989   0.25243   0.91248   0.00000  Uiso   1.00
N135   N     0.51343   0.65906   0.92669   0.00000  Uiso   1.00
N136   N     0.48403   0.55013   0.52812   0.00000  Uiso   1.00
N137   N     0.56536   0.27136   0.87844   0.00000  Uiso   1.00
N138   N     0.61891   0.67799   0.89265   0.00000  Uiso   1.00
C139   C     0.37422   0.94458   0.73469   0.00000  Uiso   1.00
C140   C     0.30714   0.96461   0.73299   0.00000  Uiso   1.00
C141   C     0.26887   0.97666   0.67773   0.00000  Uiso   1.00
C142   C     0.20899   0.99441   0.68638   0.00000  Uiso   1.00
C143   C     0.10797   0.02464   0.67435   0.00000  Uiso   1.00
C144   C     0.36455   0.88201   0.78627   0.00000  Uiso   1.00
C145   C     0.37457   0.82463   0.77582   0.00000  Uiso   1.00
C146   C     0.36303   0.77284   0.82933   0.00000  Uiso   1.00
C147   C     0.35120   0.67486   0.90003   0.00000  Uiso   1.00
C148   C     0.42472   0.99402   0.76269   0.00000  Uiso   1.00
C149   C     0.48534   0.03081   0.73243   0.00000  Uiso   1.00
C150   C     0.52447   0.07332   0.76610   0.00000  Uiso   1.00
C151   C     0.60606   0.14925   0.80020   0.00000  Uiso   1.00
C152   C     0.33592   0.95466   0.84832   0.00000  Uiso   1.00
C153   C     0.28633   0.97008   0.79471   0.00000  Uiso   1.00
C154   C     0.22649   0.98781   0.80345   0.00000  Uiso   1.00
C155   C     0.18815   0.99989   0.74821   0.00000  Uiso   1.00
C156   C     0.34375   0.88748   0.84799   0.00000  Uiso   1.00
C157   C     0.33219   0.83577   0.90153   0.00000  Uiso   1.00
C158   C     0.34218   0.77832   0.89116   0.00000  Uiso   1.00
C159   C     0.40392   0.99950   0.82441   0.00000  Uiso   1.00
C160   C     0.44296   0.04196   0.85814   0.00000  Uiso   1.00
C161   C     0.50363   0.07880   0.82793   0.00000  Uiso   1.00
H162   H     0.39042   0.94032   0.68664   0.00000  Uiso   1.00
H163   H     0.28499   0.97242   0.62997   0.00000  Uiso   1.00
H164   H     0.39068   0.82041   0.72805   0.00000  Uiso   1.00
H165   H     0.50143   0.02656   0.68466   0.00000  Uiso   1.00
H166   H     0.15891   0.01040   0.59437   0.00000  Uiso   1.00
H167   H     0.38178   0.68988   0.80117   0.00000  Uiso   1.00
H168   H     0.61533   0.12459   0.70969   0.00000  Uiso   1.00
H169   H     0.31972   0.95891   0.89638   0.00000  Uiso   1.00
H170   H     0.21041   0.99204   0.85122   0.00000  Uiso   1.00
H171   H     0.31609   0.84003   0.94929   0.00000  Uiso   1.00
H172   H     0.42685   0.04618   0.90591   0.00000  Uiso   1.00
H173   H     0.09837   0.02632   0.77394   0.00000  Uiso   1.00
H174   H     0.32125   0.70580   0.98074   0.00000  Uiso   1.00
H175   H     0.55479   0.14051   0.88925   0.00000  Uiso   1.00
O176   O     0.05800   0.03979   0.65066   0.00000  Uiso   1.00
O177   O     0.35041   0.61929   0.92198   0.00000  Uiso   1.00
O178   O     0.65681   0.18962   0.80195   0.00000  Uiso   1.00
N179   N     0.15967   0.00961   0.64282   0.00000  Uiso   1.00
N180   N     0.36803   0.70995   0.83617   0.00000  Uiso   1.00
N181   N     0.58638   0.11635   0.75065   0.00000  Uiso   1.00
N182   N     0.12710   0.01818   0.73945   0.00000  Uiso   1.00
N183   N     0.33546   0.71851   0.93279   0.00000  Uiso   1.00
N184   N     0.55381   0.12492   0.84727   0.00000  Uiso   1.00
C185   C     0.88497   0.81686   0.40121   0.00000  Uiso   1.00
C186   C     0.83698   0.84610   0.35342   0.00000  Uiso   1.00
C187   C     0.83191   0.84423   0.28733   0.00000  Uiso   1.00
C188   C     0.78488   0.87379   0.25196   0.00000  Uiso   1.00
C189   C     0.71650   0.91455   0.17325   0.00000  Uiso   1.00
C190   C     0.84070   0.77141   0.45804   0.00000  Uiso   1.00
C191   C     0.83877   0.70675   0.47991   0.00000  Uiso   1.00
C192   C     0.79489   0.67345   0.53261   0.00000  Uiso   1.00
C193   C     0.73232   0.59827   0.61635   0.00000  Uiso   1.00
C194   C     0.92617   0.87132   0.42967   0.00000  Uiso   1.00
C195   C     0.99610   0.89065   0.42770   0.00000  Uiso   1.00
C196   C     0.02417   0.94146   0.45653   0.00000  Uiso   1.00
C197   C     0.09430   0.02140   0.49620   0.00000  Uiso   1.00
C198   C     0.81047   0.87269   0.45592   0.00000  Uiso   1.00
C199   C     0.79651   0.87642   0.38314   0.00000  Uiso   1.00
C200   C     0.74948   0.90599   0.34786   0.00000  Uiso   1.00
C201   C     0.74434   0.90417   0.28173   0.00000  Uiso   1.00
C202   C     0.80023   0.80173   0.48776   0.00000  Uiso   1.00
C203   C     0.75634   0.76852   0.54044   0.00000  Uiso   1.00
C204   C     0.75435   0.70382   0.56239   0.00000  Uiso   1.00
C205   C     0.88570   0.90164   0.45938   0.00000  Uiso   1.00
C206   C     0.91367   0.95242   0.48823   0.00000  Uiso   1.00
C207   C     0.98363   0.97183   0.48630   0.00000  Uiso   1.00
H208   H     0.91647   0.79325   0.37808   0.00000  Uiso   1.00
H209   H     0.86323   0.82075   0.26435   0.00000  Uiso   1.00
H210   H     0.87010   0.68330   0.45691   0.00000  Uiso   1.00
H211   H     0.02740   0.86717   0.40470   0.00000  Uiso   1.00
H212   H     0.78634   0.86459   0.15138   0.00000  Uiso   1.00
H213   H     0.80084   0.57478   0.55740   0.00000  Uiso   1.00
H214   H     0.13254   0.96251   0.44731   0.00000  Uiso   1.00
H215   H     0.77896   0.89629   0.47906   0.00000  Uiso   1.00
H216   H     0.71817   0.92946   0.37087   0.00000  Uiso   1.00
H217   H     0.72504   0.79200   0.56343   0.00000  Uiso   1.00
H218   H     0.88234   0.97588   0.51122   0.00000  Uiso   1.00
H219   H     0.66860   0.95282   0.23784   0.00000  Uiso   1.00
H220   H     0.68310   0.66300   0.64386   0.00000  Uiso   1.00
H221   H     0.01480   0.05074   0.53377   0.00000  Uiso   1.00
O222   O     0.68995   0.92864   0.12162   0.00000  Uiso   1.00
O223   O     0.70898   0.54842   0.65432   0.00000  Uiso   1.00
O224   O     0.14416   0.05712   0.50987   0.00000  Uiso   1.00
N225   N     0.76698   0.88082   0.18657   0.00000  Uiso   1.00
N226   N     0.78053   0.60985   0.56617   0.00000  Uiso   1.00
N227   N     0.09064   0.97234   0.46326   0.00000  Uiso   1.00
N228   N     0.70363   0.92829   0.23309   0.00000  Uiso   1.00
N229   N     0.71718   0.65733   0.61269   0.00000  Uiso   1.00
N230   N     0.02729   0.01982   0.50978   0.00000  Uiso   1.00
C231   C     0.92140   0.23212   0.97036   0.00000  Uiso   1.00
C232   C     0.92494   0.16264   0.99659   0.00000  Uiso   1.00
C233   C     0.87042   0.11020   0.00687   0.00000  Uiso   1.00
C234   C     0.88418   0.05058   0.03115   0.00000  Uiso   1.00
C235   C     0.87966   0.94374   0.06980   0.00000  Uiso   1.00
C236   C     0.96865   0.25674   0.90971   0.00000  Uiso   1.00
C237   C     0.95087   0.28343   0.84695   0.00000  Uiso   1.00
C238   C     0.00143   0.30304   0.79810   0.00000  Uiso   1.00
C239   C     0.06478   0.34234   0.70187   0.00000  Uiso   1.00
C240   C     0.95381   0.26832   0.02178   0.00000  Uiso   1.00
C241   C     0.92356   0.30477   0.05325   0.00000  Uiso   1.00
C242   C     0.96163   0.33414   0.09874   0.00000  Uiso   1.00
C243   C     0.00193   0.39142   0.17653   0.00000  Uiso   1.00
C244   C     0.04282   0.21950   0.99519   0.00000  Uiso   1.00
C245   C     0.99089   0.15579   0.01007   0.00000  Uiso   1.00
C246   C     0.00475   0.09624   0.03434   0.00000  Uiso   1.00
C247   C     0.95025   0.04372   0.04466   0.00000  Uiso   1.00
C248   C     0.03460   0.24989   0.92319   0.00000  Uiso   1.00
C249   C     0.08520   0.26947   0.87442   0.00000  Uiso   1.00
C250   C     0.06750   0.29618   0.81161   0.00000  Uiso   1.00
C251   C     0.01976   0.26147   0.03527   0.00000  Uiso   1.00
C252   C     0.05789   0.29080   0.08072   0.00000  Uiso   1.00
C253   C     0.02770   0.32728   0.11225   0.00000  Uiso   1.00
H254   H     0.87006   0.23745   0.95985   0.00000  Uiso   1.00
H255   H     0.81939   0.11552   0.99642   0.00000  Uiso   1.00
H256   H     0.89983   0.28873   0.83653   0.00000  Uiso   1.00
H257   H     0.87252   0.31006   0.04280   0.00000  Uiso   1.00
H258   H     0.79230   0.97731   0.04289   0.00000  Uiso   1.00
H259   H     0.96192   0.34255   0.70575   0.00000  Uiso   1.00
H260   H     0.90433   0.38753   0.14070   0.00000  Uiso   1.00
H261   H     0.09416   0.21417   0.00568   0.00000  Uiso   1.00
H262   H     0.05579   0.09095   0.04477   0.00000  Uiso   1.00
H263   H     0.13623   0.26417   0.88488   0.00000  Uiso   1.00
H264   H     0.10892   0.28549   0.09114   0.00000  Uiso   1.00
H265   H     0.98417   0.95737   0.08213   0.00000  Uiso   1.00
H266   H     0.15379   0.32262   0.74499   0.00000  Uiso   1.00
H267   H     0.09621   0.36759   0.17994   0.00000  Uiso   1.00
O268   O     0.85895   0.88670   0.08738   0.00000  Uiso   1.00
O269   O     0.08149   0.36590   0.64507   0.00000  Uiso   1.00
O270   O     0.00594   0.42490   0.21571   0.00000  Uiso   1.00
N271   N     0.84272   0.98952   0.04678   0.00000  Uiso   1.00
N272   N     0.00130   0.33100   0.73157   0.00000  Uiso   1.00
N273   N     0.94747   0.37306   0.13820   0.00000  Uiso   1.00
N274   N     0.94596   0.97880   0.06789   0.00000  Uiso   1.00
N275   N     0.10455   0.32027   0.75268   0.00000  Uiso   1.00
N276   N     0.05072   0.36233   0.15931   0.00000  Uiso   1.00
C277   C     0.26085   0.72416   0.63150   0.00000  Uiso   1.00
C278   C     0.32922   0.70858   0.64867   0.00000  Uiso   1.00
C279   C     0.39077   0.74245   0.61817   0.00000  Uiso   1.00
C280   C     0.44757   0.72053   0.64105   0.00000  Uiso   1.00
C281   C     0.55445   0.70455   0.65988   0.00000  Uiso   1.00
C282   C     0.23138   0.73208   0.69506   0.00000  Uiso   1.00
C283   C     0.21066   0.78571   0.70356   0.00000  Uiso   1.00
C284   C     0.18509   0.78357   0.76550   0.00000  Uiso   1.00
C285   C     0.14003   0.80405   0.85635   0.00000  Uiso   1.00
C286   C     0.21607   0.66387   0.61581   0.00000  Uiso   1.00
C287   C     0.18245   0.66016   0.55767   0.00000  Uiso   1.00
C288   C     0.14398   0.60060   0.55289   0.00000  Uiso   1.00
C289   C     0.07514   0.51519   0.52068   0.00000  Uiso   1.00
C290   C     0.25228   0.62500   0.72638   0.00000  Uiso   1.00
C291   C     0.32457   0.65472   0.70021   0.00000  Uiso   1.00
C292   C     0.38129   0.63274   0.72314   0.00000  Uiso   1.00
C293   C     0.44291   0.66657   0.69267   0.00000  Uiso   1.00
C294   C     0.22673   0.67822   0.74660   0.00000  Uiso   1.00
C295   C     0.20118   0.67600   0.80853   0.00000  Uiso   1.00
C296   C     0.18043   0.72961   0.81713   0.00000  Uiso   1.00
C297   C     0.21142   0.61001   0.66734   0.00000  Uiso   1.00
C298   C     0.17298   0.55045   0.66265   0.00000  Uiso   1.00
C299   C     0.13932   0.54664   0.60452   0.00000  Uiso   1.00
H300   H     0.26447   0.76609   0.59139   0.00000  Uiso   1.00
H301   H     0.39435   0.78413   0.57829   0.00000  Uiso   1.00
H302   H     0.21426   0.82737   0.66367   0.00000  Uiso   1.00
H303   H     0.18607   0.70185   0.51781   0.00000  Uiso   1.00
H304   H     0.53629   0.78039   0.58651   0.00000  Uiso   1.00
H305   H     0.15655   0.87157   0.76654   0.00000  Uiso   1.00
H306   H     0.09709   0.60687   0.45895   0.00000  Uiso   1.00
H307   H     0.24866   0.58307   0.76651   0.00000  Uiso   1.00
H308   H     0.37768   0.59106   0.76302   0.00000  Uiso   1.00
H309   H     0.19759   0.63431   0.84840   0.00000  Uiso   1.00
H310   H     0.16939   0.50878   0.70254   0.00000  Uiso   1.00
H311   H     0.52276   0.62369   0.73645   0.00000  Uiso   1.00
H312   H     0.14302   0.71487   0.91647   0.00000  Uiso   1.00
H313   H     0.08356   0.45017   0.60889   0.00000  Uiso   1.00
O314   O     0.61469   0.71061   0.65604   0.00000  Uiso   1.00
O315   O     0.11647   0.83023   0.89222   0.00000  Uiso   1.00
O316   O     0.03846   0.48295   0.48867   0.00000  Uiso   1.00
N317   N     0.51540   0.74241   0.62227   0.00000  Uiso   1.00
N318   N     0.16037   0.82766   0.79059   0.00000  Uiso   1.00
N319   N     0.10477   0.58019   0.50302   0.00000  Uiso   1.00
N320   N     0.50812   0.65809   0.70295   0.00000  Uiso   1.00
N321   N     0.15309   0.74334   0.87126   0.00000  Uiso   1.00
N322   N     0.09749   0.49587   0.58370   0.00000  Uiso   1.00
C323   C     0.84165   0.17540   0.69833   0.00000  Uiso   1.00
C324   C     0.85638   0.24535   0.66175   0.00000  Uiso   1.00
C325   C     0.82467   0.29137   0.67393   0.00000  Uiso   1.00
C326   C     0.84534   0.35266   0.63510   0.00000  Uiso   1.00
C327   C     0.86054   0.45906   0.58581   0.00000  Uiso   1.00
C328   C     0.90882   0.16316   0.72521   0.00000  Uiso   1.00
C329   C     0.92120   0.14005   0.79075   0.00000  Uiso   1.00
C330   C     0.98602   0.13215   0.80532   0.00000  Uiso   1.00
C331   C     0.08262   0.11089   0.85455   0.00000  Uiso   1.00
C332   C     0.82357   0.13622   0.64591   0.00000  Uiso   1.00
C333   C     0.76426   0.09044   0.64479   0.00000  Uiso   1.00
C334   C     0.75731   0.05985   0.59262   0.00000  Uiso   1.00
C335   C     0.72154   0.99676   0.51873   0.00000  Uiso   1.00
C336   C     0.93476   0.20244   0.60768   0.00000  Uiso   1.00
C337   C     0.90696   0.26004   0.61251   0.00000  Uiso   1.00
C338   C     0.92768   0.32128   0.57365   0.00000  Uiso   1.00
C339   C     0.89600   0.36738   0.58577   0.00000  Uiso   1.00
C340   C     0.95940   0.17785   0.67597   0.00000  Uiso   1.00
C341   C     0.02421   0.16997   0.69046   0.00000  Uiso   1.00
C342   C     0.03668   0.14686   0.75600   0.00000  Uiso   1.00
C343   C     0.87414   0.15091   0.59668   0.00000  Uiso   1.00
C344   C     0.86728   0.12037   0.54450   0.00000  Uiso   1.00
C345   C     0.80798   0.07456   0.54330   0.00000  Uiso   1.00
H346   H     0.80228   0.16396   0.73666   0.00000  Uiso   1.00
H347   H     0.78553   0.27998   0.71205   0.00000  Uiso   1.00
H348   H     0.88205   0.12869   0.82883   0.00000  Uiso   1.00
H349   H     0.72514   0.07909   0.68290   0.00000  Uiso   1.00
H350   H     0.78929   0.41509   0.66306   0.00000  Uiso   1.00
H351   H     0.99278   0.09606   0.90931   0.00000  Uiso   1.00
H352   H     0.66191   0.99147   0.60158   0.00000  Uiso   1.00
H353   H     0.97414   0.21388   0.56935   0.00000  Uiso   1.00
H354   H     0.96682   0.33264   0.53555   0.00000  Uiso   1.00
H355   H     0.06334   0.18134   0.65234   0.00000  Uiso   1.00
H356   H     0.90643   0.13175   0.50641   0.00000  Uiso   1.00
H357   H     0.93643   0.45783   0.51981   0.00000  Uiso   1.00
H358   H     0.13993   0.13879   0.76607   0.00000  Uiso   1.00
H359   H     0.80906   0.03421   0.45834   0.00000  Uiso   1.00
O360   O     0.85496   0.51369   0.57223   0.00000  Uiso   1.00
O361   O     0.12193   0.09512   0.89531   0.00000  Uiso   1.00
O362   O     0.68784   0.95791   0.49157   0.00000  Uiso   1.00
N363   N     0.82491   0.40885   0.63397   0.00000  Uiso   1.00
N364   N     0.01517   0.11058   0.86421   0.00000  Uiso   1.00
N365   N     0.70584   0.01279   0.57652   0.00000  Uiso   1.00
N366   N     0.90409   0.43185   0.55689   0.00000  Uiso   1.00
N367   N     0.09435   0.13358   0.78713   0.00000  Uiso   1.00
N368   N     0.78502   0.03578   0.49944   0.00000  Uiso   1.00
C369   C     0.73973   0.65387   0.28948   0.00000  Uiso   1.00
C370   C     0.80419   0.63835   0.32035   0.00000  Uiso   1.00
C371   C     0.86955   0.66881   0.29731   0.00000  Uiso   1.00
C372   C     0.92174   0.64759   0.33248   0.00000  Uiso   1.00
C373   C     0.02379   0.63109   0.37188   0.00000  Uiso   1.00
C374   C     0.70085   0.66876   0.34367   0.00000  Uiso   1.00
C375   C     0.67931   0.72479   0.34022   0.00000  Uiso   1.00
C376   C     0.64449   0.72917   0.39502   0.00000  Uiso   1.00
C377   C     0.58605   0.75987   0.47060   0.00000  Uiso   1.00
C378   C     0.69800   0.59157   0.27533   0.00000  Uiso   1.00
C379   C     0.67404   0.58270   0.21443   0.00000  Uiso   1.00
C380   C     0.63680   0.52209   0.21171   0.00000  Uiso   1.00
C381   C     0.57394   0.43294   0.18118   0.00000  Uiso   1.00
C382   C     0.71618   0.56202   0.39293   0.00000  Uiso   1.00
C383   C     0.79140   0.58846   0.37654   0.00000  Uiso   1.00
C384   C     0.84350   0.56718   0.41175   0.00000  Uiso   1.00
C385   C     0.90893   0.59761   0.38877   0.00000  Uiso   1.00
C386   C     0.68806   0.61888   0.39985   0.00000  Uiso   1.00
C387   C     0.65326   0.62317   0.45467   0.00000  Uiso   1.00
C388   C     0.63168   0.67919   0.45131   0.00000  Uiso   1.00
C389   C     0.68521   0.54168   0.33151   0.00000  Uiso   1.00
C390   C     0.64800   0.48108   0.32888   0.00000  Uiso   1.00
C391   C     0.62399   0.47211   0.26799   0.00000  Uiso   1.00
H392   H     0.74968   0.69272   0.24575   0.00000  Uiso   1.00
H393   H     0.87943   0.70742   0.25383   0.00000  Uiso   1.00
H394   H     0.68921   0.76339   0.29674   0.00000  Uiso   1.00
H395   H     0.68395   0.62132   0.17097   0.00000  Uiso   1.00
H396   H     0.01764   0.70173   0.28759   0.00000  Uiso   1.00
H397   H     0.61653   0.81974   0.37804   0.00000  Uiso   1.00
H398   H     0.60543   0.52016   0.11284   0.00000  Uiso   1.00
H399   H     0.70622   0.52318   0.43667   0.00000  Uiso   1.00
H400   H     0.83359   0.52858   0.45523   0.00000  Uiso   1.00
H401   H     0.64337   0.58455   0.49814   0.00000  Uiso   1.00
H402   H     0.63811   0.44248   0.37237   0.00000  Uiso   1.00
H403   H     0.98044   0.55658   0.45105   0.00000  Uiso   1.00
H404   H     0.57933   0.67459   0.54151   0.00000  Uiso   1.00
H405   H     0.56823   0.37500   0.27630   0.00000  Uiso   1.00
O406   O     0.08361   0.63578   0.37810   0.00000  Uiso   1.00
O407   O     0.55736   0.79059   0.49677   0.00000  Uiso   1.00
O408   O     0.54280   0.39755   0.14882   0.00000  Uiso   1.00
N409   N     0.99140   0.66682   0.32350   0.00000  Uiso   1.00
N410   N     0.61640   0.77715   0.40808   0.00000  Uiso   1.00
N411   N     0.60601   0.49707   0.16014   0.00000  Uiso   1.00
N412   N     0.97139   0.58871   0.41146   0.00000  Uiso   1.00
N413   N     0.59638   0.69905   0.49604   0.00000  Uiso   1.00
N414   N     0.58599   0.41897   0.24810   0.00000  Uiso   1.00
C415   C     0.61050   0.16888   0.12008   0.00000  Uiso   1.00
C416   C     0.66444   0.14119   0.16041   0.00000  Uiso   1.00
C417   C     0.67563   0.14012   0.22653   0.00000  Uiso   1.00
C418   C     0.72745   0.11266   0.25445   0.00000  Uiso   1.00
C419   C     0.80526   0.07357   0.32269   0.00000  Uiso   1.00
C420   C     0.64789   0.21851   0.06171   0.00000  Uiso   1.00
C421   C     0.64515   0.28245   0.04485   0.00000  Uiso   1.00
C422   C     0.68303   0.32008   0.98967   0.00000  Uiso   1.00
C423   C     0.73511   0.40102   0.90465   0.00000  Uiso   1.00
C424   C     0.56862   0.11482   0.09150   0.00000  Uiso   1.00
C425   C     0.49923   0.09158   0.09967   0.00000  Uiso   1.00
C426   C     0.47037   0.04190   0.06956   0.00000  Uiso   1.00
C427   C     0.39937   0.96184   0.03079   0.00000  Uiso   1.00
C428   C     0.68264   0.12201   0.05207   0.00000  Uiso   1.00
C429   C     0.70362   0.11573   0.12347   0.00000  Uiso   1.00
C430   C     0.75543   0.08826   0.15129   0.00000  Uiso   1.00
C431   C     0.76669   0.08715   0.21745   0.00000  Uiso   1.00
C432   C     0.68707   0.19306   0.02478   0.00000  Uiso   1.00
C433   C     0.72496   0.23060   0.96961   0.00000  Uiso   1.00
C434   C     0.72229   0.29457   0.95267   0.00000  Uiso   1.00
C435   C     0.60780   0.08936   0.05456   0.00000  Uiso   1.00
C436   C     0.57904   0.03972   0.02443   0.00000  Uiso   1.00
C437   C     0.50962   0.01640   0.03255   0.00000  Uiso   1.00
H438   H     0.58000   0.18870   0.14883   0.00000  Uiso   1.00
H439   H     0.64530   0.15983   0.25510   0.00000  Uiso   1.00
H440   H     0.61482   0.30214   0.07344   0.00000  Uiso   1.00
H441   H     0.46893   0.11129   0.12825   0.00000  Uiso   1.00
H442   H     0.73499   0.11662   0.35662   0.00000  Uiso   1.00
H443   H     0.67071   0.41667   0.97357   0.00000  Uiso   1.00
H444   H     0.36305   0.01423   0.08915   0.00000  Uiso   1.00
H445   H     0.71314   0.10219   0.02331   0.00000  Uiso   1.00
H446   H     0.78575   0.06857   0.12270   0.00000  Uiso   1.00
H447   H     0.75527   0.21088   0.94103   0.00000  Uiso   1.00
H448   H     0.60937   0.02003   0.99585   0.00000  Uiso   1.00
H449   H     0.84898   0.04255   0.24916   0.00000  Uiso   1.00
H450   H     0.78470   0.34261   0.86610   0.00000  Uiso   1.00
H451   H     0.47705   0.94016   0.98169   0.00000  Uiso   1.00
O452   O     0.83736   0.05905   0.37053   0.00000  Uiso   1.00
O453   O     0.75302   0.45271   0.86797   0.00000  Uiso   1.00
O454   O     0.34938   0.92471   0.01962   0.00000  Uiso   1.00
N455   N     0.75184   0.10379   0.31770   0.00000  Uiso   1.00
N456   N     0.69176   0.38433   0.95957   0.00000  Uiso   1.00
N457   N     0.40412   0.00809   0.06761   0.00000  Uiso   1.00
N458   N     0.81318   0.06393   0.25987   0.00000  Uiso   1.00
N459   N     0.75310   0.34447   0.90174   0.00000  Uiso   1.00
N460   N     0.46546   0.96823   0.00979   0.00000  Uiso   1.00
C461   C     0.31973   0.30596   0.71547   0.00000  Uiso   1.00
C462   C     0.29961   0.26614   0.78478   0.00000  Uiso   1.00
C463   C     0.27941   0.28834   0.83681   0.00000  Uiso   1.00
C464   C     0.26310   0.24439   0.89634   0.00000  Uiso   1.00
C465   C     0.23131   0.19228   0.00288   0.00000  Uiso   1.00
C466   C     0.39066   0.29917   0.70147   0.00000  Uiso   1.00
C467   C     0.44700   0.34916   0.68343   0.00000  Uiso   1.00
C468   C     0.50733   0.33300   0.67282   0.00000  Uiso   1.00
C469   C     0.61689   0.33219   0.64996   0.00000  Uiso   1.00
C470   C     0.27370   0.27201   0.66922   0.00000  Uiso   1.00
C471   C     0.23171   0.29914   0.62404   0.00000  Uiso   1.00
C472   C     0.19358   0.26012   0.58626   0.00000  Uiso   1.00
C473   C     0.12154   0.21712   0.51334   0.00000  Uiso   1.00
C474   C     0.32668   0.18841   0.72869   0.00000  Uiso   1.00
C475   C     0.30339   0.20229   0.79196   0.00000  Uiso   1.00
C476   C     0.28710   0.15829   0.85143   0.00000  Uiso   1.00
C477   C     0.26688   0.18042   0.90353   0.00000  Uiso   1.00
C478   C     0.39444   0.23533   0.70865   0.00000  Uiso   1.00
C479   C     0.45470   0.21910   0.69805   0.00000  Uiso   1.00
C480   C     0.51112   0.26904   0.68001   0.00000  Uiso   1.00
C481   C     0.27747   0.20816   0.67639   0.00000  Uiso   1.00
C482   C     0.23940   0.16909   0.63867   0.00000  Uiso   1.00
C483   C     0.19737   0.19616   0.59346   0.00000  Uiso   1.00
H484   H     0.31679   0.35567   0.70988   0.00000  Uiso   1.00
H485   H     0.27650   0.33776   0.83123   0.00000  Uiso   1.00
H486   H     0.44406   0.39856   0.67787   0.00000  Uiso   1.00
H487   H     0.22880   0.34856   0.61850   0.00000  Uiso   1.00
H488   H     0.23351   0.28975   0.96895   0.00000  Uiso   1.00
H489   H     0.58683   0.41796   0.64556   0.00000  Uiso   1.00
H490   H     0.13291   0.31251   0.52036   0.00000  Uiso   1.00
H491   H     0.32963   0.13870   0.73427   0.00000  Uiso   1.00
H492   H     0.29003   0.10888   0.85697   0.00000  Uiso   1.00
H493   H     0.45760   0.16968   0.70361   0.00000  Uiso   1.00
H494   H     0.24234   0.11968   0.64424   0.00000  Uiso   1.00
H495   H     0.24450   0.10399   0.98984   0.00000  Uiso   1.00
H496   H     0.59782   0.23219   0.66644   0.00000  Uiso   1.00
H497   H     0.14390   0.12675   0.54125   0.00000  Uiso   1.00
O498   O     0.21275   0.18118   0.05967   0.00000  Uiso   1.00
O499   O     0.67628   0.34938   0.63538   0.00000  Uiso   1.00
O500   O     0.08075   0.21104   0.47113   0.00000  Uiso   1.00
N501   N     0.24152   0.25012   0.95702   0.00000  Uiso   1.00
N502   N     0.57185   0.36999   0.65468   0.00000  Uiso   1.00
N503   N     0.14749   0.27141   0.53762   0.00000  Uiso   1.00
N504   N     0.24743   0.15016   0.96826   0.00000  Uiso   1.00
N505   N     0.57776   0.27003   0.66592   0.00000  Uiso   1.00
N506   N     0.15340   0.17145   0.54886   0.00000  Uiso   1.00
C507   C     0.27483   0.62556   0.13946   0.00000  Uiso   1.00
C508   C     0.23541   0.67645   0.11287   0.00000  Uiso   1.00
C509   C     0.26334   0.74039   0.08542   0.00000  Uiso   1.00
C510   C     0.21871   0.77927   0.06400   0.00000  Uiso   1.00
C511   C     0.16817   0.86199   0.02185   0.00000  Uiso   1.00
C512   C     0.24993   0.59711   0.21063   0.00000  Uiso   1.00
C513   C     0.29007   0.59433   0.26538   0.00000  Uiso   1.00
C514   C     0.25766   0.56641   0.32626   0.00000  Uiso   1.00
C515   C     0.22967   0.52591   0.43589   0.00000  Uiso   1.00
C516   C     0.25078   0.57252   0.10227   0.00000  Uiso   1.00
C517   C     0.29164   0.54905   0.06591   0.00000  Uiso   1.00
C518   C     0.25995   0.50042   0.03556   0.00000  Uiso   1.00
C519   C     0.23327   0.42174   0.97694   0.00000  Uiso   1.00
C520   C     0.14591   0.58090   0.15024   0.00000  Uiso   1.00
C521   C     0.16539   0.65219   0.11873   0.00000  Uiso   1.00
C522   C     0.12071   0.69099   0.09734   0.00000  Uiso   1.00
C523   C     0.14856   0.75497   0.06986   0.00000  Uiso   1.00
C524   C     0.17991   0.57285   0.21649   0.00000  Uiso   1.00
C525   C     0.14744   0.54493   0.27730   0.00000  Uiso   1.00
C526   C     0.18752   0.54211   0.33212   0.00000  Uiso   1.00
C527   C     0.18076   0.54826   0.10812   0.00000  Uiso   1.00
C528   C     0.14900   0.49965   0.07783   0.00000  Uiso   1.00
C529   C     0.18980   0.47612   0.04143   0.00000  Uiso   1.00
H530   H     0.32934   0.64444   0.13491   0.00000  Uiso   1.00
H531   H     0.31753   0.75914   0.08090   0.00000  Uiso   1.00
H532   H     0.34426   0.61310   0.26083   0.00000  Uiso   1.00
H533   H     0.34582   0.56783   0.06139   0.00000  Uiso   1.00
H534   H     0.27356   0.87563   0.02363   0.00000  Uiso   1.00
H535   H     0.32992   0.56766   0.40302   0.00000  Uiso   1.00
H536   H     0.33322   0.47221   0.98246   0.00000  Uiso   1.00
H537   H     0.09139   0.56202   0.15480   0.00000  Uiso   1.00
H538   H     0.06652   0.67220   0.10188   0.00000  Uiso   1.00
H539   H     0.09325   0.52616   0.28181   0.00000  Uiso   1.00
H540   H     0.09481   0.48089   0.08237   0.00000  Uiso   1.00
H541   H     0.06983   0.80506   0.04066   0.00000  Uiso   1.00
H542   H     0.12619   0.49709   0.42005   0.00000  Uiso   1.00
H543   H     0.12949   0.40164   0.99949   0.00000  Uiso   1.00
O544   O     0.15963   0.91432   0.99699   0.00000  Uiso   1.00
O545   O     0.23357   0.51027   0.49474   0.00000  Uiso   1.00
O546   O     0.23790   0.38504   0.94298   0.00000  Uiso   1.00
N547   N     0.22903   0.84389   0.03489   0.00000  Uiso   1.00
N548   N     0.28172   0.55598   0.38960   0.00000  Uiso   1.00
N549   N     0.28480   0.46672   0.99643   0.00000  Uiso   1.00
N550   N     0.11940   0.80592   0.04405   0.00000  Uiso   1.00
N551   N     0.17209   0.51801   0.39876   0.00000  Uiso   1.00
N552   N     0.17518   0.42875   0.00559   0.00000  Uiso   1.00
