data_job_05719
_audit_creation_date              2018-12-19
_audit_creation_method            'Materials Studio'
_symmetry_space_group_name_H-M    'P1'
_symmetry_Int_Tables_number       1
_symmetry_cell_setting            triclinic
loop_
_symmetry_equiv_pos_as_xyz
  x,y,z
_cell_length_a                    31.1632
_cell_length_b                    13.4078
_cell_length_c                    12.1574
_cell_angle_alpha                 90.0000
_cell_angle_beta                  90.0000
_cell_angle_gamma                 90.0000
loop_
_atom_site_label
_atom_site_type_symbol
_atom_site_fract_x
_atom_site_fract_y
_atom_site_fract_z
_atom_site_U_iso_or_equiv
_atom_site_adp_type
_atom_site_occupancy
C1     C     0.12547   0.83683   0.12444   0.00000  Uiso   1.00
C2     C     0.09997   0.76895   0.20096   0.00000  Uiso   1.00
C3     C     0.07833   0.79886   0.29511   0.00000  Uiso   1.00
C4     C     0.05690   0.72540   0.35396   0.00000  Uiso   1.00
C5     C     0.01728   0.63517   0.47800   0.00000  Uiso   1.00
C6     C     0.17057   0.79293   0.11904   0.00000  Uiso   1.00
C7     C     0.20828   0.84301   0.14429   0.00000  Uiso   1.00
C8     C     0.24628   0.78974   0.13415   0.00000  Uiso   1.00
C9     C     0.31626   0.73675   0.13092   0.00000  Uiso   1.00
C10    C     0.10619   0.82276   0.01022   0.00000  Uiso   1.00
C11    C     0.08978   0.89792   0.94395   0.00000  Uiso   1.00
C12    C     0.07359   0.86977   0.84218   0.00000  Uiso   1.00
C13    C     0.04362   0.86311   0.67000   0.00000  Uiso   1.00
C14    C     0.12591   0.65319   0.06152   0.00000  Uiso   1.00
C15    C     0.10021   0.66920   0.16679   0.00000  Uiso   1.00
C16    C     0.07881   0.59568   0.22550   0.00000  Uiso   1.00
C17    C     0.05714   0.62548   0.31972   0.00000  Uiso   1.00
C18    C     0.17081   0.69319   0.08486   0.00000  Uiso   1.00
C19    C     0.20876   0.63983   0.07467   0.00000  Uiso   1.00
C20    C     0.24652   0.68981   0.09991   0.00000  Uiso   1.00
C21    C     0.10642   0.72301   0.97604   0.00000  Uiso   1.00
C22    C     0.09026   0.69474   0.87435   0.00000  Uiso   1.00
C23    C     0.07383   0.76985   0.80795   0.00000  Uiso   1.00
H24    H     0.12529   0.91448   0.15105   0.00000  Uiso   1.00
H25    H     0.07815   0.87605   0.32154   0.00000  Uiso   1.00
H26    H     0.20808   0.92020   0.17072   0.00000  Uiso   1.00
H27    H     0.08960   0.97510   0.97043   0.00000  Uiso   1.00
H28    H     0.02601   0.78945   0.49551   0.00000  Uiso   1.00
H29    H     0.29998   0.88254   0.17747   0.00000  Uiso   1.00
H30    H     0.05014   0.99833   0.75511   0.00000  Uiso   1.00
H31    H     0.12610   0.57553   0.03491   0.00000  Uiso   1.00
H32    H     0.07900   0.51850   0.19903   0.00000  Uiso   1.00
H33    H     0.20893   0.56265   0.04822   0.00000  Uiso   1.00
H34    H     0.09045   0.61755   0.84793   0.00000  Uiso   1.00
H35    H     0.02670   0.49925   0.39608   0.00000  Uiso   1.00
H36    H     0.30066   0.59234   0.07804   0.00000  Uiso   1.00
H37    H     0.05082   0.70812   0.65568   0.00000  Uiso   1.00
O38    O     0.99537   0.61295   0.55587   0.00000  Uiso   1.00
O39    O     0.35480   0.73508   0.13860   0.00000  Uiso   1.00
O40    O     0.02701   0.88698   0.58448   0.00000  Uiso   1.00
N41    N     0.03263   0.72898   0.44957   0.00000  Uiso   1.00
N42    N     0.28877   0.81601   0.15224   0.00000  Uiso   1.00
N43    N     0.05520   0.92426   0.75736   0.00000  Uiso   1.00
N44    N     0.03300   0.57283   0.39607   0.00000  Uiso   1.00
N45    N     0.28914   0.65986   0.09874   0.00000  Uiso   1.00
N46    N     0.05557   0.76811   0.70386   0.00000  Uiso   1.00
C47    C     0.37453   0.16317   0.12444   0.00000  Uiso   1.00
C48    C     0.40003   0.23105   0.20096   0.00000  Uiso   1.00
C49    C     0.42167   0.20114   0.29511   0.00000  Uiso   1.00
C50    C     0.44310   0.27460   0.35396   0.00000  Uiso   1.00
C51    C     0.48272   0.36483   0.47800   0.00000  Uiso   1.00
C52    C     0.32943   0.20707   0.11904   0.00000  Uiso   1.00
C53    C     0.29172   0.15699   0.14429   0.00000  Uiso   1.00
C54    C     0.25372   0.21026   0.13415   0.00000  Uiso   1.00
C55    C     0.18374   0.26325   0.13092   0.00000  Uiso   1.00
C56    C     0.39381   0.17724   0.01022   0.00000  Uiso   1.00
C57    C     0.41022   0.10208   0.94395   0.00000  Uiso   1.00
C58    C     0.42641   0.13023   0.84218   0.00000  Uiso   1.00
C59    C     0.45638   0.13689   0.67000   0.00000  Uiso   1.00
C60    C     0.37409   0.34681   0.06152   0.00000  Uiso   1.00
C61    C     0.39979   0.33080   0.16679   0.00000  Uiso   1.00
C62    C     0.42119   0.40432   0.22550   0.00000  Uiso   1.00
C63    C     0.44286   0.37452   0.31972   0.00000  Uiso   1.00
C64    C     0.32919   0.30681   0.08486   0.00000  Uiso   1.00
C65    C     0.29124   0.36017   0.07467   0.00000  Uiso   1.00
C66    C     0.25348   0.31019   0.09991   0.00000  Uiso   1.00
C67    C     0.39358   0.27699   0.97604   0.00000  Uiso   1.00
C68    C     0.40974   0.30526   0.87435   0.00000  Uiso   1.00
C69    C     0.42617   0.23015   0.80795   0.00000  Uiso   1.00
H70    H     0.37471   0.08552   0.15105   0.00000  Uiso   1.00
H71    H     0.42185   0.12395   0.32154   0.00000  Uiso   1.00
H72    H     0.29192   0.07980   0.17072   0.00000  Uiso   1.00
H73    H     0.41040   0.02490   0.97043   0.00000  Uiso   1.00
H74    H     0.47399   0.21055   0.49551   0.00000  Uiso   1.00
H75    H     0.20002   0.11746   0.17747   0.00000  Uiso   1.00
H76    H     0.44986   0.00167   0.75511   0.00000  Uiso   1.00
H77    H     0.37390   0.42447   0.03491   0.00000  Uiso   1.00
H78    H     0.42100   0.48150   0.19903   0.00000  Uiso   1.00
H79    H     0.29107   0.43735   0.04822   0.00000  Uiso   1.00
H80    H     0.40955   0.38245   0.84793   0.00000  Uiso   1.00
H81    H     0.47330   0.50075   0.39608   0.00000  Uiso   1.00
H82    H     0.19934   0.40766   0.07804   0.00000  Uiso   1.00
H83    H     0.44918   0.29188   0.65568   0.00000  Uiso   1.00
O84    O     0.50463   0.38705   0.55587   0.00000  Uiso   1.00
O85    O     0.14520   0.26492   0.13860   0.00000  Uiso   1.00
O86    O     0.47299   0.11302   0.58448   0.00000  Uiso   1.00
N87    N     0.46737   0.27102   0.44957   0.00000  Uiso   1.00
N88    N     0.21123   0.18399   0.15224   0.00000  Uiso   1.00
N89    N     0.44480   0.07574   0.75736   0.00000  Uiso   1.00
N90    N     0.46700   0.42717   0.39607   0.00000  Uiso   1.00
N91    N     0.21086   0.34014   0.09874   0.00000  Uiso   1.00
N92    N     0.44443   0.23189   0.70386   0.00000  Uiso   1.00
C93    C     0.87453   0.83683   0.37556   0.00000  Uiso   1.00
C94    C     0.90003   0.76895   0.29904   0.00000  Uiso   1.00
C95    C     0.92167   0.79886   0.20489   0.00000  Uiso   1.00
C96    C     0.94310   0.72540   0.14604   0.00000  Uiso   1.00
C97    C     0.98272   0.63517   0.02200   0.00000  Uiso   1.00
C98    C     0.82943   0.79293   0.38096   0.00000  Uiso   1.00
C99    C     0.79172   0.84301   0.35571   0.00000  Uiso   1.00
C100   C     0.75372   0.78974   0.36585   0.00000  Uiso   1.00
C101   C     0.68374   0.73675   0.36908   0.00000  Uiso   1.00
C102   C     0.89381   0.82276   0.48978   0.00000  Uiso   1.00
C103   C     0.91022   0.89792   0.55605   0.00000  Uiso   1.00
C104   C     0.92641   0.86977   0.65782   0.00000  Uiso   1.00
C105   C     0.95638   0.86311   0.83000   0.00000  Uiso   1.00
C106   C     0.87409   0.65319   0.43848   0.00000  Uiso   1.00
C107   C     0.89979   0.66920   0.33321   0.00000  Uiso   1.00
C108   C     0.92119   0.59568   0.27450   0.00000  Uiso   1.00
C109   C     0.94286   0.62548   0.18028   0.00000  Uiso   1.00
C110   C     0.82919   0.69319   0.41514   0.00000  Uiso   1.00
C111   C     0.79124   0.63983   0.42533   0.00000  Uiso   1.00
C112   C     0.75348   0.68981   0.40009   0.00000  Uiso   1.00
C113   C     0.89358   0.72301   0.52396   0.00000  Uiso   1.00
C114   C     0.90974   0.69474   0.62565   0.00000  Uiso   1.00
C115   C     0.92617   0.76985   0.69205   0.00000  Uiso   1.00
H116   H     0.87471   0.91448   0.34895   0.00000  Uiso   1.00
H117   H     0.92185   0.87605   0.17846   0.00000  Uiso   1.00
H118   H     0.79192   0.92020   0.32928   0.00000  Uiso   1.00
H119   H     0.91040   0.97510   0.52957   0.00000  Uiso   1.00
H120   H     0.97399   0.78945   0.00449   0.00000  Uiso   1.00
H121   H     0.70002   0.88254   0.32253   0.00000  Uiso   1.00
H122   H     0.94986   0.99833   0.74489   0.00000  Uiso   1.00
H123   H     0.87390   0.57553   0.46509   0.00000  Uiso   1.00
H124   H     0.92100   0.51850   0.30097   0.00000  Uiso   1.00
H125   H     0.79107   0.56265   0.45178   0.00000  Uiso   1.00
H126   H     0.90955   0.61755   0.65207   0.00000  Uiso   1.00
H127   H     0.97330   0.49925   0.10392   0.00000  Uiso   1.00
H128   H     0.69934   0.59234   0.42196   0.00000  Uiso   1.00
H129   H     0.94918   0.70812   0.84432   0.00000  Uiso   1.00
O130   O     0.00463   0.61295   0.94413   0.00000  Uiso   1.00
O131   O     0.64520   0.73508   0.36140   0.00000  Uiso   1.00
O132   O     0.97299   0.88698   0.91552   0.00000  Uiso   1.00
N133   N     0.96737   0.72898   0.05043   0.00000  Uiso   1.00
N134   N     0.71123   0.81601   0.34776   0.00000  Uiso   1.00
N135   N     0.94480   0.92426   0.74264   0.00000  Uiso   1.00
N136   N     0.96700   0.57283   0.10393   0.00000  Uiso   1.00
N137   N     0.71086   0.65986   0.40126   0.00000  Uiso   1.00
N138   N     0.94443   0.76811   0.79614   0.00000  Uiso   1.00
C139   C     0.62547   0.16317   0.37556   0.00000  Uiso   1.00
C140   C     0.59997   0.23105   0.29904   0.00000  Uiso   1.00
C141   C     0.57833   0.20114   0.20489   0.00000  Uiso   1.00
C142   C     0.55690   0.27460   0.14604   0.00000  Uiso   1.00
C143   C     0.51728   0.36483   0.02200   0.00000  Uiso   1.00
C144   C     0.67057   0.20707   0.38096   0.00000  Uiso   1.00
C145   C     0.70828   0.15699   0.35571   0.00000  Uiso   1.00
C146   C     0.74628   0.21026   0.36585   0.00000  Uiso   1.00
C147   C     0.81626   0.26325   0.36908   0.00000  Uiso   1.00
C148   C     0.60619   0.17724   0.48978   0.00000  Uiso   1.00
C149   C     0.58978   0.10208   0.55605   0.00000  Uiso   1.00
C150   C     0.57359   0.13023   0.65782   0.00000  Uiso   1.00
C151   C     0.54362   0.13689   0.83000   0.00000  Uiso   1.00
C152   C     0.62591   0.34681   0.43848   0.00000  Uiso   1.00
C153   C     0.60021   0.33080   0.33321   0.00000  Uiso   1.00
C154   C     0.57881   0.40432   0.27450   0.00000  Uiso   1.00
C155   C     0.55714   0.37452   0.18028   0.00000  Uiso   1.00
C156   C     0.67081   0.30681   0.41514   0.00000  Uiso   1.00
C157   C     0.70876   0.36017   0.42533   0.00000  Uiso   1.00
C158   C     0.74652   0.31019   0.40009   0.00000  Uiso   1.00
C159   C     0.60642   0.27699   0.52396   0.00000  Uiso   1.00
C160   C     0.59026   0.30526   0.62565   0.00000  Uiso   1.00
C161   C     0.57383   0.23015   0.69205   0.00000  Uiso   1.00
H162   H     0.62529   0.08552   0.34895   0.00000  Uiso   1.00
H163   H     0.57815   0.12395   0.17846   0.00000  Uiso   1.00
H164   H     0.70808   0.07980   0.32928   0.00000  Uiso   1.00
H165   H     0.58960   0.02490   0.52957   0.00000  Uiso   1.00
H166   H     0.52601   0.21055   0.00449   0.00000  Uiso   1.00
H167   H     0.79998   0.11746   0.32253   0.00000  Uiso   1.00
H168   H     0.55014   0.00167   0.74489   0.00000  Uiso   1.00
H169   H     0.62610   0.42447   0.46509   0.00000  Uiso   1.00
H170   H     0.57900   0.48150   0.30097   0.00000  Uiso   1.00
H171   H     0.70893   0.43735   0.45178   0.00000  Uiso   1.00
H172   H     0.59045   0.38245   0.65207   0.00000  Uiso   1.00
H173   H     0.52670   0.50075   0.10392   0.00000  Uiso   1.00
H174   H     0.80066   0.40766   0.42196   0.00000  Uiso   1.00
H175   H     0.55082   0.29188   0.84432   0.00000  Uiso   1.00
O176   O     0.49537   0.38705   0.94413   0.00000  Uiso   1.00
O177   O     0.85480   0.26492   0.36140   0.00000  Uiso   1.00
O178   O     0.52701   0.11302   0.91552   0.00000  Uiso   1.00
N179   N     0.53263   0.27102   0.05043   0.00000  Uiso   1.00
N180   N     0.78877   0.18399   0.34776   0.00000  Uiso   1.00
N181   N     0.55520   0.07574   0.74264   0.00000  Uiso   1.00
N182   N     0.53300   0.42717   0.10393   0.00000  Uiso   1.00
N183   N     0.78914   0.34014   0.40126   0.00000  Uiso   1.00
N184   N     0.55557   0.23189   0.79614   0.00000  Uiso   1.00
C185   C     0.87453   0.16317   0.87556   0.00000  Uiso   1.00
C186   C     0.90003   0.23105   0.79904   0.00000  Uiso   1.00
C187   C     0.92167   0.20114   0.70489   0.00000  Uiso   1.00
C188   C     0.94310   0.27460   0.64604   0.00000  Uiso   1.00
C189   C     0.98272   0.36483   0.52200   0.00000  Uiso   1.00
C190   C     0.82943   0.20707   0.88096   0.00000  Uiso   1.00
C191   C     0.79172   0.15699   0.85571   0.00000  Uiso   1.00
C192   C     0.75372   0.21026   0.86585   0.00000  Uiso   1.00
C193   C     0.68374   0.26325   0.86908   0.00000  Uiso   1.00
C194   C     0.89381   0.17724   0.98978   0.00000  Uiso   1.00
C195   C     0.91022   0.10208   0.05605   0.00000  Uiso   1.00
C196   C     0.92641   0.13023   0.15782   0.00000  Uiso   1.00
C197   C     0.95638   0.13689   0.33000   0.00000  Uiso   1.00
C198   C     0.87409   0.34681   0.93848   0.00000  Uiso   1.00
C199   C     0.89979   0.33080   0.83321   0.00000  Uiso   1.00
C200   C     0.92119   0.40432   0.77450   0.00000  Uiso   1.00
C201   C     0.94286   0.37452   0.68028   0.00000  Uiso   1.00
C202   C     0.82919   0.30681   0.91514   0.00000  Uiso   1.00
C203   C     0.79124   0.36017   0.92533   0.00000  Uiso   1.00
C204   C     0.75348   0.31019   0.90009   0.00000  Uiso   1.00
C205   C     0.89358   0.27699   0.02396   0.00000  Uiso   1.00
C206   C     0.90974   0.30526   0.12565   0.00000  Uiso   1.00
C207   C     0.92617   0.23015   0.19205   0.00000  Uiso   1.00
H208   H     0.87471   0.08552   0.84895   0.00000  Uiso   1.00
H209   H     0.92185   0.12395   0.67846   0.00000  Uiso   1.00
H210   H     0.79192   0.07980   0.82928   0.00000  Uiso   1.00
H211   H     0.91040   0.02490   0.02957   0.00000  Uiso   1.00
H212   H     0.97399   0.21055   0.50449   0.00000  Uiso   1.00
H213   H     0.70002   0.11746   0.82253   0.00000  Uiso   1.00
H214   H     0.94986   0.00167   0.24489   0.00000  Uiso   1.00
H215   H     0.87390   0.42447   0.96509   0.00000  Uiso   1.00
H216   H     0.92100   0.48150   0.80097   0.00000  Uiso   1.00
H217   H     0.79107   0.43735   0.95178   0.00000  Uiso   1.00
H218   H     0.90955   0.38245   0.15207   0.00000  Uiso   1.00
H219   H     0.97330   0.50075   0.60392   0.00000  Uiso   1.00
H220   H     0.69934   0.40766   0.92196   0.00000  Uiso   1.00
H221   H     0.94918   0.29188   0.34432   0.00000  Uiso   1.00
O222   O     0.00463   0.38705   0.44413   0.00000  Uiso   1.00
O223   O     0.64520   0.26492   0.86140   0.00000  Uiso   1.00
O224   O     0.97299   0.11302   0.41552   0.00000  Uiso   1.00
N225   N     0.96737   0.27102   0.55043   0.00000  Uiso   1.00
N226   N     0.71123   0.18399   0.84776   0.00000  Uiso   1.00
N227   N     0.94480   0.07574   0.24264   0.00000  Uiso   1.00
N228   N     0.96700   0.42717   0.60393   0.00000  Uiso   1.00
N229   N     0.71086   0.34014   0.90126   0.00000  Uiso   1.00
N230   N     0.94443   0.23189   0.29614   0.00000  Uiso   1.00
C231   C     0.62547   0.83683   0.87556   0.00000  Uiso   1.00
C232   C     0.59997   0.76895   0.79904   0.00000  Uiso   1.00
C233   C     0.57833   0.79886   0.70489   0.00000  Uiso   1.00
C234   C     0.55690   0.72540   0.64604   0.00000  Uiso   1.00
C235   C     0.51728   0.63517   0.52200   0.00000  Uiso   1.00
C236   C     0.67057   0.79293   0.88096   0.00000  Uiso   1.00
C237   C     0.70828   0.84301   0.85571   0.00000  Uiso   1.00
C238   C     0.74628   0.78974   0.86585   0.00000  Uiso   1.00
C239   C     0.81626   0.73675   0.86908   0.00000  Uiso   1.00
C240   C     0.60619   0.82276   0.98978   0.00000  Uiso   1.00
C241   C     0.58978   0.89792   0.05605   0.00000  Uiso   1.00
C242   C     0.57359   0.86977   0.15782   0.00000  Uiso   1.00
C243   C     0.54362   0.86311   0.33000   0.00000  Uiso   1.00
C244   C     0.62591   0.65319   0.93848   0.00000  Uiso   1.00
C245   C     0.60021   0.66920   0.83321   0.00000  Uiso   1.00
C246   C     0.57881   0.59568   0.77450   0.00000  Uiso   1.00
C247   C     0.55714   0.62548   0.68028   0.00000  Uiso   1.00
C248   C     0.67081   0.69319   0.91514   0.00000  Uiso   1.00
C249   C     0.70876   0.63983   0.92533   0.00000  Uiso   1.00
C250   C     0.74652   0.68981   0.90009   0.00000  Uiso   1.00
C251   C     0.60642   0.72301   0.02396   0.00000  Uiso   1.00
C252   C     0.59026   0.69474   0.12565   0.00000  Uiso   1.00
C253   C     0.57383   0.76985   0.19205   0.00000  Uiso   1.00
H254   H     0.62529   0.91448   0.84895   0.00000  Uiso   1.00
H255   H     0.57815   0.87605   0.67846   0.00000  Uiso   1.00
H256   H     0.70808   0.92020   0.82928   0.00000  Uiso   1.00
H257   H     0.58960   0.97510   0.02957   0.00000  Uiso   1.00
H258   H     0.52601   0.78945   0.50449   0.00000  Uiso   1.00
H259   H     0.79998   0.88254   0.82253   0.00000  Uiso   1.00
H260   H     0.55014   0.99833   0.24489   0.00000  Uiso   1.00
H261   H     0.62610   0.57553   0.96509   0.00000  Uiso   1.00
H262   H     0.57900   0.51850   0.80097   0.00000  Uiso   1.00
H263   H     0.70893   0.56265   0.95178   0.00000  Uiso   1.00
H264   H     0.59045   0.61755   0.15207   0.00000  Uiso   1.00
H265   H     0.52670   0.49925   0.60392   0.00000  Uiso   1.00
H266   H     0.80066   0.59234   0.92196   0.00000  Uiso   1.00
H267   H     0.55082   0.70812   0.34432   0.00000  Uiso   1.00
O268   O     0.49537   0.61295   0.44413   0.00000  Uiso   1.00
O269   O     0.85480   0.73508   0.86140   0.00000  Uiso   1.00
O270   O     0.52701   0.88698   0.41552   0.00000  Uiso   1.00
N271   N     0.53263   0.72898   0.55043   0.00000  Uiso   1.00
N272   N     0.78877   0.81601   0.84776   0.00000  Uiso   1.00
N273   N     0.55520   0.92426   0.24264   0.00000  Uiso   1.00
N274   N     0.53300   0.57283   0.60393   0.00000  Uiso   1.00
N275   N     0.78914   0.65986   0.90126   0.00000  Uiso   1.00
N276   N     0.55557   0.76811   0.29614   0.00000  Uiso   1.00
C277   C     0.12547   0.16317   0.62444   0.00000  Uiso   1.00
C278   C     0.09997   0.23105   0.70096   0.00000  Uiso   1.00
C279   C     0.07833   0.20114   0.79511   0.00000  Uiso   1.00
C280   C     0.05690   0.27460   0.85396   0.00000  Uiso   1.00
C281   C     0.01728   0.36483   0.97800   0.00000  Uiso   1.00
C282   C     0.17057   0.20707   0.61904   0.00000  Uiso   1.00
C283   C     0.20828   0.15699   0.64429   0.00000  Uiso   1.00
C284   C     0.24628   0.21026   0.63415   0.00000  Uiso   1.00
C285   C     0.31626   0.26325   0.63092   0.00000  Uiso   1.00
C286   C     0.10619   0.17724   0.51022   0.00000  Uiso   1.00
C287   C     0.08978   0.10208   0.44395   0.00000  Uiso   1.00
C288   C     0.07359   0.13023   0.34218   0.00000  Uiso   1.00
C289   C     0.04362   0.13689   0.17000   0.00000  Uiso   1.00
C290   C     0.12591   0.34681   0.56152   0.00000  Uiso   1.00
C291   C     0.10021   0.33080   0.66679   0.00000  Uiso   1.00
C292   C     0.07881   0.40432   0.72550   0.00000  Uiso   1.00
C293   C     0.05714   0.37452   0.81972   0.00000  Uiso   1.00
C294   C     0.17081   0.30681   0.58486   0.00000  Uiso   1.00
C295   C     0.20876   0.36017   0.57467   0.00000  Uiso   1.00
C296   C     0.24652   0.31019   0.59991   0.00000  Uiso   1.00
C297   C     0.10642   0.27699   0.47604   0.00000  Uiso   1.00
C298   C     0.09026   0.30526   0.37435   0.00000  Uiso   1.00
C299   C     0.07383   0.23015   0.30795   0.00000  Uiso   1.00
H300   H     0.12529   0.08552   0.65105   0.00000  Uiso   1.00
H301   H     0.07815   0.12395   0.82154   0.00000  Uiso   1.00
H302   H     0.20808   0.07980   0.67072   0.00000  Uiso   1.00
H303   H     0.08960   0.02490   0.47043   0.00000  Uiso   1.00
H304   H     0.02601   0.21055   0.99551   0.00000  Uiso   1.00
H305   H     0.29998   0.11746   0.67747   0.00000  Uiso   1.00
H306   H     0.05014   0.00167   0.25511   0.00000  Uiso   1.00
H307   H     0.12610   0.42447   0.53491   0.00000  Uiso   1.00
H308   H     0.07900   0.48150   0.69903   0.00000  Uiso   1.00
H309   H     0.20893   0.43735   0.54822   0.00000  Uiso   1.00
H310   H     0.09045   0.38245   0.34793   0.00000  Uiso   1.00
H311   H     0.02670   0.50075   0.89608   0.00000  Uiso   1.00
H312   H     0.30066   0.40766   0.57804   0.00000  Uiso   1.00
H313   H     0.05082   0.29188   0.15568   0.00000  Uiso   1.00
O314   O     0.99537   0.38705   0.05587   0.00000  Uiso   1.00
O315   O     0.35480   0.26492   0.63860   0.00000  Uiso   1.00
O316   O     0.02701   0.11302   0.08448   0.00000  Uiso   1.00
N317   N     0.03263   0.27102   0.94957   0.00000  Uiso   1.00
N318   N     0.28877   0.18399   0.65224   0.00000  Uiso   1.00
N319   N     0.05520   0.07574   0.25736   0.00000  Uiso   1.00
N320   N     0.03300   0.42717   0.89607   0.00000  Uiso   1.00
N321   N     0.28914   0.34014   0.59874   0.00000  Uiso   1.00
N322   N     0.05557   0.23189   0.20386   0.00000  Uiso   1.00
C323   C     0.37453   0.83683   0.62444   0.00000  Uiso   1.00
C324   C     0.40003   0.76895   0.70096   0.00000  Uiso   1.00
C325   C     0.42167   0.79886   0.79511   0.00000  Uiso   1.00
C326   C     0.44310   0.72540   0.85396   0.00000  Uiso   1.00
C327   C     0.48272   0.63517   0.97800   0.00000  Uiso   1.00
C328   C     0.32943   0.79293   0.61904   0.00000  Uiso   1.00
C329   C     0.29172   0.84301   0.64429   0.00000  Uiso   1.00
C330   C     0.25372   0.78974   0.63415   0.00000  Uiso   1.00
C331   C     0.18374   0.73675   0.63092   0.00000  Uiso   1.00
C332   C     0.39381   0.82276   0.51022   0.00000  Uiso   1.00
C333   C     0.41022   0.89792   0.44395   0.00000  Uiso   1.00
C334   C     0.42641   0.86977   0.34218   0.00000  Uiso   1.00
C335   C     0.45638   0.86311   0.17000   0.00000  Uiso   1.00
C336   C     0.37409   0.65319   0.56152   0.00000  Uiso   1.00
C337   C     0.39979   0.66920   0.66679   0.00000  Uiso   1.00
C338   C     0.42119   0.59568   0.72550   0.00000  Uiso   1.00
C339   C     0.44286   0.62548   0.81972   0.00000  Uiso   1.00
C340   C     0.32919   0.69319   0.58486   0.00000  Uiso   1.00
C341   C     0.29124   0.63983   0.57467   0.00000  Uiso   1.00
C342   C     0.25348   0.68981   0.59991   0.00000  Uiso   1.00
C343   C     0.39358   0.72301   0.47604   0.00000  Uiso   1.00
C344   C     0.40974   0.69474   0.37435   0.00000  Uiso   1.00
C345   C     0.42617   0.76985   0.30795   0.00000  Uiso   1.00
H346   H     0.37471   0.91448   0.65105   0.00000  Uiso   1.00
H347   H     0.42185   0.87605   0.82154   0.00000  Uiso   1.00
H348   H     0.29192   0.92020   0.67072   0.00000  Uiso   1.00
H349   H     0.41040   0.97510   0.47043   0.00000  Uiso   1.00
H350   H     0.47399   0.78945   0.99551   0.00000  Uiso   1.00
H351   H     0.20002   0.88254   0.67747   0.00000  Uiso   1.00
H352   H     0.44986   0.99833   0.25511   0.00000  Uiso   1.00
H353   H     0.37390   0.57553   0.53491   0.00000  Uiso   1.00
H354   H     0.42100   0.51850   0.69903   0.00000  Uiso   1.00
H355   H     0.29107   0.56265   0.54822   0.00000  Uiso   1.00
H356   H     0.40955   0.61755   0.34793   0.00000  Uiso   1.00
H357   H     0.47330   0.49925   0.89608   0.00000  Uiso   1.00
H358   H     0.19934   0.59234   0.57804   0.00000  Uiso   1.00
H359   H     0.44918   0.70812   0.15568   0.00000  Uiso   1.00
O360   O     0.50463   0.61295   0.05587   0.00000  Uiso   1.00
O361   O     0.14520   0.73508   0.63860   0.00000  Uiso   1.00
O362   O     0.47299   0.88698   0.08448   0.00000  Uiso   1.00
N363   N     0.46737   0.72898   0.94957   0.00000  Uiso   1.00
N364   N     0.21123   0.81601   0.65224   0.00000  Uiso   1.00
N365   N     0.44480   0.92426   0.25736   0.00000  Uiso   1.00
N366   N     0.46700   0.57283   0.89607   0.00000  Uiso   1.00
N367   N     0.21086   0.65986   0.59874   0.00000  Uiso   1.00
N368   N     0.44443   0.76811   0.20386   0.00000  Uiso   1.00
