data_job_01726
_audit_creation_date              2018-12-19
_audit_creation_method            'Materials Studio'
_symmetry_space_group_name_H-M    'P1'
_symmetry_Int_Tables_number       1
_symmetry_cell_setting            triclinic
loop_
_symmetry_equiv_pos_as_xyz
  x,y,z
_cell_length_a                    27.8981
_cell_length_b                    10.1358
_cell_length_c                    18.8563
_cell_angle_alpha                 90.0000
_cell_angle_beta                  90.0000
_cell_angle_gamma                 90.0000
loop_
_atom_site_label
_atom_site_type_symbol
_atom_site_fract_x
_atom_site_fract_y
_atom_site_fract_z
_atom_site_U_iso_or_equiv
_atom_site_adp_type
_atom_site_occupancy
C1     C     0.83843   0.54517   0.76078   0.00000  Uiso   1.00
C2     C     0.86955   0.45966   0.80882   0.00000  Uiso   1.00
C3     C     0.86300   0.44147   0.88112   0.00000  Uiso   1.00
C4     C     0.89533   0.35943   0.91558   0.00000  Uiso   1.00
C5     C     0.93796   0.23607   0.99574   0.00000  Uiso   1.00
C6     C     0.87232   0.64347   0.72567   0.00000  Uiso   1.00
C7     C     0.86810   0.77983   0.72805   0.00000  Uiso   1.00
C8     C     0.90278   0.85252   0.69251   0.00000  Uiso   1.00
C9     C     0.94970   0.01453   0.64353   0.00000  Uiso   1.00
C10    C     0.82075   0.45471   0.70170   0.00000  Uiso   1.00
C11    C     0.77317   0.43238   0.68391   0.00000  Uiso   1.00
C12    C     0.76442   0.34616   0.62817   0.00000  Uiso   1.00
C13    C     0.73126   0.21509   0.54197   0.00000  Uiso   1.00
C14    C     0.90750   0.43180   0.69342   0.00000  Uiso   1.00
C15    C     0.90707   0.39809   0.77223   0.00000  Uiso   1.00
C16    C     0.93942   0.31604   0.80659   0.00000  Uiso   1.00
C17    C     0.93292   0.29774   0.87892   0.00000  Uiso   1.00
C18    C     0.90984   0.58190   0.68908   0.00000  Uiso   1.00
C19    C     0.94453   0.65440   0.65352   0.00000  Uiso   1.00
C20    C     0.94036   0.79084   0.65585   0.00000  Uiso   1.00
C21    C     0.85827   0.39313   0.66511   0.00000  Uiso   1.00
C22    C     0.84959   0.30694   0.60938   0.00000  Uiso   1.00
C23    C     0.80201   0.28448   0.59151   0.00000  Uiso   1.00
H24    H     0.80922   0.59312   0.78927   0.00000  Uiso   1.00
H25    H     0.83396   0.48915   0.90942   0.00000  Uiso   1.00
H26    H     0.83906   0.82745   0.75636   0.00000  Uiso   1.00
H27    H     0.74414   0.48004   0.71223   0.00000  Uiso   1.00
H28    H     0.87794   0.34677   0.02649   0.00000  Uiso   1.00
H29    H     0.88870   0.06009   0.70376   0.00000  Uiso   1.00
H30    H     0.68854   0.32752   0.61069   0.00000  Uiso   1.00
H31    H     0.93672   0.38387   0.66493   0.00000  Uiso   1.00
H32    H     0.96845   0.26841   0.77826   0.00000  Uiso   1.00
H33    H     0.97356   0.60672   0.62521   0.00000  Uiso   1.00
H34    H     0.87864   0.25931   0.58108   0.00000  Uiso   1.00
H35    H     0.98711   0.16761   0.92004   0.00000  Uiso   1.00
H36    H     0.99786   0.88094   0.59730   0.00000  Uiso   1.00
H37    H     0.79770   0.14837   0.50424   0.00000  Uiso   1.00
O38    O     0.95111   0.18505   0.05006   0.00000  Uiso   1.00
O39    O     0.96521   0.12091   0.62664   0.00000  Uiso   1.00
O40    O     0.70261   0.15979   0.50454   0.00000  Uiso   1.00
N41    N     0.89927   0.32043   0.98588   0.00000  Uiso   1.00
N42    N     0.90933   0.98735   0.68415   0.00000  Uiso   1.00
N43    N     0.72220   0.30248   0.59713   0.00000  Uiso   1.00
N44    N     0.95801   0.22402   0.92860   0.00000  Uiso   1.00
N45    N     0.96807   0.89094   0.62687   0.00000  Uiso   1.00
N46    N     0.78094   0.20608   0.53985   0.00000  Uiso   1.00
C47    C     0.33843   0.04517   0.76078   0.00000  Uiso   1.00
C48    C     0.36955   0.95966   0.80882   0.00000  Uiso   1.00
C49    C     0.36300   0.94147   0.88112   0.00000  Uiso   1.00
C50    C     0.39533   0.85943   0.91558   0.00000  Uiso   1.00
C51    C     0.43796   0.73607   0.99574   0.00000  Uiso   1.00
C52    C     0.37232   0.14347   0.72567   0.00000  Uiso   1.00
C53    C     0.36810   0.27983   0.72805   0.00000  Uiso   1.00
C54    C     0.40278   0.35252   0.69251   0.00000  Uiso   1.00
C55    C     0.44970   0.51453   0.64353   0.00000  Uiso   1.00
C56    C     0.32075   0.95471   0.70170   0.00000  Uiso   1.00
C57    C     0.27317   0.93238   0.68391   0.00000  Uiso   1.00
C58    C     0.26442   0.84616   0.62817   0.00000  Uiso   1.00
C59    C     0.23126   0.71509   0.54197   0.00000  Uiso   1.00
C60    C     0.40750   0.93180   0.69342   0.00000  Uiso   1.00
C61    C     0.40707   0.89809   0.77223   0.00000  Uiso   1.00
C62    C     0.43942   0.81604   0.80659   0.00000  Uiso   1.00
C63    C     0.43292   0.79774   0.87892   0.00000  Uiso   1.00
C64    C     0.40984   0.08190   0.68908   0.00000  Uiso   1.00
C65    C     0.44453   0.15440   0.65352   0.00000  Uiso   1.00
C66    C     0.44036   0.29084   0.65585   0.00000  Uiso   1.00
C67    C     0.35827   0.89313   0.66511   0.00000  Uiso   1.00
C68    C     0.34959   0.80694   0.60938   0.00000  Uiso   1.00
C69    C     0.30201   0.78448   0.59151   0.00000  Uiso   1.00
H70    H     0.30922   0.09312   0.78927   0.00000  Uiso   1.00
H71    H     0.33396   0.98915   0.90942   0.00000  Uiso   1.00
H72    H     0.33906   0.32745   0.75636   0.00000  Uiso   1.00
H73    H     0.24414   0.98004   0.71223   0.00000  Uiso   1.00
H74    H     0.37794   0.84677   0.02649   0.00000  Uiso   1.00
H75    H     0.38870   0.56009   0.70376   0.00000  Uiso   1.00
H76    H     0.18854   0.82752   0.61069   0.00000  Uiso   1.00
H77    H     0.43672   0.88387   0.66493   0.00000  Uiso   1.00
H78    H     0.46845   0.76841   0.77826   0.00000  Uiso   1.00
H79    H     0.47356   0.10672   0.62521   0.00000  Uiso   1.00
H80    H     0.37864   0.75931   0.58108   0.00000  Uiso   1.00
H81    H     0.48711   0.66761   0.92004   0.00000  Uiso   1.00
H82    H     0.49786   0.38094   0.59730   0.00000  Uiso   1.00
H83    H     0.29770   0.64837   0.50424   0.00000  Uiso   1.00
O84    O     0.45111   0.68505   0.05006   0.00000  Uiso   1.00
O85    O     0.46521   0.62091   0.62664   0.00000  Uiso   1.00
O86    O     0.20261   0.65979   0.50454   0.00000  Uiso   1.00
N87    N     0.39927   0.82043   0.98588   0.00000  Uiso   1.00
N88    N     0.40933   0.48735   0.68415   0.00000  Uiso   1.00
N89    N     0.22220   0.80248   0.59713   0.00000  Uiso   1.00
N90    N     0.45801   0.72402   0.92860   0.00000  Uiso   1.00
N91    N     0.46807   0.39094   0.62687   0.00000  Uiso   1.00
N92    N     0.28094   0.70608   0.53985   0.00000  Uiso   1.00
C93    C     0.16157   0.45483   0.26078   0.00000  Uiso   1.00
C94    C     0.13045   0.54034   0.30882   0.00000  Uiso   1.00
C95    C     0.13700   0.55853   0.38112   0.00000  Uiso   1.00
C96    C     0.10467   0.64057   0.41558   0.00000  Uiso   1.00
C97    C     0.06204   0.76393   0.49574   0.00000  Uiso   1.00
C98    C     0.12768   0.35653   0.22567   0.00000  Uiso   1.00
C99    C     0.13190   0.22017   0.22805   0.00000  Uiso   1.00
C100   C     0.09722   0.14748   0.19251   0.00000  Uiso   1.00
C101   C     0.05030   0.98547   0.14353   0.00000  Uiso   1.00
C102   C     0.17925   0.54529   0.20170   0.00000  Uiso   1.00
C103   C     0.22683   0.56762   0.18391   0.00000  Uiso   1.00
C104   C     0.23558   0.65384   0.12817   0.00000  Uiso   1.00
C105   C     0.26874   0.78491   0.04197   0.00000  Uiso   1.00
C106   C     0.09250   0.56820   0.19342   0.00000  Uiso   1.00
C107   C     0.09293   0.60191   0.27223   0.00000  Uiso   1.00
C108   C     0.06058   0.68396   0.30659   0.00000  Uiso   1.00
C109   C     0.06708   0.70226   0.37892   0.00000  Uiso   1.00
C110   C     0.09016   0.41810   0.18908   0.00000  Uiso   1.00
C111   C     0.05547   0.34560   0.15352   0.00000  Uiso   1.00
C112   C     0.05964   0.20916   0.15585   0.00000  Uiso   1.00
C113   C     0.14173   0.60687   0.16511   0.00000  Uiso   1.00
C114   C     0.15041   0.69306   0.10938   0.00000  Uiso   1.00
C115   C     0.19799   0.71552   0.09151   0.00000  Uiso   1.00
H116   H     0.19078   0.40688   0.28927   0.00000  Uiso   1.00
H117   H     0.16604   0.51085   0.40942   0.00000  Uiso   1.00
H118   H     0.16094   0.17255   0.25636   0.00000  Uiso   1.00
H119   H     0.25586   0.51996   0.21223   0.00000  Uiso   1.00
H120   H     0.12206   0.65323   0.52649   0.00000  Uiso   1.00
H121   H     0.11130   0.93991   0.20376   0.00000  Uiso   1.00
H122   H     0.31146   0.67248   0.11069   0.00000  Uiso   1.00
H123   H     0.06328   0.61613   0.16493   0.00000  Uiso   1.00
H124   H     0.03155   0.73159   0.27826   0.00000  Uiso   1.00
H125   H     0.02644   0.39328   0.12521   0.00000  Uiso   1.00
H126   H     0.12136   0.74069   0.08108   0.00000  Uiso   1.00
H127   H     0.01289   0.83239   0.42004   0.00000  Uiso   1.00
H128   H     0.00214   0.11906   0.09730   0.00000  Uiso   1.00
H129   H     0.20230   0.85163   0.00424   0.00000  Uiso   1.00
O130   O     0.04889   0.81495   0.55006   0.00000  Uiso   1.00
O131   O     0.03479   0.87909   0.12664   0.00000  Uiso   1.00
O132   O     0.29739   0.84021   0.00454   0.00000  Uiso   1.00
N133   N     0.10073   0.67957   0.48588   0.00000  Uiso   1.00
N134   N     0.09067   0.01265   0.18415   0.00000  Uiso   1.00
N135   N     0.27780   0.69752   0.09713   0.00000  Uiso   1.00
N136   N     0.04199   0.77598   0.42860   0.00000  Uiso   1.00
N137   N     0.03193   0.10906   0.12687   0.00000  Uiso   1.00
N138   N     0.21906   0.79392   0.03985   0.00000  Uiso   1.00
C139   C     0.66157   0.95483   0.26078   0.00000  Uiso   1.00
C140   C     0.63045   0.04034   0.30882   0.00000  Uiso   1.00
C141   C     0.63700   0.05853   0.38112   0.00000  Uiso   1.00
C142   C     0.60467   0.14057   0.41558   0.00000  Uiso   1.00
C143   C     0.56204   0.26393   0.49574   0.00000  Uiso   1.00
C144   C     0.62768   0.85653   0.22567   0.00000  Uiso   1.00
C145   C     0.63190   0.72017   0.22805   0.00000  Uiso   1.00
C146   C     0.59722   0.64748   0.19251   0.00000  Uiso   1.00
C147   C     0.55030   0.48547   0.14353   0.00000  Uiso   1.00
C148   C     0.67925   0.04529   0.20170   0.00000  Uiso   1.00
C149   C     0.72683   0.06762   0.18391   0.00000  Uiso   1.00
C150   C     0.73558   0.15384   0.12817   0.00000  Uiso   1.00
C151   C     0.76874   0.28491   0.04197   0.00000  Uiso   1.00
C152   C     0.59250   0.06820   0.19342   0.00000  Uiso   1.00
C153   C     0.59293   0.10191   0.27223   0.00000  Uiso   1.00
C154   C     0.56058   0.18396   0.30659   0.00000  Uiso   1.00
C155   C     0.56708   0.20226   0.37892   0.00000  Uiso   1.00
C156   C     0.59016   0.91810   0.18908   0.00000  Uiso   1.00
C157   C     0.55547   0.84560   0.15352   0.00000  Uiso   1.00
C158   C     0.55964   0.70916   0.15585   0.00000  Uiso   1.00
C159   C     0.64173   0.10687   0.16511   0.00000  Uiso   1.00
C160   C     0.65041   0.19306   0.10938   0.00000  Uiso   1.00
C161   C     0.69799   0.21552   0.09151   0.00000  Uiso   1.00
H162   H     0.69078   0.90688   0.28927   0.00000  Uiso   1.00
H163   H     0.66604   0.01085   0.40942   0.00000  Uiso   1.00
H164   H     0.66094   0.67255   0.25636   0.00000  Uiso   1.00
H165   H     0.75586   0.01996   0.21223   0.00000  Uiso   1.00
H166   H     0.62206   0.15323   0.52649   0.00000  Uiso   1.00
H167   H     0.61130   0.43991   0.20376   0.00000  Uiso   1.00
H168   H     0.81146   0.17248   0.11069   0.00000  Uiso   1.00
H169   H     0.56328   0.11613   0.16493   0.00000  Uiso   1.00
H170   H     0.53155   0.23159   0.27826   0.00000  Uiso   1.00
H171   H     0.52644   0.89328   0.12521   0.00000  Uiso   1.00
H172   H     0.62136   0.24069   0.08108   0.00000  Uiso   1.00
H173   H     0.51289   0.33239   0.42004   0.00000  Uiso   1.00
H174   H     0.50214   0.61906   0.09730   0.00000  Uiso   1.00
H175   H     0.70230   0.35163   0.00424   0.00000  Uiso   1.00
O176   O     0.54889   0.31495   0.55006   0.00000  Uiso   1.00
O177   O     0.53479   0.37909   0.12664   0.00000  Uiso   1.00
O178   O     0.79739   0.34021   0.00454   0.00000  Uiso   1.00
N179   N     0.60073   0.17957   0.48588   0.00000  Uiso   1.00
N180   N     0.59067   0.51265   0.18415   0.00000  Uiso   1.00
N181   N     0.77780   0.19752   0.09713   0.00000  Uiso   1.00
N182   N     0.54199   0.27598   0.42860   0.00000  Uiso   1.00
N183   N     0.53193   0.60906   0.12687   0.00000  Uiso   1.00
N184   N     0.71906   0.29392   0.03985   0.00000  Uiso   1.00
C185   C     0.16157   0.54517   0.73922   0.00000  Uiso   1.00
C186   C     0.13045   0.45966   0.69118   0.00000  Uiso   1.00
C187   C     0.13700   0.44147   0.61888   0.00000  Uiso   1.00
C188   C     0.10467   0.35943   0.58442   0.00000  Uiso   1.00
C189   C     0.06204   0.23607   0.50426   0.00000  Uiso   1.00
C190   C     0.12768   0.64347   0.77433   0.00000  Uiso   1.00
C191   C     0.13190   0.77983   0.77195   0.00000  Uiso   1.00
C192   C     0.09722   0.85252   0.80749   0.00000  Uiso   1.00
C193   C     0.05030   0.01453   0.85647   0.00000  Uiso   1.00
C194   C     0.17925   0.45471   0.79830   0.00000  Uiso   1.00
C195   C     0.22683   0.43238   0.81609   0.00000  Uiso   1.00
C196   C     0.23558   0.34616   0.87183   0.00000  Uiso   1.00
C197   C     0.26874   0.21509   0.95803   0.00000  Uiso   1.00
C198   C     0.09250   0.43180   0.80658   0.00000  Uiso   1.00
C199   C     0.09293   0.39809   0.72777   0.00000  Uiso   1.00
C200   C     0.06058   0.31604   0.69341   0.00000  Uiso   1.00
C201   C     0.06708   0.29774   0.62108   0.00000  Uiso   1.00
C202   C     0.09016   0.58190   0.81092   0.00000  Uiso   1.00
C203   C     0.05547   0.65440   0.84648   0.00000  Uiso   1.00
C204   C     0.05964   0.79084   0.84415   0.00000  Uiso   1.00
C205   C     0.14173   0.39313   0.83489   0.00000  Uiso   1.00
C206   C     0.15041   0.30694   0.89062   0.00000  Uiso   1.00
C207   C     0.19799   0.28448   0.90849   0.00000  Uiso   1.00
H208   H     0.19078   0.59312   0.71073   0.00000  Uiso   1.00
H209   H     0.16604   0.48915   0.59058   0.00000  Uiso   1.00
H210   H     0.16094   0.82745   0.74364   0.00000  Uiso   1.00
H211   H     0.25586   0.48004   0.78777   0.00000  Uiso   1.00
H212   H     0.12206   0.34677   0.47351   0.00000  Uiso   1.00
H213   H     0.11130   0.06009   0.79624   0.00000  Uiso   1.00
H214   H     0.31146   0.32752   0.88931   0.00000  Uiso   1.00
H215   H     0.06328   0.38387   0.83507   0.00000  Uiso   1.00
H216   H     0.03155   0.26841   0.72174   0.00000  Uiso   1.00
H217   H     0.02644   0.60672   0.87479   0.00000  Uiso   1.00
H218   H     0.12136   0.25931   0.91892   0.00000  Uiso   1.00
H219   H     0.01289   0.16761   0.57996   0.00000  Uiso   1.00
H220   H     0.00214   0.88094   0.90270   0.00000  Uiso   1.00
H221   H     0.20230   0.14837   0.99576   0.00000  Uiso   1.00
O222   O     0.04889   0.18505   0.44994   0.00000  Uiso   1.00
O223   O     0.03479   0.12091   0.87336   0.00000  Uiso   1.00
O224   O     0.29739   0.15979   0.99546   0.00000  Uiso   1.00
N225   N     0.10073   0.32043   0.51412   0.00000  Uiso   1.00
N226   N     0.09067   0.98735   0.81585   0.00000  Uiso   1.00
N227   N     0.27780   0.30248   0.90287   0.00000  Uiso   1.00
N228   N     0.04199   0.22402   0.57140   0.00000  Uiso   1.00
N229   N     0.03193   0.89094   0.87313   0.00000  Uiso   1.00
N230   N     0.21906   0.20608   0.96015   0.00000  Uiso   1.00
C231   C     0.66157   0.04517   0.73922   0.00000  Uiso   1.00
C232   C     0.63045   0.95966   0.69118   0.00000  Uiso   1.00
C233   C     0.63700   0.94147   0.61888   0.00000  Uiso   1.00
C234   C     0.60467   0.85943   0.58442   0.00000  Uiso   1.00
C235   C     0.56204   0.73607   0.50426   0.00000  Uiso   1.00
C236   C     0.62768   0.14347   0.77433   0.00000  Uiso   1.00
C237   C     0.63190   0.27983   0.77195   0.00000  Uiso   1.00
C238   C     0.59722   0.35252   0.80749   0.00000  Uiso   1.00
C239   C     0.55030   0.51453   0.85647   0.00000  Uiso   1.00
C240   C     0.67925   0.95471   0.79830   0.00000  Uiso   1.00
C241   C     0.72683   0.93238   0.81609   0.00000  Uiso   1.00
C242   C     0.73558   0.84616   0.87183   0.00000  Uiso   1.00
C243   C     0.76874   0.71509   0.95803   0.00000  Uiso   1.00
C244   C     0.59250   0.93180   0.80658   0.00000  Uiso   1.00
C245   C     0.59293   0.89809   0.72777   0.00000  Uiso   1.00
C246   C     0.56058   0.81604   0.69341   0.00000  Uiso   1.00
C247   C     0.56708   0.79774   0.62108   0.00000  Uiso   1.00
C248   C     0.59016   0.08190   0.81092   0.00000  Uiso   1.00
C249   C     0.55547   0.15440   0.84648   0.00000  Uiso   1.00
C250   C     0.55964   0.29084   0.84415   0.00000  Uiso   1.00
C251   C     0.64173   0.89313   0.83489   0.00000  Uiso   1.00
C252   C     0.65041   0.80694   0.89062   0.00000  Uiso   1.00
C253   C     0.69799   0.78448   0.90849   0.00000  Uiso   1.00
H254   H     0.69078   0.09312   0.71073   0.00000  Uiso   1.00
H255   H     0.66604   0.98915   0.59058   0.00000  Uiso   1.00
H256   H     0.66094   0.32745   0.74364   0.00000  Uiso   1.00
H257   H     0.75586   0.98004   0.78777   0.00000  Uiso   1.00
H258   H     0.62206   0.84677   0.47351   0.00000  Uiso   1.00
H259   H     0.61130   0.56009   0.79624   0.00000  Uiso   1.00
H260   H     0.81146   0.82752   0.88931   0.00000  Uiso   1.00
H261   H     0.56328   0.88387   0.83507   0.00000  Uiso   1.00
H262   H     0.53155   0.76841   0.72174   0.00000  Uiso   1.00
H263   H     0.52644   0.10672   0.87479   0.00000  Uiso   1.00
H264   H     0.62136   0.75931   0.91892   0.00000  Uiso   1.00
H265   H     0.51289   0.66761   0.57996   0.00000  Uiso   1.00
H266   H     0.50214   0.38094   0.90270   0.00000  Uiso   1.00
H267   H     0.70230   0.64837   0.99576   0.00000  Uiso   1.00
O268   O     0.54889   0.68505   0.44994   0.00000  Uiso   1.00
O269   O     0.53479   0.62091   0.87336   0.00000  Uiso   1.00
O270   O     0.79739   0.65979   0.99546   0.00000  Uiso   1.00
N271   N     0.60073   0.82043   0.51412   0.00000  Uiso   1.00
N272   N     0.59067   0.48735   0.81585   0.00000  Uiso   1.00
N273   N     0.77780   0.80248   0.90287   0.00000  Uiso   1.00
N274   N     0.54199   0.72402   0.57140   0.00000  Uiso   1.00
N275   N     0.53193   0.39094   0.87313   0.00000  Uiso   1.00
N276   N     0.71906   0.70608   0.96015   0.00000  Uiso   1.00
C277   C     0.83843   0.45483   0.23922   0.00000  Uiso   1.00
C278   C     0.86955   0.54034   0.19118   0.00000  Uiso   1.00
C279   C     0.86300   0.55853   0.11888   0.00000  Uiso   1.00
C280   C     0.89533   0.64057   0.08442   0.00000  Uiso   1.00
C281   C     0.93796   0.76393   0.00426   0.00000  Uiso   1.00
C282   C     0.87232   0.35653   0.27433   0.00000  Uiso   1.00
C283   C     0.86810   0.22017   0.27195   0.00000  Uiso   1.00
C284   C     0.90278   0.14748   0.30749   0.00000  Uiso   1.00
C285   C     0.94970   0.98547   0.35647   0.00000  Uiso   1.00
C286   C     0.82075   0.54529   0.29830   0.00000  Uiso   1.00
C287   C     0.77317   0.56762   0.31609   0.00000  Uiso   1.00
C288   C     0.76442   0.65384   0.37183   0.00000  Uiso   1.00
C289   C     0.73126   0.78491   0.45803   0.00000  Uiso   1.00
C290   C     0.90750   0.56820   0.30658   0.00000  Uiso   1.00
C291   C     0.90707   0.60191   0.22777   0.00000  Uiso   1.00
C292   C     0.93942   0.68396   0.19341   0.00000  Uiso   1.00
C293   C     0.93292   0.70226   0.12108   0.00000  Uiso   1.00
C294   C     0.90984   0.41810   0.31092   0.00000  Uiso   1.00
C295   C     0.94453   0.34560   0.34648   0.00000  Uiso   1.00
C296   C     0.94036   0.20916   0.34415   0.00000  Uiso   1.00
C297   C     0.85827   0.60687   0.33489   0.00000  Uiso   1.00
C298   C     0.84959   0.69306   0.39062   0.00000  Uiso   1.00
C299   C     0.80201   0.71552   0.40849   0.00000  Uiso   1.00
H300   H     0.80922   0.40688   0.21073   0.00000  Uiso   1.00
H301   H     0.83396   0.51085   0.09058   0.00000  Uiso   1.00
H302   H     0.83906   0.17255   0.24364   0.00000  Uiso   1.00
H303   H     0.74414   0.51996   0.28777   0.00000  Uiso   1.00
H304   H     0.87794   0.65323   0.97351   0.00000  Uiso   1.00
H305   H     0.88870   0.93991   0.29624   0.00000  Uiso   1.00
H306   H     0.68854   0.67248   0.38931   0.00000  Uiso   1.00
H307   H     0.93672   0.61613   0.33507   0.00000  Uiso   1.00
H308   H     0.96845   0.73159   0.22174   0.00000  Uiso   1.00
H309   H     0.97356   0.39328   0.37479   0.00000  Uiso   1.00
H310   H     0.87864   0.74069   0.41892   0.00000  Uiso   1.00
H311   H     0.98711   0.83239   0.07996   0.00000  Uiso   1.00
H312   H     0.99786   0.11906   0.40270   0.00000  Uiso   1.00
H313   H     0.79770   0.85163   0.49576   0.00000  Uiso   1.00
O314   O     0.95111   0.81495   0.94994   0.00000  Uiso   1.00
O315   O     0.96521   0.87909   0.37336   0.00000  Uiso   1.00
O316   O     0.70261   0.84021   0.49546   0.00000  Uiso   1.00
N317   N     0.89927   0.67957   0.01412   0.00000  Uiso   1.00
N318   N     0.90933   0.01265   0.31585   0.00000  Uiso   1.00
N319   N     0.72220   0.69752   0.40287   0.00000  Uiso   1.00
N320   N     0.95801   0.77598   0.07140   0.00000  Uiso   1.00
N321   N     0.96807   0.10906   0.37313   0.00000  Uiso   1.00
N322   N     0.78094   0.79392   0.46015   0.00000  Uiso   1.00
C323   C     0.33843   0.95483   0.23922   0.00000  Uiso   1.00
C324   C     0.36955   0.04034   0.19118   0.00000  Uiso   1.00
C325   C     0.36300   0.05853   0.11888   0.00000  Uiso   1.00
C326   C     0.39533   0.14057   0.08442   0.00000  Uiso   1.00
C327   C     0.43796   0.26393   0.00426   0.00000  Uiso   1.00
C328   C     0.37232   0.85653   0.27433   0.00000  Uiso   1.00
C329   C     0.36810   0.72017   0.27195   0.00000  Uiso   1.00
C330   C     0.40278   0.64748   0.30749   0.00000  Uiso   1.00
C331   C     0.44970   0.48547   0.35647   0.00000  Uiso   1.00
C332   C     0.32075   0.04529   0.29830   0.00000  Uiso   1.00
C333   C     0.27317   0.06762   0.31609   0.00000  Uiso   1.00
C334   C     0.26442   0.15384   0.37183   0.00000  Uiso   1.00
C335   C     0.23126   0.28491   0.45803   0.00000  Uiso   1.00
C336   C     0.40750   0.06820   0.30658   0.00000  Uiso   1.00
C337   C     0.40707   0.10191   0.22777   0.00000  Uiso   1.00
C338   C     0.43942   0.18396   0.19341   0.00000  Uiso   1.00
C339   C     0.43292   0.20226   0.12108   0.00000  Uiso   1.00
C340   C     0.40984   0.91810   0.31092   0.00000  Uiso   1.00
C341   C     0.44453   0.84560   0.34648   0.00000  Uiso   1.00
C342   C     0.44036   0.70916   0.34415   0.00000  Uiso   1.00
C343   C     0.35827   0.10687   0.33489   0.00000  Uiso   1.00
C344   C     0.34959   0.19306   0.39062   0.00000  Uiso   1.00
C345   C     0.30201   0.21552   0.40849   0.00000  Uiso   1.00
H346   H     0.30922   0.90688   0.21073   0.00000  Uiso   1.00
H347   H     0.33396   0.01085   0.09058   0.00000  Uiso   1.00
H348   H     0.33906   0.67255   0.24364   0.00000  Uiso   1.00
H349   H     0.24414   0.01996   0.28777   0.00000  Uiso   1.00
H350   H     0.37794   0.15323   0.97351   0.00000  Uiso   1.00
H351   H     0.38870   0.43991   0.29624   0.00000  Uiso   1.00
H352   H     0.18854   0.17248   0.38931   0.00000  Uiso   1.00
H353   H     0.43672   0.11613   0.33507   0.00000  Uiso   1.00
H354   H     0.46845   0.23159   0.22174   0.00000  Uiso   1.00
H355   H     0.47356   0.89328   0.37479   0.00000  Uiso   1.00
H356   H     0.37864   0.24069   0.41892   0.00000  Uiso   1.00
H357   H     0.48711   0.33239   0.07996   0.00000  Uiso   1.00
H358   H     0.49786   0.61906   0.40270   0.00000  Uiso   1.00
H359   H     0.29770   0.35163   0.49576   0.00000  Uiso   1.00
O360   O     0.45111   0.31495   0.94994   0.00000  Uiso   1.00
O361   O     0.46521   0.37909   0.37336   0.00000  Uiso   1.00
O362   O     0.20261   0.34021   0.49546   0.00000  Uiso   1.00
N363   N     0.39927   0.17957   0.01412   0.00000  Uiso   1.00
N364   N     0.40933   0.51265   0.31585   0.00000  Uiso   1.00
N365   N     0.22220   0.19752   0.40287   0.00000  Uiso   1.00
N366   N     0.45801   0.27598   0.07140   0.00000  Uiso   1.00
N367   N     0.46807   0.60906   0.37313   0.00000  Uiso   1.00
N368   N     0.28094   0.29392   0.46015   0.00000  Uiso   1.00
