data_job_00647
_audit_creation_date              2018-12-19
_audit_creation_method            'Materials Studio'
_symmetry_space_group_name_H-M    'P1'
_symmetry_Int_Tables_number       1
_symmetry_cell_setting            triclinic
loop_
_symmetry_equiv_pos_as_xyz
  x,y,z
_cell_length_a                    7.4651
_cell_length_b                    29.9245
_cell_length_c                    15.5064
_cell_angle_alpha                 90.0000
_cell_angle_beta                  131.9152
_cell_angle_gamma                 90.0000
loop_
_atom_site_label
_atom_site_type_symbol
_atom_site_fract_x
_atom_site_fract_y
_atom_site_fract_z
_atom_site_U_iso_or_equiv
_atom_site_adp_type
_atom_site_occupancy
C1     C     0.57170   0.84049   0.52441   0.00000  Uiso   1.00
C2     C     0.46837   0.87139   0.42229   0.00000  Uiso   1.00
C3     C     0.23602   0.88842   0.34612   0.00000  Uiso   1.00
C4     C     0.17628   0.91610   0.25832   0.00000  Uiso   1.00
C5     C     0.99043   0.96250   0.10142   0.00000  Uiso   1.00
C6     C     0.66173   0.79915   0.50575   0.00000  Uiso   1.00
C7     C     0.59198   0.75544   0.49977   0.00000  Uiso   1.00
C8     C     0.69505   0.72232   0.48224   0.00000  Uiso   1.00
C9     C     0.80953   0.65657   0.45499   0.00000  Uiso   1.00
C10    C     0.79543   0.86388   0.63115   0.00000  Uiso   1.00
C11    C     0.83815   0.87457   0.73062   0.00000  Uiso   1.00
C12    C     0.05381   0.89593   0.81868   0.00000  Uiso   1.00
C13    C     0.37588   0.93067   0.98612   0.00000  Uiso   1.00
C14    C     0.87879   0.85939   0.50394   0.00000  Uiso   1.00
C15    C     0.63517   0.88165   0.41117   0.00000  Uiso   1.00
C16    C     0.57577   0.90932   0.32347   0.00000  Uiso   1.00
C17    C     0.34338   0.92639   0.24718   0.00000  Uiso   1.00
C18    C     0.82852   0.80942   0.49463   0.00000  Uiso   1.00
C19    C     0.93173   0.77635   0.47712   0.00000  Uiso   1.00
C20    C     0.86215   0.73260   0.47110   0.00000  Uiso   1.00
C21    C     0.96223   0.87414   0.62003   0.00000  Uiso   1.00
C22    C     0.17789   0.89548   0.70796   0.00000  Uiso   1.00
C23    C     0.22091   0.90621   0.80754   0.00000  Uiso   1.00
H24    H     0.44185   0.83250   0.53307   0.00000  Uiso   1.00
H25    H     0.10698   0.88046   0.35475   0.00000  Uiso   1.00
H26    H     0.46292   0.74751   0.50839   0.00000  Uiso   1.00
H27    H     0.70903   0.86663   0.73919   0.00000  Uiso   1.00
H28    H     0.80926   0.93815   0.15212   0.00000  Uiso   1.00
H29    H     0.55982   0.65781   0.47611   0.00000  Uiso   1.00
H30    H     0.07880   0.90899   0.96281   0.00000  Uiso   1.00
H31    H     0.00865   0.86738   0.49528   0.00000  Uiso   1.00
H32    H     0.70489   0.91726   0.31489   0.00000  Uiso   1.00
H33    H     0.06081   0.78430   0.46852   0.00000  Uiso   1.00
H34    H     0.30692   0.90342   0.69933   0.00000  Uiso   1.00
H35    H     0.29454   0.96801   0.11977   0.00000  Uiso   1.00
H36    H     0.04510   0.68767   0.44376   0.00000  Uiso   1.00
H37    H     0.56408   0.93885   0.93046   0.00000  Uiso   1.00
O38    O     0.84182   0.98525   0.01793   0.00000  Uiso   1.00
O39    O     0.82656   0.61746   0.44302   0.00000  Uiso   1.00
O40    O     0.50744   0.94700   0.08155   0.00000  Uiso   1.00
N41    N     0.96517   0.93834   0.16928   0.00000  Uiso   1.00
N42    N     0.66687   0.67624   0.47217   0.00000  Uiso   1.00
N43    N     0.15210   0.91106   0.92721   0.00000  Uiso   1.00
N44    N     0.22630   0.95441   0.15187   0.00000  Uiso   1.00
N45    N     0.92799   0.69231   0.45476   0.00000  Uiso   1.00
N46    N     0.41323   0.92713   0.90980   0.00000  Uiso   1.00
C47    C     0.42830   0.34049   0.97559   0.00000  Uiso   1.00
C48    C     0.53163   0.37139   0.07771   0.00000  Uiso   1.00
C49    C     0.76398   0.38842   0.15388   0.00000  Uiso   1.00
C50    C     0.82372   0.41610   0.24168   0.00000  Uiso   1.00
C51    C     0.00957   0.46250   0.39858   0.00000  Uiso   1.00
C52    C     0.33827   0.29915   0.99425   0.00000  Uiso   1.00
C53    C     0.40802   0.25544   0.00023   0.00000  Uiso   1.00
C54    C     0.30495   0.22232   0.01776   0.00000  Uiso   1.00
C55    C     0.19047   0.15657   0.04501   0.00000  Uiso   1.00
C56    C     0.20457   0.36388   0.86885   0.00000  Uiso   1.00
C57    C     0.16185   0.37457   0.76938   0.00000  Uiso   1.00
C58    C     0.94619   0.39593   0.68132   0.00000  Uiso   1.00
C59    C     0.62412   0.43067   0.51388   0.00000  Uiso   1.00
C60    C     0.12121   0.35939   0.99606   0.00000  Uiso   1.00
C61    C     0.36483   0.38165   0.08883   0.00000  Uiso   1.00
C62    C     0.42423   0.40932   0.17653   0.00000  Uiso   1.00
C63    C     0.65662   0.42639   0.25282   0.00000  Uiso   1.00
C64    C     0.17148   0.30942   0.00537   0.00000  Uiso   1.00
C65    C     0.06827   0.27635   0.02288   0.00000  Uiso   1.00
C66    C     0.13785   0.23260   0.02890   0.00000  Uiso   1.00
C67    C     0.03777   0.37414   0.87997   0.00000  Uiso   1.00
C68    C     0.82211   0.39548   0.79204   0.00000  Uiso   1.00
C69    C     0.77909   0.40621   0.69246   0.00000  Uiso   1.00
H70    H     0.55815   0.33250   0.96693   0.00000  Uiso   1.00
H71    H     0.89302   0.38046   0.14525   0.00000  Uiso   1.00
H72    H     0.53708   0.24751   0.99161   0.00000  Uiso   1.00
H73    H     0.29097   0.36663   0.76081   0.00000  Uiso   1.00
H74    H     0.19074   0.43815   0.34788   0.00000  Uiso   1.00
H75    H     0.44018   0.15781   0.02389   0.00000  Uiso   1.00
H76    H     0.92120   0.40899   0.53719   0.00000  Uiso   1.00
H77    H     0.99135   0.36738   0.00472   0.00000  Uiso   1.00
H78    H     0.29511   0.41726   0.18511   0.00000  Uiso   1.00
H79    H     0.93919   0.28430   0.03148   0.00000  Uiso   1.00
H80    H     0.69308   0.40342   0.80067   0.00000  Uiso   1.00
H81    H     0.70546   0.46801   0.38023   0.00000  Uiso   1.00
H82    H     0.95490   0.18767   0.05624   0.00000  Uiso   1.00
H83    H     0.43592   0.43885   0.56954   0.00000  Uiso   1.00
O84    O     0.15818   0.48525   0.48207   0.00000  Uiso   1.00
O85    O     0.17344   0.11746   0.05698   0.00000  Uiso   1.00
O86    O     0.49256   0.44700   0.41845   0.00000  Uiso   1.00
N87    N     0.03483   0.43834   0.33072   0.00000  Uiso   1.00
N88    N     0.33313   0.17624   0.02783   0.00000  Uiso   1.00
N89    N     0.84790   0.41106   0.57279   0.00000  Uiso   1.00
N90    N     0.77370   0.45441   0.34813   0.00000  Uiso   1.00
N91    N     0.07201   0.19231   0.04524   0.00000  Uiso   1.00
N92    N     0.58677   0.42713   0.59020   0.00000  Uiso   1.00
C93    C     0.42830   0.15951   0.47559   0.00000  Uiso   1.00
C94    C     0.53163   0.12861   0.57771   0.00000  Uiso   1.00
C95    C     0.76398   0.11158   0.65388   0.00000  Uiso   1.00
C96    C     0.82372   0.08390   0.74168   0.00000  Uiso   1.00
C97    C     0.00957   0.03750   0.89858   0.00000  Uiso   1.00
C98    C     0.33827   0.20085   0.49425   0.00000  Uiso   1.00
C99    C     0.40802   0.24456   0.50023   0.00000  Uiso   1.00
C100   C     0.30495   0.27768   0.51776   0.00000  Uiso   1.00
C101   C     0.19047   0.34343   0.54501   0.00000  Uiso   1.00
C102   C     0.20457   0.13612   0.36885   0.00000  Uiso   1.00
C103   C     0.16185   0.12543   0.26938   0.00000  Uiso   1.00
C104   C     0.94619   0.10407   0.18132   0.00000  Uiso   1.00
C105   C     0.62412   0.06933   0.01388   0.00000  Uiso   1.00
C106   C     0.12121   0.14061   0.49606   0.00000  Uiso   1.00
C107   C     0.36483   0.11835   0.58883   0.00000  Uiso   1.00
C108   C     0.42423   0.09068   0.67653   0.00000  Uiso   1.00
C109   C     0.65662   0.07361   0.75282   0.00000  Uiso   1.00
C110   C     0.17148   0.19058   0.50537   0.00000  Uiso   1.00
C111   C     0.06827   0.22365   0.52288   0.00000  Uiso   1.00
C112   C     0.13785   0.26740   0.52890   0.00000  Uiso   1.00
C113   C     0.03777   0.12586   0.37997   0.00000  Uiso   1.00
C114   C     0.82211   0.10452   0.29204   0.00000  Uiso   1.00
C115   C     0.77909   0.09379   0.19246   0.00000  Uiso   1.00
H116   H     0.55815   0.16750   0.46693   0.00000  Uiso   1.00
H117   H     0.89302   0.11954   0.64525   0.00000  Uiso   1.00
H118   H     0.53708   0.25249   0.49161   0.00000  Uiso   1.00
H119   H     0.29097   0.13337   0.26081   0.00000  Uiso   1.00
H120   H     0.19074   0.06185   0.84788   0.00000  Uiso   1.00
H121   H     0.44018   0.34219   0.52389   0.00000  Uiso   1.00
H122   H     0.92120   0.09101   0.03719   0.00000  Uiso   1.00
H123   H     0.99135   0.13262   0.50472   0.00000  Uiso   1.00
H124   H     0.29511   0.08274   0.68511   0.00000  Uiso   1.00
H125   H     0.93919   0.21570   0.53148   0.00000  Uiso   1.00
H126   H     0.69308   0.09658   0.30067   0.00000  Uiso   1.00
H127   H     0.70546   0.03199   0.88023   0.00000  Uiso   1.00
H128   H     0.95490   0.31233   0.55624   0.00000  Uiso   1.00
H129   H     0.43592   0.06115   0.06954   0.00000  Uiso   1.00
O130   O     0.15818   0.01475   0.98207   0.00000  Uiso   1.00
O131   O     0.17344   0.38254   0.55698   0.00000  Uiso   1.00
O132   O     0.49256   0.05300   0.91845   0.00000  Uiso   1.00
N133   N     0.03483   0.06166   0.83072   0.00000  Uiso   1.00
N134   N     0.33313   0.32376   0.52783   0.00000  Uiso   1.00
N135   N     0.84790   0.08894   0.07279   0.00000  Uiso   1.00
N136   N     0.77370   0.04559   0.84813   0.00000  Uiso   1.00
N137   N     0.07201   0.30769   0.54524   0.00000  Uiso   1.00
N138   N     0.58677   0.07287   0.09020   0.00000  Uiso   1.00
C139   C     0.57170   0.65951   0.02441   0.00000  Uiso   1.00
C140   C     0.46837   0.62861   0.92229   0.00000  Uiso   1.00
C141   C     0.23602   0.61158   0.84612   0.00000  Uiso   1.00
C142   C     0.17628   0.58390   0.75832   0.00000  Uiso   1.00
C143   C     0.99043   0.53750   0.60142   0.00000  Uiso   1.00
C144   C     0.66173   0.70085   0.00575   0.00000  Uiso   1.00
C145   C     0.59198   0.74456   0.99977   0.00000  Uiso   1.00
C146   C     0.69505   0.77768   0.98224   0.00000  Uiso   1.00
C147   C     0.80953   0.84343   0.95499   0.00000  Uiso   1.00
C148   C     0.79543   0.63612   0.13115   0.00000  Uiso   1.00
C149   C     0.83815   0.62543   0.23062   0.00000  Uiso   1.00
C150   C     0.05381   0.60407   0.31868   0.00000  Uiso   1.00
C151   C     0.37588   0.56933   0.48612   0.00000  Uiso   1.00
C152   C     0.87879   0.64061   0.00394   0.00000  Uiso   1.00
C153   C     0.63517   0.61835   0.91117   0.00000  Uiso   1.00
C154   C     0.57577   0.59068   0.82347   0.00000  Uiso   1.00
C155   C     0.34338   0.57361   0.74718   0.00000  Uiso   1.00
C156   C     0.82852   0.69058   0.99463   0.00000  Uiso   1.00
C157   C     0.93173   0.72365   0.97712   0.00000  Uiso   1.00
C158   C     0.86215   0.76740   0.97110   0.00000  Uiso   1.00
C159   C     0.96223   0.62586   0.12003   0.00000  Uiso   1.00
C160   C     0.17789   0.60452   0.20796   0.00000  Uiso   1.00
C161   C     0.22091   0.59379   0.30754   0.00000  Uiso   1.00
H162   H     0.44185   0.66750   0.03307   0.00000  Uiso   1.00
H163   H     0.10698   0.61954   0.85475   0.00000  Uiso   1.00
H164   H     0.46292   0.75249   0.00839   0.00000  Uiso   1.00
H165   H     0.70903   0.63337   0.23919   0.00000  Uiso   1.00
H166   H     0.80926   0.56185   0.65212   0.00000  Uiso   1.00
H167   H     0.55982   0.84219   0.97611   0.00000  Uiso   1.00
H168   H     0.07880   0.59101   0.46281   0.00000  Uiso   1.00
H169   H     0.00865   0.63262   0.99528   0.00000  Uiso   1.00
H170   H     0.70489   0.58274   0.81489   0.00000  Uiso   1.00
H171   H     0.06081   0.71570   0.96852   0.00000  Uiso   1.00
H172   H     0.30692   0.59658   0.19933   0.00000  Uiso   1.00
H173   H     0.29454   0.53199   0.61977   0.00000  Uiso   1.00
H174   H     0.04510   0.81233   0.94376   0.00000  Uiso   1.00
H175   H     0.56408   0.56115   0.43046   0.00000  Uiso   1.00
O176   O     0.84182   0.51475   0.51793   0.00000  Uiso   1.00
O177   O     0.82656   0.88254   0.94302   0.00000  Uiso   1.00
O178   O     0.50744   0.55300   0.58155   0.00000  Uiso   1.00
N179   N     0.96517   0.56166   0.66928   0.00000  Uiso   1.00
N180   N     0.66687   0.82376   0.97217   0.00000  Uiso   1.00
N181   N     0.15210   0.58894   0.42721   0.00000  Uiso   1.00
N182   N     0.22630   0.54559   0.65187   0.00000  Uiso   1.00
N183   N     0.92799   0.80769   0.95476   0.00000  Uiso   1.00
N184   N     0.41323   0.57287   0.40980   0.00000  Uiso   1.00
