data_job_05705
_audit_creation_date              2018-12-19
_audit_creation_method            'Materials Studio'
_symmetry_space_group_name_H-M    'P1'
_symmetry_Int_Tables_number       1
_symmetry_cell_setting            triclinic
loop_
_symmetry_equiv_pos_as_xyz
  x,y,z
_cell_length_a                    15.7863
_cell_length_b                    13.4505
_cell_length_c                    12.5287
_cell_angle_alpha                 90.0000
_cell_angle_beta                  95.6972
_cell_angle_gamma                 90.0000
loop_
_atom_site_label
_atom_site_type_symbol
_atom_site_fract_x
_atom_site_fract_y
_atom_site_fract_z
_atom_site_U_iso_or_equiv
_atom_site_adp_type
_atom_site_occupancy
C1     C     0.97431   0.04116   0.78632   0.00000  Uiso   1.00
C2     C     0.93820   0.07076   0.89022   0.00000  Uiso   1.00
C3     C     0.88852   0.01103   0.94942   0.00000  Uiso   1.00
C4     C     0.86173   0.05182   0.04216   0.00000  Uiso   1.00
C5     C     0.80226   0.08303   0.19855   0.00000  Uiso   1.00
C6     C     0.94233   0.11894   0.70336   0.00000  Uiso   1.00
C7     C     0.89614   0.09971   0.60544   0.00000  Uiso   1.00
C8     C     0.87283   0.18106   0.54088   0.00000  Uiso   1.00
C9     C     0.81983   0.28708   0.40714   0.00000  Uiso   1.00
C10    C     0.07033   0.05620   0.80610   0.00000  Uiso   1.00
C11    C     0.13176   0.98424   0.79454   0.00000  Uiso   1.00
C12    C     0.21622   0.01279   0.81646   0.00000  Uiso   1.00
C13    C     0.36194   0.02140   0.84224   0.00000  Uiso   1.00
C14    C     0.01508   0.21980   0.84577   0.00000  Uiso   1.00
C15    C     0.96034   0.16779   0.92251   0.00000  Uiso   1.00
C16    C     0.93362   0.20868   0.01519   0.00000  Uiso   1.00
C17    C     0.88392   0.14902   0.07451   0.00000  Uiso   1.00
C18    C     0.96447   0.21597   0.73565   0.00000  Uiso   1.00
C19    C     0.94124   0.29737   0.67121   0.00000  Uiso   1.00
C20    C     0.89502   0.27827   0.57323   0.00000  Uiso   1.00
C21    C     0.09247   0.15324   0.83840   0.00000  Uiso   1.00
C22    C     0.17685   0.18190   0.86032   0.00000  Uiso   1.00
C23    C     0.23840   0.11000   0.84881   0.00000  Uiso   1.00
H24    H     0.95707   0.96561   0.76117   0.00000  Uiso   1.00
H25    H     0.87140   0.93594   0.92439   0.00000  Uiso   1.00
H26    H     0.87902   0.02461   0.58047   0.00000  Uiso   1.00
H27    H     0.11460   0.90916   0.76955   0.00000  Uiso   1.00
H28    H     0.78615   0.94585   0.11957   0.00000  Uiso   1.00
H29    H     0.80225   0.13282   0.39438   0.00000  Uiso   1.00
H30    H     0.29901   0.88937   0.79309   0.00000  Uiso   1.00
H31    H     0.03231   0.29535   0.87091   0.00000  Uiso   1.00
H32    H     0.95077   0.28377   0.04016   0.00000  Uiso   1.00
H33    H     0.95839   0.37244   0.69623   0.00000  Uiso   1.00
H34    H     0.19397   0.25699   0.88531   0.00000  Uiso   1.00
H35    H     0.85056   0.22817   0.21353   0.00000  Uiso   1.00
H36    H     0.86666   0.41513   0.48832   0.00000  Uiso   1.00
H37    H     0.36343   0.17168   0.88704   0.00000  Uiso   1.00
O38    O     0.76333   0.07345   0.27589   0.00000  Uiso   1.00
O39    O     0.78447   0.31874   0.32445   0.00000  Uiso   1.00
O40    O     0.43621   0.99934   0.84756   0.00000  Uiso   1.00
N41    N     0.81251   0.01387   0.11847   0.00000  Uiso   1.00
N42    N     0.82755   0.18868   0.44046   0.00000  Uiso   1.00
N43    N     0.29199   0.96108   0.81319   0.00000  Uiso   1.00
N44    N     0.84718   0.16579   0.16903   0.00000  Uiso   1.00
N45    N     0.86221   0.34059   0.49102   0.00000  Uiso   1.00
N46    N     0.32665   0.11299   0.86375   0.00000  Uiso   1.00
C47    C     0.48925   0.52813   0.80428   0.00000  Uiso   1.00
C48    C     0.45288   0.55823   0.90786   0.00000  Uiso   1.00
C49    C     0.40236   0.49915   0.96660   0.00000  Uiso   1.00
C50    C     0.37547   0.54031   0.05910   0.00000  Uiso   1.00
C51    C     0.31549   0.57234   0.21497   0.00000  Uiso   1.00
C52    C     0.45834   0.60626   0.72117   0.00000  Uiso   1.00
C53    C     0.41242   0.58755   0.62295   0.00000  Uiso   1.00
C54    C     0.39015   0.66914   0.55829   0.00000  Uiso   1.00
C55    C     0.33870   0.77573   0.42429   0.00000  Uiso   1.00
C56    C     0.58535   0.54202   0.82479   0.00000  Uiso   1.00
C57    C     0.64623   0.46931   0.81367   0.00000  Uiso   1.00
C58    C     0.73088   0.49683   0.83623   0.00000  Uiso   1.00
C59    C     0.87664   0.50367   0.86312   0.00000  Uiso   1.00
C60    C     0.53134   0.70631   0.86410   0.00000  Uiso   1.00
C61    C     0.47575   0.65501   0.94035   0.00000  Uiso   1.00
C62    C     0.44893   0.69627   0.03279   0.00000  Uiso   1.00
C63    C     0.39838   0.63726   0.09166   0.00000  Uiso   1.00
C64    C     0.48121   0.70303   0.75366   0.00000  Uiso   1.00
C65    C     0.45900   0.78467   0.68914   0.00000  Uiso   1.00
C66    C     0.41305   0.76609   0.59084   0.00000  Uiso   1.00
C67    C     0.60822   0.63880   0.85729   0.00000  Uiso   1.00
C68    C     0.69280   0.66643   0.87986   0.00000  Uiso   1.00
C69    C     0.75379   0.59378   0.86878   0.00000  Uiso   1.00
H70    H     0.47145   0.45279   0.77897   0.00000  Uiso   1.00
H71    H     0.38467   0.42426   0.94142   0.00000  Uiso   1.00
H72    H     0.39475   0.51265   0.59782   0.00000  Uiso   1.00
H73    H     0.62851   0.39443   0.78852   0.00000  Uiso   1.00
H74    H     0.29853   0.43532   0.13584   0.00000  Uiso   1.00
H75    H     0.31979   0.62168   0.41131   0.00000  Uiso   1.00
H76    H     0.81273   0.37239   0.81344   0.00000  Uiso   1.00
H77    H     0.54914   0.78165   0.88940   0.00000  Uiso   1.00
H78    H     0.46663   0.77117   0.05792   0.00000  Uiso   1.00
H79    H     0.47670   0.85955   0.71431   0.00000  Uiso   1.00
H80    H     0.71047   0.74133   0.90501   0.00000  Uiso   1.00
H81    H     0.36504   0.71688   0.23038   0.00000  Uiso   1.00
H82    H     0.38631   0.90325   0.50585   0.00000  Uiso   1.00
H83    H     0.87925   0.65395   0.90799   0.00000  Uiso   1.00
O84    O     0.27608   0.56328   0.29195   0.00000  Uiso   1.00
O85    O     0.30400   0.80778   0.34140   0.00000  Uiso   1.00
O86    O     0.95072   0.48071   0.86898   0.00000  Uiso   1.00
N87    N     0.32552   0.50301   0.13497   0.00000  Uiso   1.00
N88    N     0.34539   0.67726   0.45759   0.00000  Uiso   1.00
N89    N     0.80625   0.44419   0.83352   0.00000  Uiso   1.00
N90    N     0.36131   0.65452   0.18585   0.00000  Uiso   1.00
N91    N     0.38118   0.82876   0.50847   0.00000  Uiso   1.00
N92    N     0.84204   0.59570   0.88440   0.00000  Uiso   1.00
C93    C     0.02569   0.54116   0.21368   0.00000  Uiso   1.00
C94    C     0.06180   0.57076   0.10978   0.00000  Uiso   1.00
C95    C     0.11148   0.51103   0.05058   0.00000  Uiso   1.00
C96    C     0.13827   0.55182   0.95784   0.00000  Uiso   1.00
C97    C     0.19774   0.58303   0.80145   0.00000  Uiso   1.00
C98    C     0.05767   0.61894   0.29664   0.00000  Uiso   1.00
C99    C     0.10386   0.59971   0.39456   0.00000  Uiso   1.00
C100   C     0.12717   0.68106   0.45912   0.00000  Uiso   1.00
C101   C     0.18017   0.78708   0.59286   0.00000  Uiso   1.00
C102   C     0.92967   0.55620   0.19390   0.00000  Uiso   1.00
C103   C     0.86824   0.48424   0.20546   0.00000  Uiso   1.00
C104   C     0.78378   0.51279   0.18354   0.00000  Uiso   1.00
C105   C     0.63806   0.52140   0.15776   0.00000  Uiso   1.00
C106   C     0.98492   0.71980   0.15423   0.00000  Uiso   1.00
C107   C     0.03966   0.66779   0.07749   0.00000  Uiso   1.00
C108   C     0.06638   0.70868   0.98481   0.00000  Uiso   1.00
C109   C     0.11608   0.64902   0.92549   0.00000  Uiso   1.00
C110   C     0.03553   0.71597   0.26435   0.00000  Uiso   1.00
C111   C     0.05876   0.79737   0.32879   0.00000  Uiso   1.00
C112   C     0.10498   0.77827   0.42677   0.00000  Uiso   1.00
C113   C     0.90753   0.65324   0.16160   0.00000  Uiso   1.00
C114   C     0.82315   0.68190   0.13968   0.00000  Uiso   1.00
C115   C     0.76160   0.61000   0.15119   0.00000  Uiso   1.00
H116   H     0.04293   0.46561   0.23883   0.00000  Uiso   1.00
H117   H     0.12860   0.43594   0.07561   0.00000  Uiso   1.00
H118   H     0.12098   0.52461   0.41953   0.00000  Uiso   1.00
H119   H     0.88540   0.40916   0.23045   0.00000  Uiso   1.00
H120   H     0.21385   0.44585   0.88043   0.00000  Uiso   1.00
H121   H     0.19775   0.63282   0.60562   0.00000  Uiso   1.00
H122   H     0.70099   0.38937   0.20691   0.00000  Uiso   1.00
H123   H     0.96769   0.79535   0.12909   0.00000  Uiso   1.00
H124   H     0.04923   0.78377   0.95984   0.00000  Uiso   1.00
H125   H     0.04161   0.87244   0.30377   0.00000  Uiso   1.00
H126   H     0.80603   0.75699   0.11469   0.00000  Uiso   1.00
H127   H     0.14944   0.72817   0.78647   0.00000  Uiso   1.00
H128   H     0.13334   0.91513   0.51168   0.00000  Uiso   1.00
H129   H     0.63657   0.67168   0.11296   0.00000  Uiso   1.00
O130   O     0.23667   0.57345   0.72411   0.00000  Uiso   1.00
O131   O     0.21553   0.81874   0.67555   0.00000  Uiso   1.00
O132   O     0.56379   0.49934   0.15244   0.00000  Uiso   1.00
N133   N     0.18749   0.51387   0.88153   0.00000  Uiso   1.00
N134   N     0.17245   0.68868   0.55954   0.00000  Uiso   1.00
N135   N     0.70801   0.46108   0.18681   0.00000  Uiso   1.00
N136   N     0.15282   0.66579   0.83097   0.00000  Uiso   1.00
N137   N     0.13779   0.84059   0.50898   0.00000  Uiso   1.00
N138   N     0.67335   0.61299   0.13625   0.00000  Uiso   1.00
C139   C     0.51075   0.02813   0.19572   0.00000  Uiso   1.00
C140   C     0.54712   0.05823   0.09214   0.00000  Uiso   1.00
C141   C     0.59764   0.99915   0.03340   0.00000  Uiso   1.00
C142   C     0.62453   0.04031   0.94090   0.00000  Uiso   1.00
C143   C     0.68451   0.07234   0.78503   0.00000  Uiso   1.00
C144   C     0.54166   0.10626   0.27883   0.00000  Uiso   1.00
C145   C     0.58758   0.08755   0.37705   0.00000  Uiso   1.00
C146   C     0.60985   0.16914   0.44171   0.00000  Uiso   1.00
C147   C     0.66130   0.27573   0.57571   0.00000  Uiso   1.00
C148   C     0.41465   0.04202   0.17521   0.00000  Uiso   1.00
C149   C     0.35377   0.96931   0.18633   0.00000  Uiso   1.00
C150   C     0.26912   0.99683   0.16377   0.00000  Uiso   1.00
C151   C     0.12336   0.00367   0.13688   0.00000  Uiso   1.00
C152   C     0.46866   0.20631   0.13590   0.00000  Uiso   1.00
C153   C     0.52425   0.15501   0.05965   0.00000  Uiso   1.00
C154   C     0.55107   0.19627   0.96721   0.00000  Uiso   1.00
C155   C     0.60162   0.13726   0.90834   0.00000  Uiso   1.00
C156   C     0.51879   0.20303   0.24634   0.00000  Uiso   1.00
C157   C     0.54100   0.28467   0.31086   0.00000  Uiso   1.00
C158   C     0.58695   0.26609   0.40916   0.00000  Uiso   1.00
C159   C     0.39178   0.13880   0.14271   0.00000  Uiso   1.00
C160   C     0.30720   0.16643   0.12014   0.00000  Uiso   1.00
C161   C     0.24621   0.09378   0.13122   0.00000  Uiso   1.00
H162   H     0.52855   0.95279   0.22103   0.00000  Uiso   1.00
H163   H     0.61533   0.92426   0.05858   0.00000  Uiso   1.00
H164   H     0.60525   0.01265   0.40218   0.00000  Uiso   1.00
H165   H     0.37149   0.89443   0.21148   0.00000  Uiso   1.00
H166   H     0.70147   0.93532   0.86416   0.00000  Uiso   1.00
H167   H     0.68021   0.12168   0.58869   0.00000  Uiso   1.00
H168   H     0.18727   0.87239   0.18656   0.00000  Uiso   1.00
H169   H     0.45086   0.28165   0.11060   0.00000  Uiso   1.00
H170   H     0.53337   0.27117   0.94208   0.00000  Uiso   1.00
H171   H     0.52330   0.35955   0.28569   0.00000  Uiso   1.00
H172   H     0.28953   0.24133   0.09499   0.00000  Uiso   1.00
H173   H     0.63496   0.21688   0.76962   0.00000  Uiso   1.00
H174   H     0.61369   0.40325   0.49415   0.00000  Uiso   1.00
H175   H     0.12075   0.15395   0.09201   0.00000  Uiso   1.00
O176   O     0.72392   0.06328   0.70805   0.00000  Uiso   1.00
O177   O     0.69600   0.30778   0.65860   0.00000  Uiso   1.00
O178   O     0.04928   0.98071   0.13102   0.00000  Uiso   1.00
N179   N     0.67448   0.00301   0.86503   0.00000  Uiso   1.00
N180   N     0.65461   0.17726   0.54241   0.00000  Uiso   1.00
N181   N     0.19375   0.94419   0.16648   0.00000  Uiso   1.00
N182   N     0.63869   0.15452   0.81415   0.00000  Uiso   1.00
N183   N     0.61882   0.32876   0.49153   0.00000  Uiso   1.00
N184   N     0.15796   0.09570   0.11560   0.00000  Uiso   1.00
