data_job_01115
_audit_creation_date              2018-12-19
_audit_creation_method            'Materials Studio'
_symmetry_space_group_name_H-M    'P1'
_symmetry_Int_Tables_number       1
_symmetry_cell_setting            triclinic
loop_
_symmetry_equiv_pos_as_xyz
  x,y,z
_cell_length_a                    33.9789
_cell_length_b                    40.2314
_cell_length_c                    7.2563
_cell_angle_alpha                 90.0000
_cell_angle_beta                  90.0000
_cell_angle_gamma                 90.0000
loop_
_atom_site_label
_atom_site_type_symbol
_atom_site_fract_x
_atom_site_fract_y
_atom_site_fract_z
_atom_site_U_iso_or_equiv
_atom_site_adp_type
_atom_site_occupancy
C1     C     0.07895   0.91658   0.42755   0.00000  Uiso   1.00
C2     C     0.11476   0.93411   0.34628   0.00000  Uiso   1.00
C3     C     0.14489   0.94885   0.44625   0.00000  Uiso   1.00
C4     C     0.17503   0.96361   0.34627   0.00000  Uiso   1.00
C5     C     0.23063   0.99084   0.24943   0.00000  Uiso   1.00
C6     C     0.04306   0.93402   0.34645   0.00000  Uiso   1.00
C7     C     0.01290   0.94868   0.44657   0.00000  Uiso   1.00
C8     C     0.98268   0.96336   0.34674   0.00000  Uiso   1.00
C9     C     0.92695   0.99042   0.25017   0.00000  Uiso   1.00
C10    C     0.07900   0.88162   0.34643   0.00000  Uiso   1.00
C11    C     0.07905   0.85222   0.44653   0.00000  Uiso   1.00
C12    C     0.07908   0.82278   0.34668   0.00000  Uiso   1.00
C13    C     0.07915   0.76849   0.25008   0.00000  Uiso   1.00
C14    C     0.07891   0.91657   0.07224   0.00000  Uiso   1.00
C15    C     0.11474   0.93410   0.15328   0.00000  Uiso   1.00
C16    C     0.14484   0.94884   0.05313   0.00000  Uiso   1.00
C17    C     0.17501   0.96360   0.15293   0.00000  Uiso   1.00
C18    C     0.04304   0.93401   0.15347   0.00000  Uiso   1.00
C19    C     0.01286   0.94867   0.05346   0.00000  Uiso   1.00
C20    C     0.98266   0.96335   0.15339   0.00000  Uiso   1.00
C21    C     0.07898   0.88161   0.15344   0.00000  Uiso   1.00
C22    C     0.07901   0.85221   0.05341   0.00000  Uiso   1.00
C23    C     0.07906   0.82278   0.15333   0.00000  Uiso   1.00
H24    H     0.07897   0.91659   0.57780   0.00000  Uiso   1.00
H25    H     0.14489   0.94886   0.59560   0.00000  Uiso   1.00
H26    H     0.01293   0.94868   0.59592   0.00000  Uiso   1.00
H27    H     0.07907   0.85224   0.59588   0.00000  Uiso   1.00
H28    H     0.21797   0.98464   0.53022   0.00000  Uiso   1.00
H29    H     0.93970   0.98426   0.53090   0.00000  Uiso   1.00
H30    H     0.07917   0.78089   0.53081   0.00000  Uiso   1.00
H31    H     0.07889   0.91656   0.92198   0.00000  Uiso   1.00
H32    H     0.14482   0.94883   0.90378   0.00000  Uiso   1.00
H33    H     0.01285   0.94865   0.90411   0.00000  Uiso   1.00
H34    H     0.07899   0.85221   0.90406   0.00000  Uiso   1.00
H35    H     0.21790   0.98462   0.96872   0.00000  Uiso   1.00
H36    H     0.93964   0.98423   0.96939   0.00000  Uiso   1.00
H37    H     0.07910   0.78087   0.96930   0.00000  Uiso   1.00
O38    O     0.26129   0.00586   0.24933   0.00000  Uiso   1.00
O39    O     0.89622   0.00536   0.25022   0.00000  Uiso   1.00
O40    O     0.07920   0.73855   0.25011   0.00000  Uiso   1.00
N41    N     0.20891   0.98020   0.40057   0.00000  Uiso   1.00
N42    N     0.94875   0.97985   0.40120   0.00000  Uiso   1.00
N43    N     0.07913   0.78972   0.40112   0.00000  Uiso   1.00
N44    N     0.20887   0.98019   0.09843   0.00000  Uiso   1.00
N45    N     0.94872   0.97983   0.09906   0.00000  Uiso   1.00
N46    N     0.07910   0.78971   0.09898   0.00000  Uiso   1.00
C47    C     0.42105   0.08342   0.92755   0.00000  Uiso   1.00
C48    C     0.38524   0.06589   0.84628   0.00000  Uiso   1.00
C49    C     0.35511   0.05115   0.94625   0.00000  Uiso   1.00
C50    C     0.32497   0.03639   0.84627   0.00000  Uiso   1.00
C51    C     0.26937   0.00916   0.74943   0.00000  Uiso   1.00
C52    C     0.45694   0.06598   0.84645   0.00000  Uiso   1.00
C53    C     0.48710   0.05132   0.94657   0.00000  Uiso   1.00
C54    C     0.51732   0.03664   0.84674   0.00000  Uiso   1.00
C55    C     0.57305   0.00958   0.75017   0.00000  Uiso   1.00
C56    C     0.42100   0.11838   0.84643   0.00000  Uiso   1.00
C57    C     0.42095   0.14778   0.94653   0.00000  Uiso   1.00
C58    C     0.42092   0.17722   0.84668   0.00000  Uiso   1.00
C59    C     0.42085   0.23151   0.75008   0.00000  Uiso   1.00
C60    C     0.42109   0.08343   0.57224   0.00000  Uiso   1.00
C61    C     0.38526   0.06590   0.65328   0.00000  Uiso   1.00
C62    C     0.35516   0.05116   0.55313   0.00000  Uiso   1.00
C63    C     0.32499   0.03640   0.65293   0.00000  Uiso   1.00
C64    C     0.45696   0.06599   0.65347   0.00000  Uiso   1.00
C65    C     0.48714   0.05133   0.55346   0.00000  Uiso   1.00
C66    C     0.51734   0.03665   0.65339   0.00000  Uiso   1.00
C67    C     0.42102   0.11839   0.65344   0.00000  Uiso   1.00
C68    C     0.42099   0.14779   0.55341   0.00000  Uiso   1.00
C69    C     0.42094   0.17722   0.65333   0.00000  Uiso   1.00
H70    H     0.42103   0.08341   0.07780   0.00000  Uiso   1.00
H71    H     0.35511   0.05114   0.09560   0.00000  Uiso   1.00
H72    H     0.48707   0.05132   0.09592   0.00000  Uiso   1.00
H73    H     0.42093   0.14776   0.09588   0.00000  Uiso   1.00
H74    H     0.28203   0.01536   0.03022   0.00000  Uiso   1.00
H75    H     0.56030   0.01574   0.03090   0.00000  Uiso   1.00
H76    H     0.42083   0.21911   0.03081   0.00000  Uiso   1.00
H77    H     0.42111   0.08344   0.42198   0.00000  Uiso   1.00
H78    H     0.35518   0.05117   0.40378   0.00000  Uiso   1.00
H79    H     0.48715   0.05135   0.40411   0.00000  Uiso   1.00
H80    H     0.42101   0.14779   0.40406   0.00000  Uiso   1.00
H81    H     0.28210   0.01538   0.46872   0.00000  Uiso   1.00
H82    H     0.56036   0.01577   0.46939   0.00000  Uiso   1.00
H83    H     0.42090   0.21913   0.46930   0.00000  Uiso   1.00
O84    O     0.23871   0.99414   0.74933   0.00000  Uiso   1.00
O85    O     0.60378   0.99464   0.75022   0.00000  Uiso   1.00
O86    O     0.42080   0.26145   0.75011   0.00000  Uiso   1.00
N87    N     0.29109   0.01980   0.90057   0.00000  Uiso   1.00
N88    N     0.55125   0.02015   0.90120   0.00000  Uiso   1.00
N89    N     0.42087   0.21028   0.90112   0.00000  Uiso   1.00
N90    N     0.29113   0.01981   0.59843   0.00000  Uiso   1.00
N91    N     0.55128   0.02017   0.59906   0.00000  Uiso   1.00
N92    N     0.42090   0.21029   0.59898   0.00000  Uiso   1.00
C93    C     0.92105   0.41658   0.07245   0.00000  Uiso   1.00
C94    C     0.88524   0.43411   0.15372   0.00000  Uiso   1.00
C95    C     0.85511   0.44885   0.05375   0.00000  Uiso   1.00
C96    C     0.82497   0.46361   0.15373   0.00000  Uiso   1.00
C97    C     0.76937   0.49084   0.25057   0.00000  Uiso   1.00
C98    C     0.95694   0.43402   0.15355   0.00000  Uiso   1.00
C99    C     0.98710   0.44868   0.05343   0.00000  Uiso   1.00
C100   C     0.01732   0.46336   0.15326   0.00000  Uiso   1.00
C101   C     0.07305   0.49042   0.24983   0.00000  Uiso   1.00
C102   C     0.92100   0.38162   0.15357   0.00000  Uiso   1.00
C103   C     0.92095   0.35222   0.05347   0.00000  Uiso   1.00
C104   C     0.92092   0.32278   0.15332   0.00000  Uiso   1.00
C105   C     0.92085   0.26849   0.24992   0.00000  Uiso   1.00
C106   C     0.92109   0.41657   0.42776   0.00000  Uiso   1.00
C107   C     0.88526   0.43410   0.34672   0.00000  Uiso   1.00
C108   C     0.85516   0.44884   0.44687   0.00000  Uiso   1.00
C109   C     0.82499   0.46360   0.34707   0.00000  Uiso   1.00
C110   C     0.95696   0.43401   0.34653   0.00000  Uiso   1.00
C111   C     0.98714   0.44867   0.44654   0.00000  Uiso   1.00
C112   C     0.01734   0.46335   0.34661   0.00000  Uiso   1.00
C113   C     0.92102   0.38161   0.34656   0.00000  Uiso   1.00
C114   C     0.92099   0.35221   0.44659   0.00000  Uiso   1.00
C115   C     0.92094   0.32278   0.34667   0.00000  Uiso   1.00
H116   H     0.92103   0.41659   0.92220   0.00000  Uiso   1.00
H117   H     0.85511   0.44886   0.90440   0.00000  Uiso   1.00
H118   H     0.98707   0.44868   0.90408   0.00000  Uiso   1.00
H119   H     0.92093   0.35224   0.90412   0.00000  Uiso   1.00
H120   H     0.78203   0.48464   0.96978   0.00000  Uiso   1.00
H121   H     0.06030   0.48426   0.96910   0.00000  Uiso   1.00
H122   H     0.92083   0.28089   0.96919   0.00000  Uiso   1.00
H123   H     0.92111   0.41656   0.57802   0.00000  Uiso   1.00
H124   H     0.85518   0.44883   0.59622   0.00000  Uiso   1.00
H125   H     0.98715   0.44865   0.59589   0.00000  Uiso   1.00
H126   H     0.92101   0.35221   0.59594   0.00000  Uiso   1.00
H127   H     0.78210   0.48462   0.53128   0.00000  Uiso   1.00
H128   H     0.06036   0.48423   0.53061   0.00000  Uiso   1.00
H129   H     0.92090   0.28087   0.53070   0.00000  Uiso   1.00
O130   O     0.73871   0.50586   0.25067   0.00000  Uiso   1.00
O131   O     0.10378   0.50536   0.24978   0.00000  Uiso   1.00
O132   O     0.92080   0.23855   0.24989   0.00000  Uiso   1.00
N133   N     0.79109   0.48020   0.09943   0.00000  Uiso   1.00
N134   N     0.05125   0.47985   0.09880   0.00000  Uiso   1.00
N135   N     0.92087   0.28972   0.09888   0.00000  Uiso   1.00
N136   N     0.79113   0.48019   0.40157   0.00000  Uiso   1.00
N137   N     0.05128   0.47983   0.40094   0.00000  Uiso   1.00
N138   N     0.92090   0.28971   0.40102   0.00000  Uiso   1.00
C139   C     0.57895   0.58342   0.57245   0.00000  Uiso   1.00
C140   C     0.61476   0.56589   0.65372   0.00000  Uiso   1.00
C141   C     0.64489   0.55115   0.55375   0.00000  Uiso   1.00
C142   C     0.67503   0.53639   0.65373   0.00000  Uiso   1.00
C143   C     0.73063   0.50916   0.75057   0.00000  Uiso   1.00
C144   C     0.54306   0.56598   0.65355   0.00000  Uiso   1.00
C145   C     0.51290   0.55132   0.55343   0.00000  Uiso   1.00
C146   C     0.48268   0.53664   0.65326   0.00000  Uiso   1.00
C147   C     0.42695   0.50958   0.74983   0.00000  Uiso   1.00
C148   C     0.57900   0.61838   0.65357   0.00000  Uiso   1.00
C149   C     0.57905   0.64778   0.55347   0.00000  Uiso   1.00
C150   C     0.57908   0.67722   0.65332   0.00000  Uiso   1.00
C151   C     0.57915   0.73151   0.74992   0.00000  Uiso   1.00
C152   C     0.57891   0.58343   0.92776   0.00000  Uiso   1.00
C153   C     0.61474   0.56590   0.84672   0.00000  Uiso   1.00
C154   C     0.64484   0.55116   0.94687   0.00000  Uiso   1.00
C155   C     0.67501   0.53640   0.84707   0.00000  Uiso   1.00
C156   C     0.54304   0.56599   0.84653   0.00000  Uiso   1.00
C157   C     0.51286   0.55133   0.94654   0.00000  Uiso   1.00
C158   C     0.48266   0.53665   0.84661   0.00000  Uiso   1.00
C159   C     0.57898   0.61839   0.84656   0.00000  Uiso   1.00
C160   C     0.57901   0.64779   0.94659   0.00000  Uiso   1.00
C161   C     0.57906   0.67722   0.84667   0.00000  Uiso   1.00
H162   H     0.57897   0.58341   0.42220   0.00000  Uiso   1.00
H163   H     0.64489   0.55114   0.40440   0.00000  Uiso   1.00
H164   H     0.51293   0.55132   0.40408   0.00000  Uiso   1.00
H165   H     0.57907   0.64776   0.40412   0.00000  Uiso   1.00
H166   H     0.71797   0.51536   0.46978   0.00000  Uiso   1.00
H167   H     0.43970   0.51574   0.46910   0.00000  Uiso   1.00
H168   H     0.57917   0.71911   0.46919   0.00000  Uiso   1.00
H169   H     0.57889   0.58344   0.07802   0.00000  Uiso   1.00
H170   H     0.64482   0.55117   0.09622   0.00000  Uiso   1.00
H171   H     0.51285   0.55135   0.09589   0.00000  Uiso   1.00
H172   H     0.57899   0.64779   0.09594   0.00000  Uiso   1.00
H173   H     0.71790   0.51538   0.03128   0.00000  Uiso   1.00
H174   H     0.43964   0.51577   0.03061   0.00000  Uiso   1.00
H175   H     0.57910   0.71913   0.03070   0.00000  Uiso   1.00
O176   O     0.76129   0.49414   0.75067   0.00000  Uiso   1.00
O177   O     0.39622   0.49464   0.74978   0.00000  Uiso   1.00
O178   O     0.57920   0.76145   0.74989   0.00000  Uiso   1.00
N179   N     0.70891   0.51980   0.59943   0.00000  Uiso   1.00
N180   N     0.44875   0.52015   0.59880   0.00000  Uiso   1.00
N181   N     0.57913   0.71028   0.59888   0.00000  Uiso   1.00
N182   N     0.70887   0.51981   0.90157   0.00000  Uiso   1.00
N183   N     0.44872   0.52017   0.90094   0.00000  Uiso   1.00
N184   N     0.57910   0.71029   0.90102   0.00000  Uiso   1.00
C185   C     0.92105   0.08342   0.57245   0.00000  Uiso   1.00
C186   C     0.88524   0.06589   0.65372   0.00000  Uiso   1.00
C187   C     0.85511   0.05115   0.55375   0.00000  Uiso   1.00
C188   C     0.82497   0.03639   0.65373   0.00000  Uiso   1.00
C189   C     0.76937   0.00916   0.75057   0.00000  Uiso   1.00
C190   C     0.95694   0.06598   0.65355   0.00000  Uiso   1.00
C191   C     0.98710   0.05132   0.55343   0.00000  Uiso   1.00
C192   C     0.01732   0.03664   0.65326   0.00000  Uiso   1.00
C193   C     0.07305   0.00958   0.74983   0.00000  Uiso   1.00
C194   C     0.92100   0.11838   0.65357   0.00000  Uiso   1.00
C195   C     0.92095   0.14778   0.55347   0.00000  Uiso   1.00
C196   C     0.92092   0.17722   0.65332   0.00000  Uiso   1.00
C197   C     0.92085   0.23151   0.74992   0.00000  Uiso   1.00
C198   C     0.92109   0.08343   0.92776   0.00000  Uiso   1.00
C199   C     0.88526   0.06590   0.84672   0.00000  Uiso   1.00
C200   C     0.85516   0.05116   0.94687   0.00000  Uiso   1.00
C201   C     0.82499   0.03640   0.84707   0.00000  Uiso   1.00
C202   C     0.95696   0.06599   0.84653   0.00000  Uiso   1.00
C203   C     0.98714   0.05133   0.94654   0.00000  Uiso   1.00
C204   C     0.01734   0.03665   0.84661   0.00000  Uiso   1.00
C205   C     0.92102   0.11839   0.84656   0.00000  Uiso   1.00
C206   C     0.92099   0.14779   0.94659   0.00000  Uiso   1.00
C207   C     0.92094   0.17722   0.84667   0.00000  Uiso   1.00
H208   H     0.92103   0.08341   0.42220   0.00000  Uiso   1.00
H209   H     0.85511   0.05114   0.40440   0.00000  Uiso   1.00
H210   H     0.98707   0.05132   0.40408   0.00000  Uiso   1.00
H211   H     0.92093   0.14776   0.40412   0.00000  Uiso   1.00
H212   H     0.78203   0.01536   0.46978   0.00000  Uiso   1.00
H213   H     0.06030   0.01574   0.46910   0.00000  Uiso   1.00
H214   H     0.92083   0.21911   0.46919   0.00000  Uiso   1.00
H215   H     0.92111   0.08344   0.07802   0.00000  Uiso   1.00
H216   H     0.85518   0.05117   0.09622   0.00000  Uiso   1.00
H217   H     0.98715   0.05135   0.09589   0.00000  Uiso   1.00
H218   H     0.92101   0.14779   0.09594   0.00000  Uiso   1.00
H219   H     0.78210   0.01538   0.03128   0.00000  Uiso   1.00
H220   H     0.06036   0.01577   0.03061   0.00000  Uiso   1.00
H221   H     0.92090   0.21913   0.03070   0.00000  Uiso   1.00
O222   O     0.73871   0.99414   0.75067   0.00000  Uiso   1.00
O223   O     0.10378   0.99464   0.74978   0.00000  Uiso   1.00
O224   O     0.92080   0.26145   0.74989   0.00000  Uiso   1.00
N225   N     0.79109   0.01980   0.59943   0.00000  Uiso   1.00
N226   N     0.05125   0.02015   0.59880   0.00000  Uiso   1.00
N227   N     0.92087   0.21028   0.59888   0.00000  Uiso   1.00
N228   N     0.79113   0.01981   0.90157   0.00000  Uiso   1.00
N229   N     0.05128   0.02017   0.90094   0.00000  Uiso   1.00
N230   N     0.92090   0.21029   0.90102   0.00000  Uiso   1.00
C231   C     0.57895   0.91658   0.07245   0.00000  Uiso   1.00
C232   C     0.61476   0.93411   0.15372   0.00000  Uiso   1.00
C233   C     0.64489   0.94885   0.05375   0.00000  Uiso   1.00
C234   C     0.67503   0.96361   0.15373   0.00000  Uiso   1.00
C235   C     0.73063   0.99084   0.25057   0.00000  Uiso   1.00
C236   C     0.54306   0.93402   0.15355   0.00000  Uiso   1.00
C237   C     0.51290   0.94868   0.05343   0.00000  Uiso   1.00
C238   C     0.48268   0.96336   0.15326   0.00000  Uiso   1.00
C239   C     0.42695   0.99042   0.24983   0.00000  Uiso   1.00
C240   C     0.57900   0.88162   0.15357   0.00000  Uiso   1.00
C241   C     0.57905   0.85222   0.05347   0.00000  Uiso   1.00
C242   C     0.57908   0.82278   0.15332   0.00000  Uiso   1.00
C243   C     0.57915   0.76849   0.24992   0.00000  Uiso   1.00
C244   C     0.57891   0.91657   0.42776   0.00000  Uiso   1.00
C245   C     0.61474   0.93410   0.34672   0.00000  Uiso   1.00
C246   C     0.64484   0.94884   0.44687   0.00000  Uiso   1.00
C247   C     0.67501   0.96360   0.34707   0.00000  Uiso   1.00
C248   C     0.54304   0.93401   0.34653   0.00000  Uiso   1.00
C249   C     0.51286   0.94867   0.44654   0.00000  Uiso   1.00
C250   C     0.48266   0.96335   0.34661   0.00000  Uiso   1.00
C251   C     0.57898   0.88161   0.34656   0.00000  Uiso   1.00
C252   C     0.57901   0.85221   0.44659   0.00000  Uiso   1.00
C253   C     0.57906   0.82278   0.34667   0.00000  Uiso   1.00
H254   H     0.57897   0.91659   0.92220   0.00000  Uiso   1.00
H255   H     0.64489   0.94886   0.90440   0.00000  Uiso   1.00
H256   H     0.51293   0.94868   0.90408   0.00000  Uiso   1.00
H257   H     0.57907   0.85224   0.90412   0.00000  Uiso   1.00
H258   H     0.71797   0.98464   0.96978   0.00000  Uiso   1.00
H259   H     0.43970   0.98426   0.96910   0.00000  Uiso   1.00
H260   H     0.57917   0.78089   0.96919   0.00000  Uiso   1.00
H261   H     0.57889   0.91656   0.57802   0.00000  Uiso   1.00
H262   H     0.64482   0.94883   0.59622   0.00000  Uiso   1.00
H263   H     0.51285   0.94865   0.59589   0.00000  Uiso   1.00
H264   H     0.57899   0.85221   0.59594   0.00000  Uiso   1.00
H265   H     0.71790   0.98462   0.53128   0.00000  Uiso   1.00
H266   H     0.43964   0.98423   0.53061   0.00000  Uiso   1.00
H267   H     0.57910   0.78087   0.53070   0.00000  Uiso   1.00
O268   O     0.76129   0.00586   0.25067   0.00000  Uiso   1.00
O269   O     0.39622   0.00536   0.24978   0.00000  Uiso   1.00
O270   O     0.57920   0.73855   0.24989   0.00000  Uiso   1.00
N271   N     0.70891   0.98020   0.09943   0.00000  Uiso   1.00
N272   N     0.44875   0.97985   0.09880   0.00000  Uiso   1.00
N273   N     0.57913   0.78972   0.09888   0.00000  Uiso   1.00
N274   N     0.70887   0.98019   0.40157   0.00000  Uiso   1.00
N275   N     0.44872   0.97983   0.40094   0.00000  Uiso   1.00
N276   N     0.57910   0.78971   0.40102   0.00000  Uiso   1.00
C277   C     0.07895   0.58342   0.92755   0.00000  Uiso   1.00
C278   C     0.11476   0.56589   0.84628   0.00000  Uiso   1.00
C279   C     0.14489   0.55115   0.94625   0.00000  Uiso   1.00
C280   C     0.17503   0.53639   0.84627   0.00000  Uiso   1.00
C281   C     0.23063   0.50916   0.74943   0.00000  Uiso   1.00
C282   C     0.04306   0.56598   0.84645   0.00000  Uiso   1.00
C283   C     0.01290   0.55132   0.94657   0.00000  Uiso   1.00
C284   C     0.98268   0.53664   0.84674   0.00000  Uiso   1.00
C285   C     0.92695   0.50958   0.75017   0.00000  Uiso   1.00
C286   C     0.07900   0.61838   0.84643   0.00000  Uiso   1.00
C287   C     0.07905   0.64778   0.94653   0.00000  Uiso   1.00
C288   C     0.07908   0.67722   0.84668   0.00000  Uiso   1.00
C289   C     0.07915   0.73151   0.75008   0.00000  Uiso   1.00
C290   C     0.07891   0.58343   0.57224   0.00000  Uiso   1.00
C291   C     0.11474   0.56590   0.65328   0.00000  Uiso   1.00
C292   C     0.14484   0.55116   0.55313   0.00000  Uiso   1.00
C293   C     0.17501   0.53640   0.65293   0.00000  Uiso   1.00
C294   C     0.04304   0.56599   0.65347   0.00000  Uiso   1.00
C295   C     0.01286   0.55133   0.55346   0.00000  Uiso   1.00
C296   C     0.98266   0.53665   0.65339   0.00000  Uiso   1.00
C297   C     0.07898   0.61839   0.65344   0.00000  Uiso   1.00
C298   C     0.07901   0.64779   0.55341   0.00000  Uiso   1.00
C299   C     0.07906   0.67722   0.65333   0.00000  Uiso   1.00
H300   H     0.07897   0.58341   0.07780   0.00000  Uiso   1.00
H301   H     0.14489   0.55114   0.09560   0.00000  Uiso   1.00
H302   H     0.01293   0.55132   0.09592   0.00000  Uiso   1.00
H303   H     0.07907   0.64776   0.09588   0.00000  Uiso   1.00
H304   H     0.21797   0.51536   0.03022   0.00000  Uiso   1.00
H305   H     0.93970   0.51574   0.03090   0.00000  Uiso   1.00
H306   H     0.07917   0.71911   0.03081   0.00000  Uiso   1.00
H307   H     0.07889   0.58344   0.42198   0.00000  Uiso   1.00
H308   H     0.14482   0.55117   0.40378   0.00000  Uiso   1.00
H309   H     0.01285   0.55135   0.40411   0.00000  Uiso   1.00
H310   H     0.07899   0.64779   0.40406   0.00000  Uiso   1.00
H311   H     0.21790   0.51538   0.46872   0.00000  Uiso   1.00
H312   H     0.93964   0.51577   0.46939   0.00000  Uiso   1.00
H313   H     0.07910   0.71913   0.46930   0.00000  Uiso   1.00
O314   O     0.26129   0.49414   0.74933   0.00000  Uiso   1.00
O315   O     0.89622   0.49464   0.75022   0.00000  Uiso   1.00
O316   O     0.07920   0.76145   0.75011   0.00000  Uiso   1.00
N317   N     0.20891   0.51980   0.90057   0.00000  Uiso   1.00
N318   N     0.94875   0.52015   0.90120   0.00000  Uiso   1.00
N319   N     0.07913   0.71028   0.90112   0.00000  Uiso   1.00
N320   N     0.20887   0.51981   0.59843   0.00000  Uiso   1.00
N321   N     0.94872   0.52017   0.59906   0.00000  Uiso   1.00
N322   N     0.07910   0.71029   0.59898   0.00000  Uiso   1.00
C323   C     0.42105   0.41658   0.42755   0.00000  Uiso   1.00
C324   C     0.38524   0.43411   0.34628   0.00000  Uiso   1.00
C325   C     0.35511   0.44885   0.44625   0.00000  Uiso   1.00
C326   C     0.32497   0.46361   0.34627   0.00000  Uiso   1.00
C327   C     0.26937   0.49084   0.24943   0.00000  Uiso   1.00
C328   C     0.45694   0.43402   0.34645   0.00000  Uiso   1.00
C329   C     0.48710   0.44868   0.44657   0.00000  Uiso   1.00
C330   C     0.51732   0.46336   0.34674   0.00000  Uiso   1.00
C331   C     0.57305   0.49042   0.25017   0.00000  Uiso   1.00
C332   C     0.42100   0.38162   0.34643   0.00000  Uiso   1.00
C333   C     0.42095   0.35222   0.44653   0.00000  Uiso   1.00
C334   C     0.42092   0.32278   0.34668   0.00000  Uiso   1.00
C335   C     0.42085   0.26849   0.25008   0.00000  Uiso   1.00
C336   C     0.42109   0.41657   0.07224   0.00000  Uiso   1.00
C337   C     0.38526   0.43410   0.15328   0.00000  Uiso   1.00
C338   C     0.35516   0.44884   0.05313   0.00000  Uiso   1.00
C339   C     0.32499   0.46360   0.15293   0.00000  Uiso   1.00
C340   C     0.45696   0.43401   0.15347   0.00000  Uiso   1.00
C341   C     0.48714   0.44867   0.05346   0.00000  Uiso   1.00
C342   C     0.51734   0.46335   0.15339   0.00000  Uiso   1.00
C343   C     0.42102   0.38161   0.15344   0.00000  Uiso   1.00
C344   C     0.42099   0.35221   0.05341   0.00000  Uiso   1.00
C345   C     0.42094   0.32278   0.15333   0.00000  Uiso   1.00
H346   H     0.42103   0.41659   0.57780   0.00000  Uiso   1.00
H347   H     0.35511   0.44886   0.59560   0.00000  Uiso   1.00
H348   H     0.48707   0.44868   0.59592   0.00000  Uiso   1.00
H349   H     0.42093   0.35224   0.59588   0.00000  Uiso   1.00
H350   H     0.28203   0.48464   0.53022   0.00000  Uiso   1.00
H351   H     0.56030   0.48426   0.53090   0.00000  Uiso   1.00
H352   H     0.42083   0.28089   0.53081   0.00000  Uiso   1.00
H353   H     0.42111   0.41656   0.92198   0.00000  Uiso   1.00
H354   H     0.35518   0.44883   0.90378   0.00000  Uiso   1.00
H355   H     0.48715   0.44865   0.90411   0.00000  Uiso   1.00
H356   H     0.42101   0.35221   0.90406   0.00000  Uiso   1.00
H357   H     0.28210   0.48462   0.96872   0.00000  Uiso   1.00
H358   H     0.56036   0.48423   0.96939   0.00000  Uiso   1.00
H359   H     0.42090   0.28087   0.96930   0.00000  Uiso   1.00
O360   O     0.23871   0.50586   0.24933   0.00000  Uiso   1.00
O361   O     0.60378   0.50536   0.25022   0.00000  Uiso   1.00
O362   O     0.42080   0.23855   0.25011   0.00000  Uiso   1.00
N363   N     0.29109   0.48020   0.40057   0.00000  Uiso   1.00
N364   N     0.55125   0.47985   0.40120   0.00000  Uiso   1.00
N365   N     0.42087   0.28972   0.40112   0.00000  Uiso   1.00
N366   N     0.29113   0.48019   0.09843   0.00000  Uiso   1.00
N367   N     0.55128   0.47983   0.09906   0.00000  Uiso   1.00
N368   N     0.42090   0.28971   0.09898   0.00000  Uiso   1.00
