data_job_02739
_audit_creation_date              2018-12-19
_audit_creation_method            'Materials Studio'
_symmetry_space_group_name_H-M    'P1'
_symmetry_Int_Tables_number       1
_symmetry_cell_setting            triclinic
loop_
_symmetry_equiv_pos_as_xyz
  x,y,z
_cell_length_a                    45.1601
_cell_length_b                    12.3711
_cell_length_c                    12.5131
_cell_angle_alpha                 90.0000
_cell_angle_beta                  99.5046
_cell_angle_gamma                 90.0000
loop_
_atom_site_label
_atom_site_type_symbol
_atom_site_fract_x
_atom_site_fract_y
_atom_site_fract_z
_atom_site_U_iso_or_equiv
_atom_site_adp_type
_atom_site_occupancy
C1     C     0.64546   0.88679   0.50437   0.00000  Uiso   1.00
C2     C     0.62133   0.86208   0.40708   0.00000  Uiso   1.00
C3     C     0.59057   0.86895   0.40499   0.00000  Uiso   1.00
C4     C     0.57221   0.84294   0.30814   0.00000  Uiso   1.00
C5     C     0.53291   0.80935   0.17098   0.00000  Uiso   1.00
C6     C     0.66469   0.78512   0.52402   0.00000  Uiso   1.00
C7     C     0.67038   0.72730   0.62027   0.00000  Uiso   1.00
C8     C     0.68853   0.63652   0.62187   0.00000  Uiso   1.00
C9     C     0.71656   0.48349   0.66630   0.00000  Uiso   1.00
C10    C     0.66552   0.97314   0.46669   0.00000  Uiso   1.00
C11    C     0.67193   0.07339   0.51475   0.00000  Uiso   1.00
C12    C     0.69079   0.14090   0.46809   0.00000  Uiso   1.00
C13    C     0.72012   0.27980   0.42351   0.00000  Uiso   1.00
C14    C     0.66757   0.82840   0.33607   0.00000  Uiso   1.00
C15    C     0.63334   0.83036   0.31566   0.00000  Uiso   1.00
C16    C     0.61502   0.80435   0.21879   0.00000  Uiso   1.00
C17    C     0.58424   0.81118   0.21656   0.00000  Uiso   1.00
C18    C     0.67669   0.75341   0.43261   0.00000  Uiso   1.00
C19    C     0.69484   0.66270   0.43407   0.00000  Uiso   1.00
C20    C     0.70056   0.60474   0.53029   0.00000  Uiso   1.00
C21    C     0.67753   0.94143   0.37528   0.00000  Uiso   1.00
C22    C     0.69639   0.00879   0.32854   0.00000  Uiso   1.00
C23    C     0.70282   0.10913   0.37652   0.00000  Uiso   1.00
H24    H     0.63612   0.91147   0.57555   0.00000  Uiso   1.00
H25    H     0.58128   0.89348   0.47576   0.00000  Uiso   1.00
H26    H     0.66109   0.75186   0.69100   0.00000  Uiso   1.00
H27    H     0.66264   0.09790   0.58549   0.00000  Uiso   1.00
H28    H     0.52579   0.85952   0.32482   0.00000  Uiso   1.00
H29    H     0.69407   0.56092   0.77869   0.00000  Uiso   1.00
H30    H     0.69733   0.29061   0.55621   0.00000  Uiso   1.00
H31    H     0.67692   0.80371   0.26490   0.00000  Uiso   1.00
H32    H     0.62432   0.77981   0.14806   0.00000  Uiso   1.00
H33    H     0.70413   0.63818   0.36331   0.00000  Uiso   1.00
H34    H     0.70567   0.98422   0.25780   0.00000  Uiso   1.00
H35    H     0.56072   0.76725   0.05885   0.00000  Uiso   1.00
H36    H     0.72900   0.46865   0.51273   0.00000  Uiso   1.00
H37    H     0.73226   0.19834   0.29024   0.00000  Uiso   1.00
O38    O     0.50791   0.79957   0.12059   0.00000  Uiso   1.00
O39    O     0.72870   0.40784   0.71606   0.00000  Uiso   1.00
O40    O     0.73298   0.36517   0.42416   0.00000  Uiso   1.00
N41    N     0.54122   0.84110   0.27825   0.00000  Uiso   1.00
N42    N     0.69855   0.56192   0.70259   0.00000  Uiso   1.00
N43    N     0.70161   0.24411   0.49460   0.00000  Uiso   1.00
N44    N     0.56002   0.79145   0.13513   0.00000  Uiso   1.00
N45    N     0.71735   0.51227   0.55948   0.00000  Uiso   1.00
N46    N     0.72041   0.19446   0.35149   0.00000  Uiso   1.00
C47    C     0.14546   0.38679   0.50437   0.00000  Uiso   1.00
C48    C     0.12133   0.36208   0.40708   0.00000  Uiso   1.00
C49    C     0.09057   0.36895   0.40499   0.00000  Uiso   1.00
C50    C     0.07221   0.34294   0.30814   0.00000  Uiso   1.00
C51    C     0.03291   0.30935   0.17098   0.00000  Uiso   1.00
C52    C     0.16469   0.28512   0.52402   0.00000  Uiso   1.00
C53    C     0.17038   0.22730   0.62027   0.00000  Uiso   1.00
C54    C     0.18853   0.13652   0.62187   0.00000  Uiso   1.00
C55    C     0.21656   0.98349   0.66630   0.00000  Uiso   1.00
C56    C     0.16552   0.47314   0.46669   0.00000  Uiso   1.00
C57    C     0.17193   0.57339   0.51475   0.00000  Uiso   1.00
C58    C     0.19079   0.64090   0.46809   0.00000  Uiso   1.00
C59    C     0.22012   0.77980   0.42351   0.00000  Uiso   1.00
C60    C     0.16757   0.32840   0.33607   0.00000  Uiso   1.00
C61    C     0.13334   0.33036   0.31566   0.00000  Uiso   1.00
C62    C     0.11502   0.30435   0.21879   0.00000  Uiso   1.00
C63    C     0.08424   0.31118   0.21656   0.00000  Uiso   1.00
C64    C     0.17669   0.25341   0.43261   0.00000  Uiso   1.00
C65    C     0.19484   0.16270   0.43407   0.00000  Uiso   1.00
C66    C     0.20056   0.10474   0.53029   0.00000  Uiso   1.00
C67    C     0.17753   0.44143   0.37528   0.00000  Uiso   1.00
C68    C     0.19639   0.50879   0.32854   0.00000  Uiso   1.00
C69    C     0.20282   0.60913   0.37652   0.00000  Uiso   1.00
H70    H     0.13612   0.41147   0.57555   0.00000  Uiso   1.00
H71    H     0.08128   0.39348   0.47576   0.00000  Uiso   1.00
H72    H     0.16109   0.25186   0.69100   0.00000  Uiso   1.00
H73    H     0.16264   0.59790   0.58549   0.00000  Uiso   1.00
H74    H     0.02579   0.35952   0.32482   0.00000  Uiso   1.00
H75    H     0.19407   0.06092   0.77869   0.00000  Uiso   1.00
H76    H     0.19733   0.79061   0.55621   0.00000  Uiso   1.00
H77    H     0.17692   0.30371   0.26490   0.00000  Uiso   1.00
H78    H     0.12432   0.27981   0.14806   0.00000  Uiso   1.00
H79    H     0.20413   0.13818   0.36331   0.00000  Uiso   1.00
H80    H     0.20567   0.48422   0.25780   0.00000  Uiso   1.00
H81    H     0.06072   0.26725   0.05885   0.00000  Uiso   1.00
H82    H     0.22900   0.96865   0.51273   0.00000  Uiso   1.00
H83    H     0.23226   0.69834   0.29024   0.00000  Uiso   1.00
O84    O     0.00791   0.29957   0.12059   0.00000  Uiso   1.00
O85    O     0.22870   0.90784   0.71606   0.00000  Uiso   1.00
O86    O     0.23298   0.86517   0.42416   0.00000  Uiso   1.00
N87    N     0.04122   0.34110   0.27825   0.00000  Uiso   1.00
N88    N     0.19855   0.06192   0.70259   0.00000  Uiso   1.00
N89    N     0.20161   0.74411   0.49460   0.00000  Uiso   1.00
N90    N     0.06002   0.29145   0.13513   0.00000  Uiso   1.00
N91    N     0.21735   0.01227   0.55948   0.00000  Uiso   1.00
N92    N     0.22041   0.69446   0.35149   0.00000  Uiso   1.00
C93    C     0.35454   0.88679   0.99563   0.00000  Uiso   1.00
C94    C     0.37867   0.86208   0.09292   0.00000  Uiso   1.00
C95    C     0.40943   0.86895   0.09501   0.00000  Uiso   1.00
C96    C     0.42779   0.84294   0.19186   0.00000  Uiso   1.00
C97    C     0.46709   0.80935   0.32902   0.00000  Uiso   1.00
C98    C     0.33531   0.78512   0.97598   0.00000  Uiso   1.00
C99    C     0.32962   0.72730   0.87973   0.00000  Uiso   1.00
C100   C     0.31147   0.63652   0.87813   0.00000  Uiso   1.00
C101   C     0.28344   0.48349   0.83370   0.00000  Uiso   1.00
C102   C     0.33448   0.97314   0.03331   0.00000  Uiso   1.00
C103   C     0.32807   0.07339   0.98525   0.00000  Uiso   1.00
C104   C     0.30921   0.14090   0.03191   0.00000  Uiso   1.00
C105   C     0.27988   0.27980   0.07649   0.00000  Uiso   1.00
C106   C     0.33243   0.82840   0.16393   0.00000  Uiso   1.00
C107   C     0.36666   0.83036   0.18434   0.00000  Uiso   1.00
C108   C     0.38498   0.80435   0.28121   0.00000  Uiso   1.00
C109   C     0.41576   0.81118   0.28344   0.00000  Uiso   1.00
C110   C     0.32331   0.75341   0.06739   0.00000  Uiso   1.00
C111   C     0.30516   0.66270   0.06593   0.00000  Uiso   1.00
C112   C     0.29944   0.60474   0.96971   0.00000  Uiso   1.00
C113   C     0.32247   0.94143   0.12472   0.00000  Uiso   1.00
C114   C     0.30361   0.00879   0.17146   0.00000  Uiso   1.00
C115   C     0.29718   0.10913   0.12348   0.00000  Uiso   1.00
H116   H     0.36388   0.91147   0.92445   0.00000  Uiso   1.00
H117   H     0.41872   0.89348   0.02424   0.00000  Uiso   1.00
H118   H     0.33891   0.75186   0.80900   0.00000  Uiso   1.00
H119   H     0.33736   0.09790   0.91451   0.00000  Uiso   1.00
H120   H     0.47421   0.85952   0.17518   0.00000  Uiso   1.00
H121   H     0.30593   0.56092   0.72131   0.00000  Uiso   1.00
H122   H     0.30267   0.29061   0.94379   0.00000  Uiso   1.00
H123   H     0.32308   0.80371   0.23510   0.00000  Uiso   1.00
H124   H     0.37568   0.77981   0.35194   0.00000  Uiso   1.00
H125   H     0.29587   0.63818   0.13669   0.00000  Uiso   1.00
H126   H     0.29433   0.98422   0.24220   0.00000  Uiso   1.00
H127   H     0.43928   0.76725   0.44115   0.00000  Uiso   1.00
H128   H     0.27100   0.46865   0.98727   0.00000  Uiso   1.00
H129   H     0.26774   0.19834   0.20976   0.00000  Uiso   1.00
O130   O     0.49209   0.79957   0.37941   0.00000  Uiso   1.00
O131   O     0.27130   0.40784   0.78394   0.00000  Uiso   1.00
O132   O     0.26702   0.36517   0.07584   0.00000  Uiso   1.00
N133   N     0.45878   0.84110   0.22175   0.00000  Uiso   1.00
N134   N     0.30145   0.56192   0.79741   0.00000  Uiso   1.00
N135   N     0.29839   0.24411   0.00540   0.00000  Uiso   1.00
N136   N     0.43998   0.79145   0.36487   0.00000  Uiso   1.00
N137   N     0.28265   0.51227   0.94052   0.00000  Uiso   1.00
N138   N     0.27959   0.19446   0.14851   0.00000  Uiso   1.00
C139   C     0.85454   0.38679   0.99563   0.00000  Uiso   1.00
C140   C     0.87867   0.36208   0.09292   0.00000  Uiso   1.00
C141   C     0.90943   0.36895   0.09501   0.00000  Uiso   1.00
C142   C     0.92779   0.34294   0.19186   0.00000  Uiso   1.00
C143   C     0.96709   0.30935   0.32902   0.00000  Uiso   1.00
C144   C     0.83531   0.28512   0.97598   0.00000  Uiso   1.00
C145   C     0.82962   0.22730   0.87973   0.00000  Uiso   1.00
C146   C     0.81147   0.13652   0.87813   0.00000  Uiso   1.00
C147   C     0.78344   0.98349   0.83370   0.00000  Uiso   1.00
C148   C     0.83448   0.47314   0.03331   0.00000  Uiso   1.00
C149   C     0.82807   0.57339   0.98525   0.00000  Uiso   1.00
C150   C     0.80921   0.64090   0.03191   0.00000  Uiso   1.00
C151   C     0.77988   0.77980   0.07649   0.00000  Uiso   1.00
C152   C     0.83243   0.32840   0.16393   0.00000  Uiso   1.00
C153   C     0.86666   0.33036   0.18434   0.00000  Uiso   1.00
C154   C     0.88498   0.30435   0.28121   0.00000  Uiso   1.00
C155   C     0.91576   0.31118   0.28344   0.00000  Uiso   1.00
C156   C     0.82331   0.25341   0.06739   0.00000  Uiso   1.00
C157   C     0.80516   0.16270   0.06593   0.00000  Uiso   1.00
C158   C     0.79944   0.10474   0.96971   0.00000  Uiso   1.00
C159   C     0.82247   0.44143   0.12472   0.00000  Uiso   1.00
C160   C     0.80361   0.50879   0.17146   0.00000  Uiso   1.00
C161   C     0.79718   0.60913   0.12348   0.00000  Uiso   1.00
H162   H     0.86388   0.41147   0.92445   0.00000  Uiso   1.00
H163   H     0.91872   0.39348   0.02424   0.00000  Uiso   1.00
H164   H     0.83891   0.25186   0.80900   0.00000  Uiso   1.00
H165   H     0.83736   0.59790   0.91451   0.00000  Uiso   1.00
H166   H     0.97421   0.35952   0.17518   0.00000  Uiso   1.00
H167   H     0.80593   0.06092   0.72131   0.00000  Uiso   1.00
H168   H     0.80267   0.79061   0.94379   0.00000  Uiso   1.00
H169   H     0.82308   0.30371   0.23510   0.00000  Uiso   1.00
H170   H     0.87568   0.27981   0.35194   0.00000  Uiso   1.00
H171   H     0.79587   0.13818   0.13669   0.00000  Uiso   1.00
H172   H     0.79433   0.48422   0.24220   0.00000  Uiso   1.00
H173   H     0.93928   0.26725   0.44115   0.00000  Uiso   1.00
H174   H     0.77100   0.96865   0.98727   0.00000  Uiso   1.00
H175   H     0.76774   0.69834   0.20976   0.00000  Uiso   1.00
O176   O     0.99209   0.29957   0.37941   0.00000  Uiso   1.00
O177   O     0.77130   0.90784   0.78394   0.00000  Uiso   1.00
O178   O     0.76702   0.86517   0.07584   0.00000  Uiso   1.00
N179   N     0.95878   0.34110   0.22175   0.00000  Uiso   1.00
N180   N     0.80145   0.06192   0.79741   0.00000  Uiso   1.00
N181   N     0.79839   0.74411   0.00540   0.00000  Uiso   1.00
N182   N     0.93998   0.29145   0.36487   0.00000  Uiso   1.00
N183   N     0.78265   0.01227   0.94052   0.00000  Uiso   1.00
N184   N     0.77959   0.69446   0.14851   0.00000  Uiso   1.00
C185   C     0.35454   0.11321   0.49563   0.00000  Uiso   1.00
C186   C     0.37867   0.13792   0.59292   0.00000  Uiso   1.00
C187   C     0.40943   0.13105   0.59501   0.00000  Uiso   1.00
C188   C     0.42779   0.15706   0.69186   0.00000  Uiso   1.00
C189   C     0.46709   0.19065   0.82902   0.00000  Uiso   1.00
C190   C     0.33531   0.21488   0.47598   0.00000  Uiso   1.00
C191   C     0.32962   0.27270   0.37973   0.00000  Uiso   1.00
C192   C     0.31147   0.36348   0.37813   0.00000  Uiso   1.00
C193   C     0.28344   0.51651   0.33370   0.00000  Uiso   1.00
C194   C     0.33448   0.02686   0.53331   0.00000  Uiso   1.00
C195   C     0.32807   0.92661   0.48525   0.00000  Uiso   1.00
C196   C     0.30921   0.85910   0.53191   0.00000  Uiso   1.00
C197   C     0.27988   0.72020   0.57649   0.00000  Uiso   1.00
C198   C     0.33243   0.17160   0.66393   0.00000  Uiso   1.00
C199   C     0.36666   0.16964   0.68434   0.00000  Uiso   1.00
C200   C     0.38498   0.19565   0.78121   0.00000  Uiso   1.00
C201   C     0.41576   0.18882   0.78344   0.00000  Uiso   1.00
C202   C     0.32331   0.24659   0.56739   0.00000  Uiso   1.00
C203   C     0.30516   0.33730   0.56593   0.00000  Uiso   1.00
C204   C     0.29944   0.39526   0.46971   0.00000  Uiso   1.00
C205   C     0.32247   0.05857   0.62472   0.00000  Uiso   1.00
C206   C     0.30361   0.99121   0.67146   0.00000  Uiso   1.00
C207   C     0.29718   0.89087   0.62348   0.00000  Uiso   1.00
H208   H     0.36388   0.08853   0.42445   0.00000  Uiso   1.00
H209   H     0.41872   0.10652   0.52424   0.00000  Uiso   1.00
H210   H     0.33891   0.24814   0.30900   0.00000  Uiso   1.00
H211   H     0.33736   0.90210   0.41451   0.00000  Uiso   1.00
H212   H     0.47421   0.14048   0.67518   0.00000  Uiso   1.00
H213   H     0.30593   0.43908   0.22131   0.00000  Uiso   1.00
H214   H     0.30267   0.70939   0.44379   0.00000  Uiso   1.00
H215   H     0.32308   0.19629   0.73510   0.00000  Uiso   1.00
H216   H     0.37568   0.22019   0.85194   0.00000  Uiso   1.00
H217   H     0.29587   0.36182   0.63669   0.00000  Uiso   1.00
H218   H     0.29433   0.01578   0.74220   0.00000  Uiso   1.00
H219   H     0.43928   0.23275   0.94115   0.00000  Uiso   1.00
H220   H     0.27100   0.53135   0.48727   0.00000  Uiso   1.00
H221   H     0.26774   0.80166   0.70976   0.00000  Uiso   1.00
O222   O     0.49209   0.20043   0.87941   0.00000  Uiso   1.00
O223   O     0.27130   0.59216   0.28394   0.00000  Uiso   1.00
O224   O     0.26702   0.63483   0.57584   0.00000  Uiso   1.00
N225   N     0.45878   0.15890   0.72175   0.00000  Uiso   1.00
N226   N     0.30145   0.43808   0.29741   0.00000  Uiso   1.00
N227   N     0.29839   0.75589   0.50540   0.00000  Uiso   1.00
N228   N     0.43998   0.20855   0.86487   0.00000  Uiso   1.00
N229   N     0.28265   0.48773   0.44052   0.00000  Uiso   1.00
N230   N     0.27959   0.80554   0.64851   0.00000  Uiso   1.00
C231   C     0.85454   0.61321   0.49563   0.00000  Uiso   1.00
C232   C     0.87867   0.63792   0.59292   0.00000  Uiso   1.00
C233   C     0.90943   0.63105   0.59501   0.00000  Uiso   1.00
C234   C     0.92779   0.65706   0.69186   0.00000  Uiso   1.00
C235   C     0.96709   0.69065   0.82902   0.00000  Uiso   1.00
C236   C     0.83531   0.71488   0.47598   0.00000  Uiso   1.00
C237   C     0.82962   0.77270   0.37973   0.00000  Uiso   1.00
C238   C     0.81147   0.86348   0.37813   0.00000  Uiso   1.00
C239   C     0.78344   0.01651   0.33370   0.00000  Uiso   1.00
C240   C     0.83448   0.52686   0.53331   0.00000  Uiso   1.00
C241   C     0.82807   0.42661   0.48525   0.00000  Uiso   1.00
C242   C     0.80921   0.35910   0.53191   0.00000  Uiso   1.00
C243   C     0.77988   0.22020   0.57649   0.00000  Uiso   1.00
C244   C     0.83243   0.67160   0.66393   0.00000  Uiso   1.00
C245   C     0.86666   0.66964   0.68434   0.00000  Uiso   1.00
C246   C     0.88498   0.69565   0.78121   0.00000  Uiso   1.00
C247   C     0.91576   0.68882   0.78344   0.00000  Uiso   1.00
C248   C     0.82331   0.74659   0.56739   0.00000  Uiso   1.00
C249   C     0.80516   0.83730   0.56593   0.00000  Uiso   1.00
C250   C     0.79944   0.89526   0.46971   0.00000  Uiso   1.00
C251   C     0.82247   0.55857   0.62472   0.00000  Uiso   1.00
C252   C     0.80361   0.49121   0.67146   0.00000  Uiso   1.00
C253   C     0.79718   0.39087   0.62348   0.00000  Uiso   1.00
H254   H     0.86388   0.58853   0.42445   0.00000  Uiso   1.00
H255   H     0.91872   0.60652   0.52424   0.00000  Uiso   1.00
H256   H     0.83891   0.74814   0.30900   0.00000  Uiso   1.00
H257   H     0.83736   0.40210   0.41451   0.00000  Uiso   1.00
H258   H     0.97421   0.64048   0.67518   0.00000  Uiso   1.00
H259   H     0.80593   0.93908   0.22131   0.00000  Uiso   1.00
H260   H     0.80267   0.20939   0.44379   0.00000  Uiso   1.00
H261   H     0.82308   0.69629   0.73510   0.00000  Uiso   1.00
H262   H     0.87568   0.72019   0.85194   0.00000  Uiso   1.00
H263   H     0.79587   0.86182   0.63669   0.00000  Uiso   1.00
H264   H     0.79433   0.51578   0.74220   0.00000  Uiso   1.00
H265   H     0.93928   0.73275   0.94115   0.00000  Uiso   1.00
H266   H     0.77100   0.03135   0.48727   0.00000  Uiso   1.00
H267   H     0.76774   0.30166   0.70976   0.00000  Uiso   1.00
O268   O     0.99209   0.70043   0.87941   0.00000  Uiso   1.00
O269   O     0.77130   0.09216   0.28394   0.00000  Uiso   1.00
O270   O     0.76702   0.13483   0.57584   0.00000  Uiso   1.00
N271   N     0.95878   0.65890   0.72175   0.00000  Uiso   1.00
N272   N     0.80145   0.93808   0.29741   0.00000  Uiso   1.00
N273   N     0.79839   0.25589   0.50540   0.00000  Uiso   1.00
N274   N     0.93998   0.70855   0.86487   0.00000  Uiso   1.00
N275   N     0.78265   0.98773   0.44052   0.00000  Uiso   1.00
N276   N     0.77959   0.30554   0.64851   0.00000  Uiso   1.00
C277   C     0.64546   0.11321   0.00437   0.00000  Uiso   1.00
C278   C     0.62133   0.13792   0.90708   0.00000  Uiso   1.00
C279   C     0.59057   0.13105   0.90499   0.00000  Uiso   1.00
C280   C     0.57221   0.15706   0.80814   0.00000  Uiso   1.00
C281   C     0.53291   0.19065   0.67098   0.00000  Uiso   1.00
C282   C     0.66469   0.21488   0.02402   0.00000  Uiso   1.00
C283   C     0.67038   0.27270   0.12027   0.00000  Uiso   1.00
C284   C     0.68853   0.36348   0.12187   0.00000  Uiso   1.00
C285   C     0.71656   0.51651   0.16630   0.00000  Uiso   1.00
C286   C     0.66552   0.02686   0.96669   0.00000  Uiso   1.00
C287   C     0.67193   0.92661   0.01475   0.00000  Uiso   1.00
C288   C     0.69079   0.85910   0.96809   0.00000  Uiso   1.00
C289   C     0.72012   0.72020   0.92351   0.00000  Uiso   1.00
C290   C     0.66757   0.17160   0.83607   0.00000  Uiso   1.00
C291   C     0.63334   0.16964   0.81566   0.00000  Uiso   1.00
C292   C     0.61502   0.19565   0.71879   0.00000  Uiso   1.00
C293   C     0.58424   0.18882   0.71656   0.00000  Uiso   1.00
C294   C     0.67669   0.24659   0.93261   0.00000  Uiso   1.00
C295   C     0.69484   0.33730   0.93407   0.00000  Uiso   1.00
C296   C     0.70056   0.39526   0.03029   0.00000  Uiso   1.00
C297   C     0.67753   0.05857   0.87528   0.00000  Uiso   1.00
C298   C     0.69639   0.99121   0.82854   0.00000  Uiso   1.00
C299   C     0.70282   0.89087   0.87652   0.00000  Uiso   1.00
H300   H     0.63612   0.08853   0.07555   0.00000  Uiso   1.00
H301   H     0.58128   0.10652   0.97576   0.00000  Uiso   1.00
H302   H     0.66109   0.24814   0.19100   0.00000  Uiso   1.00
H303   H     0.66264   0.90210   0.08549   0.00000  Uiso   1.00
H304   H     0.52579   0.14048   0.82482   0.00000  Uiso   1.00
H305   H     0.69407   0.43908   0.27869   0.00000  Uiso   1.00
H306   H     0.69733   0.70939   0.05621   0.00000  Uiso   1.00
H307   H     0.67692   0.19629   0.76490   0.00000  Uiso   1.00
H308   H     0.62432   0.22019   0.64806   0.00000  Uiso   1.00
H309   H     0.70413   0.36182   0.86331   0.00000  Uiso   1.00
H310   H     0.70567   0.01578   0.75780   0.00000  Uiso   1.00
H311   H     0.56072   0.23275   0.55885   0.00000  Uiso   1.00
H312   H     0.72900   0.53135   0.01273   0.00000  Uiso   1.00
H313   H     0.73226   0.80166   0.79024   0.00000  Uiso   1.00
O314   O     0.50791   0.20043   0.62059   0.00000  Uiso   1.00
O315   O     0.72870   0.59216   0.21606   0.00000  Uiso   1.00
O316   O     0.73298   0.63483   0.92416   0.00000  Uiso   1.00
N317   N     0.54122   0.15890   0.77825   0.00000  Uiso   1.00
N318   N     0.69855   0.43808   0.20259   0.00000  Uiso   1.00
N319   N     0.70161   0.75589   0.99460   0.00000  Uiso   1.00
N320   N     0.56002   0.20855   0.63513   0.00000  Uiso   1.00
N321   N     0.71735   0.48773   0.05948   0.00000  Uiso   1.00
N322   N     0.72041   0.80554   0.85149   0.00000  Uiso   1.00
C323   C     0.14546   0.61321   0.00437   0.00000  Uiso   1.00
C324   C     0.12133   0.63792   0.90708   0.00000  Uiso   1.00
C325   C     0.09057   0.63105   0.90499   0.00000  Uiso   1.00
C326   C     0.07221   0.65706   0.80814   0.00000  Uiso   1.00
C327   C     0.03291   0.69065   0.67098   0.00000  Uiso   1.00
C328   C     0.16469   0.71488   0.02402   0.00000  Uiso   1.00
C329   C     0.17038   0.77270   0.12027   0.00000  Uiso   1.00
C330   C     0.18853   0.86348   0.12187   0.00000  Uiso   1.00
C331   C     0.21656   0.01651   0.16630   0.00000  Uiso   1.00
C332   C     0.16552   0.52686   0.96669   0.00000  Uiso   1.00
C333   C     0.17193   0.42661   0.01475   0.00000  Uiso   1.00
C334   C     0.19079   0.35910   0.96809   0.00000  Uiso   1.00
C335   C     0.22012   0.22020   0.92351   0.00000  Uiso   1.00
C336   C     0.16757   0.67160   0.83607   0.00000  Uiso   1.00
C337   C     0.13334   0.66964   0.81566   0.00000  Uiso   1.00
C338   C     0.11502   0.69565   0.71879   0.00000  Uiso   1.00
C339   C     0.08424   0.68882   0.71656   0.00000  Uiso   1.00
C340   C     0.17669   0.74659   0.93261   0.00000  Uiso   1.00
C341   C     0.19484   0.83730   0.93407   0.00000  Uiso   1.00
C342   C     0.20056   0.89526   0.03029   0.00000  Uiso   1.00
C343   C     0.17753   0.55857   0.87528   0.00000  Uiso   1.00
C344   C     0.19639   0.49121   0.82854   0.00000  Uiso   1.00
C345   C     0.20282   0.39087   0.87652   0.00000  Uiso   1.00
H346   H     0.13612   0.58853   0.07555   0.00000  Uiso   1.00
H347   H     0.08128   0.60652   0.97576   0.00000  Uiso   1.00
H348   H     0.16109   0.74814   0.19100   0.00000  Uiso   1.00
H349   H     0.16264   0.40210   0.08549   0.00000  Uiso   1.00
H350   H     0.02579   0.64048   0.82482   0.00000  Uiso   1.00
H351   H     0.19407   0.93908   0.27869   0.00000  Uiso   1.00
H352   H     0.19733   0.20939   0.05621   0.00000  Uiso   1.00
H353   H     0.17692   0.69629   0.76490   0.00000  Uiso   1.00
H354   H     0.12432   0.72019   0.64806   0.00000  Uiso   1.00
H355   H     0.20413   0.86182   0.86331   0.00000  Uiso   1.00
H356   H     0.20567   0.51578   0.75780   0.00000  Uiso   1.00
H357   H     0.06072   0.73275   0.55885   0.00000  Uiso   1.00
H358   H     0.22900   0.03135   0.01273   0.00000  Uiso   1.00
H359   H     0.23226   0.30166   0.79024   0.00000  Uiso   1.00
O360   O     0.00791   0.70043   0.62059   0.00000  Uiso   1.00
O361   O     0.22870   0.09216   0.21606   0.00000  Uiso   1.00
O362   O     0.23298   0.13483   0.92416   0.00000  Uiso   1.00
N363   N     0.04122   0.65890   0.77825   0.00000  Uiso   1.00
N364   N     0.19855   0.93808   0.20259   0.00000  Uiso   1.00
N365   N     0.20161   0.25589   0.99460   0.00000  Uiso   1.00
N366   N     0.06002   0.70855   0.63513   0.00000  Uiso   1.00
N367   N     0.21735   0.98773   0.05948   0.00000  Uiso   1.00
N368   N     0.22041   0.30554   0.85149   0.00000  Uiso   1.00
