data_job_05504
_audit_creation_date              2018-12-19
_audit_creation_method            'Materials Studio'
_symmetry_space_group_name_H-M    'P1'
_symmetry_Int_Tables_number       1
_symmetry_cell_setting            triclinic
loop_
_symmetry_equiv_pos_as_xyz
  x,y,z
_cell_length_a                    10.6621
_cell_length_b                    16.1374
_cell_length_c                    28.1559
_cell_angle_alpha                 90.0000
_cell_angle_beta                  90.9309
_cell_angle_gamma                 90.0000
loop_
_atom_site_label
_atom_site_type_symbol
_atom_site_fract_x
_atom_site_fract_y
_atom_site_fract_z
_atom_site_U_iso_or_equiv
_atom_site_adp_type
_atom_site_occupancy
C1     C     0.09392   0.08747   0.57884   0.00000  Uiso   1.00
C2     C     0.02757   0.00377   0.57746   0.00000  Uiso   1.00
C3     C     0.97132   0.96792   0.53770   0.00000  Uiso   1.00
C4     C     0.91552   0.89100   0.54378   0.00000  Uiso   1.00
C5     C     0.81236   0.76708   0.53490   0.00000  Uiso   1.00
C6     C     0.02875   0.13812   0.61694   0.00000  Uiso   1.00
C7     C     0.97352   0.21523   0.61037   0.00000  Uiso   1.00
C8     C     0.91874   0.25140   0.64968   0.00000  Uiso   1.00
C9     C     0.81751   0.33609   0.70210   0.00000  Uiso   1.00
C10    C     0.22607   0.07058   0.59798   0.00000  Uiso   1.00
C11    C     0.33674   0.09093   0.57548   0.00000  Uiso   1.00
C12    C     0.44809   0.07025   0.59883   0.00000  Uiso   1.00
C13    C     0.65321   0.05007   0.62182   0.00000  Uiso   1.00
C14    C     0.09486   0.01459   0.66034   0.00000  Uiso   1.00
C15    C     0.02808   0.96419   0.62173   0.00000  Uiso   1.00
C16    C     0.97236   0.88729   0.62787   0.00000  Uiso   1.00
C17    C     0.91604   0.85134   0.58812   0.00000  Uiso   1.00
C18    C     0.02926   0.09854   0.66120   0.00000  Uiso   1.00
C19    C     0.97456   0.13460   0.70053   0.00000  Uiso   1.00
C20    C     0.91925   0.21175   0.69402   0.00000  Uiso   1.00
C21    C     0.22658   0.03099   0.64225   0.00000  Uiso   1.00
C22    C     0.33778   0.01029   0.66564   0.00000  Uiso   1.00
C23    C     0.44860   0.03060   0.64318   0.00000  Uiso   1.00
H24    H     0.09352   0.11829   0.54438   0.00000  Uiso   1.00
H25    H     0.97093   0.99858   0.50345   0.00000  Uiso   1.00
H26    H     0.97315   0.24585   0.57611   0.00000  Uiso   1.00
H27    H     0.33631   0.12156   0.54123   0.00000  Uiso   1.00
H28    H     0.83520   0.84842   0.47759   0.00000  Uiso   1.00
H29    H     0.83992   0.36982   0.63080   0.00000  Uiso   1.00
H30    H     0.60572   0.10772   0.55724   0.00000  Uiso   1.00
H31    H     0.09526   0.98378   0.69481   0.00000  Uiso   1.00
H32    H     0.97277   0.85668   0.66213   0.00000  Uiso   1.00
H33    H     0.97498   0.10395   0.73478   0.00000  Uiso   1.00
H34    H     0.33814   0.97966   0.69990   0.00000  Uiso   1.00
H35    H     0.83669   0.73325   0.60638   0.00000  Uiso   1.00
H36    H     0.84141   0.25465   0.75959   0.00000  Uiso   1.00
H37    H     0.60720   0.99255   0.68603   0.00000  Uiso   1.00
O38    O     0.75530   0.70966   0.51778   0.00000  Uiso   1.00
O39    O     0.76152   0.39373   0.71878   0.00000  Uiso   1.00
O40    O     0.76621   0.04986   0.62227   0.00000  Uiso   1.00
N41    N     0.85239   0.83875   0.51239   0.00000  Uiso   1.00
N42    N     0.85678   0.32622   0.65562   0.00000  Uiso   1.00
N43    N     0.57274   0.08120   0.58686   0.00000  Uiso   1.00
N44    N     0.85319   0.77677   0.58169   0.00000  Uiso   1.00
N45    N     0.85758   0.26425   0.72492   0.00000  Uiso   1.00
N46    N     0.57354   0.01923   0.65616   0.00000  Uiso   1.00
C47    C     0.41956   0.80389   0.07957   0.00000  Uiso   1.00
C48    C     0.48521   0.88780   0.07840   0.00000  Uiso   1.00
C49    C     0.53917   0.92365   0.03886   0.00000  Uiso   1.00
C50    C     0.59469   0.00079   0.04510   0.00000  Uiso   1.00
C51    C     0.69646   0.12502   0.03656   0.00000  Uiso   1.00
C52    C     0.48705   0.75363   0.11808   0.00000  Uiso   1.00
C53    C     0.54255   0.67667   0.11190   0.00000  Uiso   1.00
C54    C     0.59961   0.64087   0.15154   0.00000  Uiso   1.00
C55    C     0.70416   0.55677   0.20461   0.00000  Uiso   1.00
C56    C     0.28824   0.82042   0.09802   0.00000  Uiso   1.00
C57    C     0.17656   0.79960   0.07499   0.00000  Uiso   1.00
C58    C     0.06623   0.82001   0.09776   0.00000  Uiso   1.00
C59    C     0.86209   0.83961   0.11968   0.00000  Uiso   1.00
C60    C     0.42218   0.87714   0.16097   0.00000  Uiso   1.00
C61    C     0.48663   0.92758   0.12261   0.00000  Uiso   1.00
C62    C     0.54208   0.00469   0.12891   0.00000  Uiso   1.00
C63    C     0.59611   0.04065   0.08939   0.00000  Uiso   1.00
C64    C     0.48848   0.79342   0.16228   0.00000  Uiso   1.00
C65    C     0.54546   0.75772   0.20195   0.00000  Uiso   1.00
C66    C     0.60104   0.68073   0.19583   0.00000  Uiso   1.00
C67    C     0.28966   0.86021   0.14223   0.00000  Uiso   1.00
C68    C     0.17947   0.88065   0.16504   0.00000  Uiso   1.00
C69    C     0.06766   0.85987   0.14204   0.00000  Uiso   1.00
H70    H     0.41845   0.77291   0.04516   0.00000  Uiso   1.00
H71    H     0.53806   0.89284   0.00466   0.00000  Uiso   1.00
H72    H     0.54142   0.64590   0.07768   0.00000  Uiso   1.00
H73    H     0.17550   0.76881   0.04078   0.00000  Uiso   1.00
H74    H     0.67133   0.04334   0.97925   0.00000  Uiso   1.00
H75    H     0.67839   0.52264   0.13324   0.00000  Uiso   1.00
H76    H     0.90676   0.78181   0.05542   0.00000  Uiso   1.00
H77    H     0.42330   0.90811   0.19539   0.00000  Uiso   1.00
H78    H     0.54317   0.03547   0.16313   0.00000  Uiso   1.00
H79    H     0.54653   0.78852   0.23615   0.00000  Uiso   1.00
H80    H     0.18061   0.91143   0.19925   0.00000  Uiso   1.00
H81    H     0.67549   0.15910   0.10787   0.00000  Uiso   1.00
H82    H     0.68254   0.63839   0.26186   0.00000  Uiso   1.00
H83    H     0.91091   0.89758   0.18404   0.00000  Uiso   1.00
O84    O     0.75221   0.18254   0.01964   0.00000  Uiso   1.00
O85    O     0.76145   0.49940   0.22166   0.00000  Uiso   1.00
O86    O     0.74910   0.83944   0.11956   0.00000  Uiso   1.00
N87    N     0.65584   0.05311   0.01395   0.00000  Uiso   1.00
N88    N     0.66245   0.56629   0.15792   0.00000  Uiso   1.00
N89    N     0.94105   0.80858   0.08517   0.00000  Uiso   1.00
N90    N     0.65807   0.11540   0.08316   0.00000  Uiso   1.00
N91    N     0.66469   0.62858   0.22713   0.00000  Uiso   1.00
N92    N     0.94328   0.87087   0.15438   0.00000  Uiso   1.00
C93    C     0.75814   0.80360   0.92074   0.00000  Uiso   1.00
C94    C     0.82402   0.88745   0.92228   0.00000  Uiso   1.00
C95    C     0.88052   0.92305   0.96207   0.00000  Uiso   1.00
C96    C     0.93580   0.00018   0.95615   0.00000  Uiso   1.00
C97    C     0.03835   0.12427   0.96526   0.00000  Uiso   1.00
C98    C     0.82315   0.75350   0.88237   0.00000  Uiso   1.00
C99    C     0.87890   0.67646   0.88861   0.00000  Uiso   1.00
C100   C     0.93342   0.64082   0.84909   0.00000  Uiso   1.00
C101   C     0.03453   0.55692   0.79623   0.00000  Uiso   1.00
C102   C     0.62569   0.82034   0.90187   0.00000  Uiso   1.00
C103   C     0.51540   0.79948   0.92449   0.00000  Uiso   1.00
C104   C     0.40367   0.82010   0.90139   0.00000  Uiso   1.00
C105   C     0.19818   0.83998   0.87880   0.00000  Uiso   1.00
C106   C     0.75584   0.87728   0.83948   0.00000  Uiso   1.00
C107   C     0.82278   0.92747   0.87814   0.00000  Uiso   1.00
C108   C     0.87798   0.00457   0.87216   0.00000  Uiso   1.00
C109   C     0.93455   0.04027   0.91194   0.00000  Uiso   1.00
C110   C     0.82190   0.79351   0.83824   0.00000  Uiso   1.00
C111   C     0.87635   0.75798   0.79870   0.00000  Uiso   1.00
C112   C     0.93217   0.68091   0.80487   0.00000  Uiso   1.00
C113   C     0.62444   0.86036   0.85774   0.00000  Uiso   1.00
C114   C     0.51286   0.88101   0.83459   0.00000  Uiso   1.00
C115   C     0.40242   0.86019   0.85717   0.00000  Uiso   1.00
H116   H     0.75912   0.77244   0.95510   0.00000  Uiso   1.00
H117   H     0.88148   0.89205   0.99622   0.00000  Uiso   1.00
H118   H     0.87984   0.64550   0.92277   0.00000  Uiso   1.00
H119   H     0.51640   0.76851   0.95865   0.00000  Uiso   1.00
H120   H     0.01663   0.04231   0.02234   0.00000  Uiso   1.00
H121   H     0.01313   0.52242   0.86745   0.00000  Uiso   1.00
H122   H     0.24675   0.78181   0.94312   0.00000  Uiso   1.00
H123   H     0.75487   0.90844   0.80511   0.00000  Uiso   1.00
H124   H     0.87700   0.03552   0.83800   0.00000  Uiso   1.00
H125   H     0.87536   0.78896   0.76455   0.00000  Uiso   1.00
H126   H     0.51193   0.91198   0.80043   0.00000  Uiso   1.00
H127   H     0.01300   0.15875   0.89392   0.00000  Uiso   1.00
H128   H     0.00950   0.63886   0.73904   0.00000  Uiso   1.00
H129   H     0.24312   0.89825   0.81470   0.00000  Uiso   1.00
O130   O     0.09527   0.18166   0.98247   0.00000  Uiso   1.00
O131   O     0.09066   0.49959   0.77926   0.00000  Uiso   1.00
O132   O     0.08519   0.83990   0.87854   0.00000  Uiso   1.00
N133   N     0.99899   0.05228   0.98761   0.00000  Uiso   1.00
N134   N     0.99574   0.56622   0.84280   0.00000  Uiso   1.00
N135   N     0.27924   0.80871   0.91353   0.00000  Uiso   1.00
N136   N     0.99704   0.11494   0.91851   0.00000  Uiso   1.00
N137   N     0.99379   0.62888   0.77370   0.00000  Uiso   1.00
N138   N     0.27728   0.87137   0.84443   0.00000  Uiso   1.00
C139   C     0.72718   0.08809   0.42061   0.00000  Uiso   1.00
C140   C     0.66202   0.00403   0.42191   0.00000  Uiso   1.00
C141   C     0.60770   0.96841   0.46145   0.00000  Uiso   1.00
C142   C     0.55273   0.89107   0.45533   0.00000  Uiso   1.00
C143   C     0.45157   0.76666   0.46406   0.00000  Uiso   1.00
C144   C     0.65994   0.13781   0.38181   0.00000  Uiso   1.00
C145   C     0.60389   0.21469   0.38764   0.00000  Uiso   1.00
C146   C     0.54719   0.24997   0.34777   0.00000  Uiso   1.00
C147   C     0.44289   0.33330   0.29423   0.00000  Uiso   1.00
C148   C     0.85888   0.07172   0.40248   0.00000  Uiso   1.00
C149   C     0.97011   0.09305   0.42568   0.00000  Uiso   1.00
C150   C     0.08090   0.07271   0.40320   0.00000  Uiso   1.00
C151   C     0.28548   0.05343   0.38176   0.00000  Uiso   1.00
C152   C     0.72616   0.01408   0.33945   0.00000  Uiso   1.00
C153   C     0.66146   0.96382   0.37783   0.00000  Uiso   1.00
C154   C     0.60657   0.88651   0.37165   0.00000  Uiso   1.00
C155   C     0.55217   0.85079   0.41117   0.00000  Uiso   1.00
C156   C     0.65938   0.09761   0.33773   0.00000  Uiso   1.00
C157   C     0.60276   0.13279   0.29785   0.00000  Uiso   1.00
C158   C     0.54663   0.20969   0.30361   0.00000  Uiso   1.00
C159   C     0.85833   0.03152   0.35840   0.00000  Uiso   1.00
C160   C     0.96897   0.01115   0.33588   0.00000  Uiso   1.00
C161   C     0.08034   0.03243   0.35904   0.00000  Uiso   1.00
H162   H     0.72761   0.11940   0.45493   0.00000  Uiso   1.00
H163   H     0.60813   0.99954   0.49555   0.00000  Uiso   1.00
H164   H     0.60435   0.24578   0.42175   0.00000  Uiso   1.00
H165   H     0.97050   0.12416   0.45979   0.00000  Uiso   1.00
H166   H     0.47539   0.84895   0.52115   0.00000  Uiso   1.00
H167   H     0.46743   0.36817   0.36554   0.00000  Uiso   1.00
H168   H     0.23954   0.11171   0.44574   0.00000  Uiso   1.00
H169   H     0.72573   0.98278   0.30513   0.00000  Uiso   1.00
H170   H     0.60615   0.85542   0.33754   0.00000  Uiso   1.00
H171   H     0.60235   0.10166   0.26374   0.00000  Uiso   1.00
H172   H     0.96851   0.98004   0.30177   0.00000  Uiso   1.00
H173   H     0.47377   0.73197   0.39290   0.00000  Uiso   1.00
H174   H     0.46582   0.25120   0.23728   0.00000  Uiso   1.00
H175   H     0.23792   0.99473   0.31749   0.00000  Uiso   1.00
O176   O     0.39591   0.70916   0.48104   0.00000  Uiso   1.00
O177   O     0.38549   0.39037   0.27688   0.00000  Uiso   1.00
O178   O     0.39848   0.05389   0.38211   0.00000  Uiso   1.00
N179   N     0.49144   0.83889   0.48652   0.00000  Uiso   1.00
N180   N     0.48398   0.32433   0.34103   0.00000  Uiso   1.00
N181   N     0.20584   0.08457   0.41601   0.00000  Uiso   1.00
N182   N     0.49057   0.77594   0.41751   0.00000  Uiso   1.00
N183   N     0.48311   0.26138   0.27202   0.00000  Uiso   1.00
N184   N     0.20497   0.02163   0.34700   0.00000  Uiso   1.00
C185   C     0.90608   0.58747   0.42116   0.00000  Uiso   1.00
C186   C     0.97243   0.50377   0.42254   0.00000  Uiso   1.00
C187   C     0.02868   0.46792   0.46230   0.00000  Uiso   1.00
C188   C     0.08448   0.39100   0.45622   0.00000  Uiso   1.00
C189   C     0.18764   0.26708   0.46510   0.00000  Uiso   1.00
C190   C     0.97125   0.63812   0.38306   0.00000  Uiso   1.00
C191   C     0.02648   0.71523   0.38963   0.00000  Uiso   1.00
C192   C     0.08126   0.75140   0.35032   0.00000  Uiso   1.00
C193   C     0.18249   0.83609   0.29790   0.00000  Uiso   1.00
C194   C     0.77393   0.57058   0.40202   0.00000  Uiso   1.00
C195   C     0.66326   0.59093   0.42452   0.00000  Uiso   1.00
C196   C     0.55191   0.57025   0.40117   0.00000  Uiso   1.00
C197   C     0.34679   0.55007   0.37818   0.00000  Uiso   1.00
C198   C     0.90514   0.51459   0.33966   0.00000  Uiso   1.00
C199   C     0.97192   0.46419   0.37827   0.00000  Uiso   1.00
C200   C     0.02764   0.38729   0.37213   0.00000  Uiso   1.00
C201   C     0.08396   0.35134   0.41188   0.00000  Uiso   1.00
C202   C     0.97074   0.59854   0.33880   0.00000  Uiso   1.00
C203   C     0.02544   0.63460   0.29947   0.00000  Uiso   1.00
C204   C     0.08075   0.71175   0.30598   0.00000  Uiso   1.00
C205   C     0.77342   0.53099   0.35775   0.00000  Uiso   1.00
C206   C     0.66222   0.51029   0.33436   0.00000  Uiso   1.00
C207   C     0.55140   0.53060   0.35682   0.00000  Uiso   1.00
H208   H     0.90648   0.61829   0.45562   0.00000  Uiso   1.00
H209   H     0.02907   0.49858   0.49655   0.00000  Uiso   1.00
H210   H     0.02685   0.74585   0.42389   0.00000  Uiso   1.00
H211   H     0.66369   0.62156   0.45877   0.00000  Uiso   1.00
H212   H     0.16480   0.34842   0.52241   0.00000  Uiso   1.00
H213   H     0.16008   0.86982   0.36920   0.00000  Uiso   1.00
H214   H     0.39428   0.60772   0.44276   0.00000  Uiso   1.00
H215   H     0.90474   0.48378   0.30519   0.00000  Uiso   1.00
H216   H     0.02723   0.35668   0.33787   0.00000  Uiso   1.00
H217   H     0.02502   0.60395   0.26522   0.00000  Uiso   1.00
H218   H     0.66186   0.47966   0.30010   0.00000  Uiso   1.00
H219   H     0.16331   0.23325   0.39362   0.00000  Uiso   1.00
H220   H     0.15859   0.75465   0.24041   0.00000  Uiso   1.00
H221   H     0.39280   0.49255   0.31397   0.00000  Uiso   1.00
O222   O     0.24470   0.20966   0.48222   0.00000  Uiso   1.00
O223   O     0.23848   0.89373   0.28122   0.00000  Uiso   1.00
O224   O     0.23379   0.54986   0.37773   0.00000  Uiso   1.00
N225   N     0.14761   0.33875   0.48761   0.00000  Uiso   1.00
N226   N     0.14322   0.82622   0.34438   0.00000  Uiso   1.00
N227   N     0.42726   0.58120   0.41314   0.00000  Uiso   1.00
N228   N     0.14681   0.27677   0.41831   0.00000  Uiso   1.00
N229   N     0.14242   0.76425   0.27508   0.00000  Uiso   1.00
N230   N     0.42646   0.51923   0.34384   0.00000  Uiso   1.00
C231   C     0.58044   0.30389   0.92043   0.00000  Uiso   1.00
C232   C     0.51479   0.38780   0.92160   0.00000  Uiso   1.00
C233   C     0.46083   0.42365   0.96114   0.00000  Uiso   1.00
C234   C     0.40531   0.50079   0.95490   0.00000  Uiso   1.00
C235   C     0.30354   0.62502   0.96344   0.00000  Uiso   1.00
C236   C     0.51295   0.25363   0.88192   0.00000  Uiso   1.00
C237   C     0.45745   0.17667   0.88810   0.00000  Uiso   1.00
C238   C     0.40039   0.14087   0.84846   0.00000  Uiso   1.00
C239   C     0.29584   0.05677   0.79539   0.00000  Uiso   1.00
C240   C     0.71176   0.32042   0.90198   0.00000  Uiso   1.00
C241   C     0.82344   0.29960   0.92501   0.00000  Uiso   1.00
C242   C     0.93377   0.32001   0.90224   0.00000  Uiso   1.00
C243   C     0.13791   0.33961   0.88032   0.00000  Uiso   1.00
C244   C     0.57782   0.37714   0.83903   0.00000  Uiso   1.00
C245   C     0.51337   0.42758   0.87739   0.00000  Uiso   1.00
C246   C     0.45792   0.50469   0.87109   0.00000  Uiso   1.00
C247   C     0.40389   0.54065   0.91061   0.00000  Uiso   1.00
C248   C     0.51152   0.29342   0.83772   0.00000  Uiso   1.00
C249   C     0.45454   0.25772   0.79805   0.00000  Uiso   1.00
C250   C     0.39896   0.18073   0.80417   0.00000  Uiso   1.00
C251   C     0.71034   0.36021   0.85777   0.00000  Uiso   1.00
C252   C     0.82053   0.38065   0.83496   0.00000  Uiso   1.00
C253   C     0.93234   0.35987   0.85796   0.00000  Uiso   1.00
H254   H     0.58155   0.27291   0.95484   0.00000  Uiso   1.00
H255   H     0.46194   0.39284   0.99534   0.00000  Uiso   1.00
H256   H     0.45858   0.14590   0.92232   0.00000  Uiso   1.00
H257   H     0.82450   0.26881   0.95922   0.00000  Uiso   1.00
H258   H     0.32867   0.54334   0.02075   0.00000  Uiso   1.00
H259   H     0.32161   0.02264   0.86676   0.00000  Uiso   1.00
H260   H     0.09324   0.28181   0.94458   0.00000  Uiso   1.00
H261   H     0.57670   0.40811   0.80461   0.00000  Uiso   1.00
H262   H     0.45683   0.53547   0.83687   0.00000  Uiso   1.00
H263   H     0.45347   0.28852   0.76385   0.00000  Uiso   1.00
H264   H     0.81939   0.41143   0.80075   0.00000  Uiso   1.00
H265   H     0.32451   0.65910   0.89213   0.00000  Uiso   1.00
H266   H     0.31746   0.13839   0.73814   0.00000  Uiso   1.00
H267   H     0.08909   0.39758   0.81596   0.00000  Uiso   1.00
O268   O     0.24779   0.68254   0.98036   0.00000  Uiso   1.00
O269   O     0.23855   0.99940   0.77834   0.00000  Uiso   1.00
O270   O     0.25090   0.33944   0.88044   0.00000  Uiso   1.00
N271   N     0.34416   0.55311   0.98605   0.00000  Uiso   1.00
N272   N     0.33755   0.06629   0.84208   0.00000  Uiso   1.00
N273   N     0.05895   0.30858   0.91483   0.00000  Uiso   1.00
N274   N     0.34193   0.61540   0.91684   0.00000  Uiso   1.00
N275   N     0.33531   0.12858   0.77287   0.00000  Uiso   1.00
N276   N     0.05672   0.37087   0.84562   0.00000  Uiso   1.00
C277   C     0.24186   0.30360   0.07926   0.00000  Uiso   1.00
C278   C     0.17598   0.38745   0.07772   0.00000  Uiso   1.00
C279   C     0.11948   0.42305   0.03793   0.00000  Uiso   1.00
C280   C     0.06420   0.50018   0.04385   0.00000  Uiso   1.00
C281   C     0.96165   0.62427   0.03474   0.00000  Uiso   1.00
C282   C     0.17685   0.25350   0.11763   0.00000  Uiso   1.00
C283   C     0.12110   0.17646   0.11139   0.00000  Uiso   1.00
C284   C     0.06658   0.14082   0.15091   0.00000  Uiso   1.00
C285   C     0.96547   0.05692   0.20377   0.00000  Uiso   1.00
C286   C     0.37431   0.32034   0.09813   0.00000  Uiso   1.00
C287   C     0.48460   0.29948   0.07551   0.00000  Uiso   1.00
C288   C     0.59633   0.32010   0.09861   0.00000  Uiso   1.00
C289   C     0.80182   0.33998   0.12120   0.00000  Uiso   1.00
C290   C     0.24416   0.37728   0.16052   0.00000  Uiso   1.00
C291   C     0.17722   0.42747   0.12186   0.00000  Uiso   1.00
C292   C     0.12202   0.50457   0.12784   0.00000  Uiso   1.00
C293   C     0.06545   0.54027   0.08806   0.00000  Uiso   1.00
C294   C     0.17810   0.29351   0.16176   0.00000  Uiso   1.00
C295   C     0.12365   0.25798   0.20130   0.00000  Uiso   1.00
C296   C     0.06783   0.18091   0.19513   0.00000  Uiso   1.00
C297   C     0.37556   0.36036   0.14226   0.00000  Uiso   1.00
C298   C     0.48714   0.38101   0.16541   0.00000  Uiso   1.00
C299   C     0.59758   0.36019   0.14283   0.00000  Uiso   1.00
H300   H     0.24088   0.27244   0.04490   0.00000  Uiso   1.00
H301   H     0.11852   0.39205   0.00378   0.00000  Uiso   1.00
H302   H     0.12016   0.14550   0.07723   0.00000  Uiso   1.00
H303   H     0.48360   0.26851   0.04135   0.00000  Uiso   1.00
H304   H     0.98337   0.54231   0.97766   0.00000  Uiso   1.00
H305   H     0.98687   0.02242   0.13255   0.00000  Uiso   1.00
H306   H     0.75325   0.28181   0.05688   0.00000  Uiso   1.00
H307   H     0.24513   0.40844   0.19489   0.00000  Uiso   1.00
H308   H     0.12300   0.53552   0.16200   0.00000  Uiso   1.00
H309   H     0.12464   0.28896   0.23545   0.00000  Uiso   1.00
H310   H     0.48807   0.41198   0.19957   0.00000  Uiso   1.00
H311   H     0.98700   0.65875   0.10608   0.00000  Uiso   1.00
H312   H     0.99050   0.13886   0.26096   0.00000  Uiso   1.00
H313   H     0.75688   0.39825   0.18530   0.00000  Uiso   1.00
O314   O     0.90473   0.68166   0.01753   0.00000  Uiso   1.00
O315   O     0.90934   0.99959   0.22074   0.00000  Uiso   1.00
O316   O     0.91481   0.33990   0.12146   0.00000  Uiso   1.00
N317   N     0.00101   0.55228   0.01239   0.00000  Uiso   1.00
N318   N     0.00426   0.06622   0.15720   0.00000  Uiso   1.00
N319   N     0.72076   0.30871   0.08647   0.00000  Uiso   1.00
N320   N     0.00296   0.61494   0.08149   0.00000  Uiso   1.00
N321   N     0.00621   0.12888   0.22630   0.00000  Uiso   1.00
N322   N     0.72272   0.37137   0.15557   0.00000  Uiso   1.00
C323   C     0.27282   0.58809   0.57939   0.00000  Uiso   1.00
C324   C     0.33798   0.50403   0.57809   0.00000  Uiso   1.00
C325   C     0.39230   0.46841   0.53855   0.00000  Uiso   1.00
C326   C     0.44727   0.39107   0.54467   0.00000  Uiso   1.00
C327   C     0.54843   0.26666   0.53594   0.00000  Uiso   1.00
C328   C     0.34006   0.63781   0.61819   0.00000  Uiso   1.00
C329   C     0.39611   0.71469   0.61236   0.00000  Uiso   1.00
C330   C     0.45281   0.74997   0.65223   0.00000  Uiso   1.00
C331   C     0.55711   0.83330   0.70577   0.00000  Uiso   1.00
C332   C     0.14112   0.57172   0.59752   0.00000  Uiso   1.00
C333   C     0.02989   0.59305   0.57432   0.00000  Uiso   1.00
C334   C     0.91910   0.57271   0.59680   0.00000  Uiso   1.00
C335   C     0.71452   0.55343   0.61824   0.00000  Uiso   1.00
C336   C     0.27384   0.51408   0.66055   0.00000  Uiso   1.00
C337   C     0.33854   0.46382   0.62217   0.00000  Uiso   1.00
C338   C     0.39343   0.38651   0.62835   0.00000  Uiso   1.00
C339   C     0.44783   0.35079   0.58883   0.00000  Uiso   1.00
C340   C     0.34062   0.59761   0.66227   0.00000  Uiso   1.00
C341   C     0.39724   0.63279   0.70215   0.00000  Uiso   1.00
C342   C     0.45337   0.70969   0.69639   0.00000  Uiso   1.00
C343   C     0.14167   0.53152   0.64160   0.00000  Uiso   1.00
C344   C     0.03103   0.51115   0.66412   0.00000  Uiso   1.00
C345   C     0.91966   0.53243   0.64096   0.00000  Uiso   1.00
H346   H     0.27239   0.61940   0.54507   0.00000  Uiso   1.00
H347   H     0.39187   0.49954   0.50445   0.00000  Uiso   1.00
H348   H     0.39565   0.74578   0.57825   0.00000  Uiso   1.00
H349   H     0.02950   0.62416   0.54021   0.00000  Uiso   1.00
H350   H     0.52461   0.34895   0.47885   0.00000  Uiso   1.00
H351   H     0.53257   0.86817   0.63446   0.00000  Uiso   1.00
H352   H     0.76046   0.61171   0.55426   0.00000  Uiso   1.00
H353   H     0.27427   0.48278   0.69487   0.00000  Uiso   1.00
H354   H     0.39385   0.35542   0.66246   0.00000  Uiso   1.00
H355   H     0.39765   0.60166   0.73626   0.00000  Uiso   1.00
H356   H     0.03149   0.48004   0.69823   0.00000  Uiso   1.00
H357   H     0.52623   0.23197   0.60710   0.00000  Uiso   1.00
H358   H     0.53418   0.75120   0.76272   0.00000  Uiso   1.00
H359   H     0.76208   0.49473   0.68251   0.00000  Uiso   1.00
O360   O     0.60409   0.20916   0.51896   0.00000  Uiso   1.00
O361   O     0.61451   0.89037   0.72312   0.00000  Uiso   1.00
O362   O     0.60152   0.55389   0.61789   0.00000  Uiso   1.00
N363   N     0.50856   0.33889   0.51348   0.00000  Uiso   1.00
N364   N     0.51602   0.82433   0.65897   0.00000  Uiso   1.00
N365   N     0.79416   0.58457   0.58399   0.00000  Uiso   1.00
N366   N     0.50943   0.27594   0.58249   0.00000  Uiso   1.00
N367   N     0.51689   0.76138   0.72798   0.00000  Uiso   1.00
N368   N     0.79503   0.52163   0.65300   0.00000  Uiso   1.00
