data_job_06729
_audit_creation_date              2018-12-19
_audit_creation_method            'Materials Studio'
_symmetry_space_group_name_H-M    'P1'
_symmetry_Int_Tables_number       1
_symmetry_cell_setting            triclinic
loop_
_symmetry_equiv_pos_as_xyz
  x,y,z
_cell_length_a                    23.6551
_cell_length_b                    20.5660
_cell_length_c                    19.4356
_cell_angle_alpha                 113.8450
_cell_angle_beta                  103.2010
_cell_angle_gamma                 93.7581
loop_
_atom_site_label
_atom_site_type_symbol
_atom_site_fract_x
_atom_site_fract_y
_atom_site_fract_z
_atom_site_U_iso_or_equiv
_atom_site_adp_type
_atom_site_occupancy
C1     C     0.47959   0.55044   0.19033   0.00000  Uiso   1.00
C2     C     0.42846   0.48762   0.15900   0.00000  Uiso   1.00
C3     C     0.42277   0.43776   0.18939   0.00000  Uiso   1.00
C4     C     0.37274   0.38430   0.15237   0.00000  Uiso   1.00
C5     C     0.29988   0.28725   0.11360   0.00000  Uiso   1.00
C6     C     0.50429   0.54104   0.12161   0.00000  Uiso   1.00
C7     C     0.56235   0.53612   0.12055   0.00000  Uiso   1.00
C8     C     0.57615   0.52764   0.05206   0.00000  Uiso   1.00
C9     C     0.62102   0.51358   0.95525   0.00000  Uiso   1.00
C10    C     0.45207   0.61836   0.20830   0.00000  Uiso   1.00
C11    C     0.46623   0.67846   0.28014   0.00000  Uiso   1.00
C12    C     0.43609   0.73509   0.28463   0.00000  Uiso   1.00
C13    C     0.39988   0.84108   0.32242   0.00000  Uiso   1.00
C14    C     0.40088   0.54416   0.07056   0.00000  Uiso   1.00
C15    C     0.38571   0.48420   0.09395   0.00000  Uiso   1.00
C16    C     0.33568   0.43081   0.05688   0.00000  Uiso   1.00
C17    C     0.32991   0.38089   0.08720   0.00000  Uiso   1.00
C18    C     0.46154   0.53763   0.05655   0.00000  Uiso   1.00
C19    C     0.47526   0.52916   0.98804   0.00000  Uiso   1.00
C20    C     0.53332   0.52422   0.98689   0.00000  Uiso   1.00
C21    C     0.40932   0.61495   0.14325   0.00000  Uiso   1.00
C22    C     0.37915   0.67150   0.14763   0.00000  Uiso   1.00
C23    C     0.39326   0.73167   0.21945   0.00000  Uiso   1.00
H24    H     0.51287   0.55310   0.24097   0.00000  Uiso   1.00
H25    H     0.45586   0.44042   0.23973   0.00000  Uiso   1.00
H26    H     0.59542   0.53876   0.17091   0.00000  Uiso   1.00
H27    H     0.49932   0.68108   0.33046   0.00000  Uiso   1.00
H28    H     0.37382   0.31397   0.20964   0.00000  Uiso   1.00
H29    H     0.66808   0.52136   0.06454   0.00000  Uiso   1.00
H30    H     0.46544   0.82147   0.40100   0.00000  Uiso   1.00
H31    H     0.36759   0.54150   0.01991   0.00000  Uiso   1.00
H32    H     0.30261   0.42818   0.00654   0.00000  Uiso   1.00
H33    H     0.44217   0.52653   0.93772   0.00000  Uiso   1.00
H34    H     0.34607   0.66884   0.09727   0.00000  Uiso   1.00
H35    H     0.24943   0.30404   0.02037   0.00000  Uiso   1.00
H36    H     0.54370   0.51144   0.87527   0.00000  Uiso   1.00
H37    H     0.34106   0.81153   0.21173   0.00000  Uiso   1.00
O38    O     0.27151   0.23465   0.11018   0.00000  Uiso   1.00
O39    O     0.65758   0.50676   0.91982   0.00000  Uiso   1.00
O40    O     0.39171   0.90048   0.36124   0.00000  Uiso   1.00
N41    N     0.35345   0.32719   0.16694   0.00000  Uiso   1.00
N42    N     0.62858   0.52108   0.03127   0.00000  Uiso   1.00
N43    N     0.43913   0.80166   0.34583   0.00000  Uiso   1.00
N44    N     0.28652   0.32185   0.06510   0.00000  Uiso   1.00
N45    N     0.56164   0.51574   0.92943   0.00000  Uiso   1.00
N46    N     0.37220   0.79632   0.24399   0.00000  Uiso   1.00
C47    C     0.16061   0.14065   0.57844   0.00000  Uiso   1.00
C48    C     0.10515   0.08583   0.55567   0.00000  Uiso   1.00
C49    C     0.07402   0.03738   0.47990   0.00000  Uiso   1.00
C50    C     0.02442   0.99168   0.47134   0.00000  Uiso   1.00
C51    C     0.94100   0.90617   0.42611   0.00000  Uiso   1.00
C52    C     0.14674   0.21421   0.62610   0.00000  Uiso   1.00
C53    C     0.15058   0.27371   0.60955   0.00000  Uiso   1.00
C54    C     0.13600   0.33609   0.66029   0.00000  Uiso   1.00
C55    C     0.11718   0.44992   0.72443   0.00000  Uiso   1.00
C56    C     0.20750   0.12533   0.63548   0.00000  Uiso   1.00
C57    C     0.26245   0.11011   0.62683   0.00000  Uiso   1.00
C58    C     0.29903   0.09767   0.68547   0.00000  Uiso   1.00
C59    C     0.37455   0.07348   0.76417   0.00000  Uiso   1.00
C60    C     0.12788   0.14563   0.69799   0.00000  Uiso   1.00
C61    C     0.08737   0.08854   0.62061   0.00000  Uiso   1.00
C62    C     0.03781   0.04289   0.61216   0.00000  Uiso   1.00
C63    C     0.00661   0.99439   0.53639   0.00000  Uiso   1.00
C64    C     0.12896   0.21692   0.69103   0.00000  Uiso   1.00
C65    C     0.11437   0.27923   0.74181   0.00000  Uiso   1.00
C66    C     0.11819   0.33880   0.72534   0.00000  Uiso   1.00
C67    C     0.18972   0.12803   0.70041   0.00000  Uiso   1.00
C68    C     0.22623   0.11562   0.75909   0.00000  Uiso   1.00
C69    C     0.28122   0.10038   0.75052   0.00000  Uiso   1.00
H70    H     0.17445   0.13855   0.52789   0.00000  Uiso   1.00
H71    H     0.08779   0.03531   0.42967   0.00000  Uiso   1.00
H72    H     0.16435   0.27160   0.55930   0.00000  Uiso   1.00
H73    H     0.27619   0.10802   0.57657   0.00000  Uiso   1.00
H74    H     0.98386   0.92206   0.34940   0.00000  Uiso   1.00
H75    H     0.14530   0.42031   0.62276   0.00000  Uiso   1.00
H76    H     0.38114   0.07537   0.65917   0.00000  Uiso   1.00
H77    H     0.11404   0.14774   0.74854   0.00000  Uiso   1.00
H78    H     0.02406   0.04500   0.66242   0.00000  Uiso   1.00
H79    H     0.10062   0.28130   0.79206   0.00000  Uiso   1.00
H80    H     0.21246   0.11772   0.80933   0.00000  Uiso   1.00
H81    H     0.93214   0.92993   0.53831   0.00000  Uiso   1.00
H82    H     0.09358   0.42819   0.81167   0.00000  Uiso   1.00
H83    H     0.32942   0.08324   0.84809   0.00000  Uiso   1.00
O84    O     0.89989   0.85826   0.38322   0.00000  Uiso   1.00
O85    O     0.11171   0.51195   0.74186   0.00000  Uiso   1.00
O86    O     0.42112   0.05939   0.78963   0.00000  Uiso   1.00
N87    N     0.98405   0.93800   0.40568   0.00000  Uiso   1.00
N88    N     0.13497   0.40384   0.66124   0.00000  Uiso   1.00
N89    N     0.35547   0.08136   0.69530   0.00000  Uiso   1.00
N90    N     0.95621   0.94224   0.50733   0.00000  Uiso   1.00
N91    N     0.10714   0.40807   0.76290   0.00000  Uiso   1.00
N92    N     0.32764   0.08559   0.79695   0.00000  Uiso   1.00
C93    C     0.64199   0.03232   0.44870   0.00000  Uiso   1.00
C94    C     0.63222   0.97999   0.36306   0.00000  Uiso   1.00
C95    C     0.58975   0.91775   0.32110   0.00000  Uiso   1.00
C96    C     0.58795   0.87711   0.24337   0.00000  Uiso   1.00
C97    C     0.56682   0.79265   0.11565   0.00000  Uiso   1.00
C98    C     0.70633   0.03708   0.48973   0.00000  Uiso   1.00
C99    C     0.72618   0.02285   0.55429   0.00000  Uiso   1.00
C100   C     0.78677   0.03027   0.58320   0.00000  Uiso   1.00
C101   C     0.88071   0.03449   0.65218   0.00000  Uiso   1.00
C102   C     0.63698   0.10628   0.44984   0.00000  Uiso   1.00
C103   C     0.59853   0.15024   0.48087   0.00000  Uiso   1.00
C104   C     0.60074   0.21593   0.47621   0.00000  Uiso   1.00
C105   C     0.58700   0.32759   0.48324   0.00000  Uiso   1.00
C106   C     0.71431   0.07082   0.38528   0.00000  Uiso   1.00
C107   C     0.67150   0.00090   0.32861   0.00000  Uiso   1.00
C108   C     0.66977   0.96034   0.25093   0.00000  Uiso   1.00
C109   C     0.62730   0.89806   0.20886   0.00000  Uiso   1.00
C110   C     0.74561   0.05799   0.45529   0.00000  Uiso   1.00
C111   C     0.80619   0.06544   0.48412   0.00000  Uiso   1.00
C112   C     0.82613   0.05121   0.54870   0.00000  Uiso   1.00
C113   C     0.67626   0.12719   0.41539   0.00000  Uiso   1.00
C114   C     0.67854   0.19283   0.41069   0.00000  Uiso   1.00
C115   C     0.64010   0.23688   0.44170   0.00000  Uiso   1.00
H116   H     0.61141   0.01605   0.47552   0.00000  Uiso   1.00
H117   H     0.55936   0.90159   0.34778   0.00000  Uiso   1.00
H118   H     0.69577   0.00667   0.58094   0.00000  Uiso   1.00
H119   H     0.56813   0.13404   0.50752   0.00000  Uiso   1.00
H120   H     0.51900   0.78390   0.19098   0.00000  Uiso   1.00
H121   H     0.80662   0.00550   0.68262   0.00000  Uiso   1.00
H122   H     0.53748   0.27408   0.52781   0.00000  Uiso   1.00
H123   H     0.74490   0.08710   0.35846   0.00000  Uiso   1.00
H124   H     0.70017   0.97654   0.22429   0.00000  Uiso   1.00
H125   H     0.83658   0.08162   0.45745   0.00000  Uiso   1.00
H126   H     0.70895   0.20899   0.38403   0.00000  Uiso   1.00
H127   H     0.63329   0.84473   0.09074   0.00000  Uiso   1.00
H128   H     0.92091   0.06633   0.58239   0.00000  Uiso   1.00
H129   H     0.65177   0.33491   0.42758   0.00000  Uiso   1.00
O130   O     0.54432   0.74029   0.05472   0.00000  Uiso   1.00
O131   O     0.92167   0.03103   0.69974   0.00000  Uiso   1.00
O132   O     0.56856   0.38340   0.49663   0.00000  Uiso   1.00
N133   N     0.55202   0.81339   0.18579   0.00000  Uiso   1.00
N134   N     0.82093   0.02057   0.64544   0.00000  Uiso   1.00
N135   N     0.56932   0.27168   0.50073   0.00000  Uiso   1.00
N136   N     0.61352   0.84613   0.13186   0.00000  Uiso   1.00
N137   N     0.88243   0.05330   0.59151   0.00000  Uiso   1.00
N138   N     0.63082   0.30441   0.44679   0.00000  Uiso   1.00
C139   C     0.78580   0.48513   0.89691   0.00000  Uiso   1.00
C140   C     0.76421   0.43697   0.93156   0.00000  Uiso   1.00
C141   C     0.72260   0.37388   0.89054   0.00000  Uiso   1.00
C142   C     0.70883   0.33757   0.93286   0.00000  Uiso   1.00
C143   C     0.67124   0.25883   0.97442   0.00000  Uiso   1.00
C144   C     0.85267   0.49081   0.91634   0.00000  Uiso   1.00
C145   C     0.88542   0.47300   0.86252   0.00000  Uiso   1.00
C146   C     0.94612   0.48202   0.89204   0.00000  Uiso   1.00
C147   C     0.04586   0.48692   0.90998   0.00000  Uiso   1.00
C148   C     0.77449   0.56029   0.94432   0.00000  Uiso   1.00
C149   C     0.74152   0.60090   0.91402   0.00000  Uiso   1.00
C150   C     0.73640   0.66843   0.96709   0.00000  Uiso   1.00
C151   C     0.71474   0.78120   0.02846   0.00000  Uiso   1.00
C152   C     0.83535   0.53283   0.04502   0.00000  Uiso   1.00
C153   C     0.79113   0.46288   0.01201   0.00000  Uiso   1.00
C154   C     0.77742   0.42665   0.05441   0.00000  Uiso   1.00
C155   C     0.73579   0.36352   0.01345   0.00000  Uiso   1.00
C156   C     0.87958   0.51672   0.99679   0.00000  Uiso   1.00
C157   C     0.94024   0.52577   0.02639   0.00000  Uiso   1.00
C158   C     0.97308   0.50797   0.97263   0.00000  Uiso   1.00
C159   C     0.80140   0.58620   0.02476   0.00000  Uiso   1.00
C160   C     0.79634   0.65367   0.07789   0.00000  Uiso   1.00
C161   C     0.76336   0.69438   0.04768   0.00000  Uiso   1.00
H162   H     0.76485   0.46496   0.83428   0.00000  Uiso   1.00
H163   H     0.70178   0.35385   0.82828   0.00000  Uiso   1.00
H164   H     0.86458   0.45296   0.80028   0.00000  Uiso   1.00
H165   H     0.72070   0.58084   0.85176   0.00000  Uiso   1.00
H166   H     0.64375   0.24207   0.85711   0.00000  Uiso   1.00
H167   H     0.98702   0.45107   0.79805   0.00000  Uiso   1.00
H168   H     0.68361   0.72074   0.90662   0.00000  Uiso   1.00
H169   H     0.85631   0.55300   0.10765   0.00000  Uiso   1.00
H170   H     0.79826   0.44671   0.11666   0.00000  Uiso   1.00
H171   H     0.96106   0.54582   0.08865   0.00000  Uiso   1.00
H172   H     0.81717   0.67370   0.14014   0.00000  Uiso   1.00
H173   H     0.72205   0.31744   0.09116   0.00000  Uiso   1.00
H174   H     0.06532   0.52645   0.03211   0.00000  Uiso   1.00
H175   H     0.76191   0.79611   0.14068   0.00000  Uiso   1.00
O176   O     0.64307   0.20824   0.97512   0.00000  Uiso   1.00
O177   O     0.09343   0.48246   0.89765   0.00000  Uiso   1.00
O178   O     0.69536   0.83624   0.04009   0.00000  Uiso   1.00
N179   N     0.67013   0.27440   0.91096   0.00000  Uiso   1.00
N180   N     0.99107   0.46980   0.85575   0.00000  Uiso   1.00
N181   N     0.70742   0.72192   0.95725   0.00000  Uiso   1.00
N182   N     0.71227   0.31496   0.03690   0.00000  Uiso   1.00
N183   N     0.03321   0.51035   0.98169   0.00000  Uiso   1.00
N184   N     0.74955   0.76247   0.08319   0.00000  Uiso   1.00
C185   C     0.67991   0.93099   0.91165   0.00000  Uiso   1.00
C186   C     0.63918   0.86599   0.84176   0.00000  Uiso   1.00
C187   C     0.64642   0.79453   0.81868   0.00000  Uiso   1.00
C188   C     0.60435   0.74296   0.75317   0.00000  Uiso   1.00
C189   C     0.54833   0.63911   0.65090   0.00000  Uiso   1.00
C190   C     0.64104   0.96930   0.96256   0.00000  Uiso   1.00
C191   C     0.64986   0.98471   0.04104   0.00000  Uiso   1.00
C192   C     0.60936   0.02012   0.07721   0.00000  Uiso   1.00
C193   C     0.55625   0.07670   0.16250   0.00000  Uiso   1.00
C194   C     0.69947   0.98200   0.87902   0.00000  Uiso   1.00
C195   C     0.75742   0.00809   0.88728   0.00000  Uiso   1.00
C196   C     0.76611   0.05421   0.85313   0.00000  Uiso   1.00
C197   C     0.80373   0.13050   0.80871   0.00000  Uiso   1.00
C198   C     0.59231   0.96650   0.83633   0.00000  Uiso   1.00
C199   C     0.59160   0.88528   0.80086   0.00000  Uiso   1.00
C200   C     0.54950   0.83382   0.73536   0.00000  Uiso   1.00
C201   C     0.55668   0.76228   0.71218   0.00000  Uiso   1.00
C202   C     0.59346   0.98859   0.92165   0.00000  Uiso   1.00
C203   C     0.55294   0.02399   0.95772   0.00000  Uiso   1.00
C204   C     0.56169   0.03944   0.03623   0.00000  Uiso   1.00
C205   C     0.65189   0.00129   0.83811   0.00000  Uiso   1.00
C206   C     0.66049   0.04738   0.80395   0.00000  Uiso   1.00
C207   C     0.71844   0.07353   0.81215   0.00000  Uiso   1.00
H208   H     0.71696   0.91597   0.94350   0.00000  Uiso   1.00
H209   H     0.68325   0.77962   0.85036   0.00000  Uiso   1.00
H210   H     0.68669   0.96978   0.07268   0.00000  Uiso   1.00
H211   H     0.79423   0.99316   0.91894   0.00000  Uiso   1.00
H212   H     0.62489   0.63696   0.72907   0.00000  Uiso   1.00
H213   H     0.63215   0.03793   0.19787   0.00000  Uiso   1.00
H214   H     0.85892   0.08723   0.87367   0.00000  Uiso   1.00
H215   H     0.55526   0.98152   0.80449   0.00000  Uiso   1.00
H216   H     0.51268   0.84876   0.70371   0.00000  Uiso   1.00
H217   H     0.51612   0.03891   0.92604   0.00000  Uiso   1.00
H218   H     0.62366   0.06229   0.77230   0.00000  Uiso   1.00
H219   H     0.48645   0.69307   0.61005   0.00000  Uiso   1.00
H220   H     0.49371   0.09405   0.07885   0.00000  Uiso   1.00
H221   H     0.72048   0.14334   0.75465   0.00000  Uiso   1.00
O222   O     0.53057   0.57649   0.60580   0.00000  Uiso   1.00
O223   O     0.54010   0.10257   0.22084   0.00000  Uiso   1.00
O224   O     0.83762   0.16725   0.79549   0.00000  Uiso   1.00
N225   N     0.59816   0.66838   0.71488   0.00000  Uiso   1.00
N226   N     0.60494   0.04326   0.15317   0.00000  Uiso   1.00
N227   N     0.81695   0.08937   0.85009   0.00000  Uiso   1.00
N228   N     0.52366   0.69858   0.65084   0.00000  Uiso   1.00
N229   N     0.53045   0.07345   0.08913   0.00000  Uiso   1.00
N230   N     0.74246   0.11956   0.78605   0.00000  Uiso   1.00
C231   C     0.18622   0.61201   0.63737   0.00000  Uiso   1.00
C232   C     0.14786   0.54663   0.56550   0.00000  Uiso   1.00
C233   C     0.09782   0.50545   0.56283   0.00000  Uiso   1.00
C234   C     0.06885   0.44782   0.49149   0.00000  Uiso   1.00
C235   C     0.00616   0.34873   0.38996   0.00000  Uiso   1.00
C236   C     0.18790   0.67414   0.61363   0.00000  Uiso   1.00
C237   C     0.17153   0.74017   0.65144   0.00000  Uiso   1.00
C238   C     0.17627   0.78989   0.62062   0.00000  Uiso   1.00
C239   C     0.17579   0.88877   0.59384   0.00000  Uiso   1.00
C240   C     0.24863   0.59532   0.64942   0.00000  Uiso   1.00
C241   C     0.28333   0.59511   0.71732   0.00000  Uiso   1.00
C242   C     0.33921   0.57849   0.71663   0.00000  Uiso   1.00
C243   C     0.43302   0.55500   0.74542   0.00000  Uiso   1.00
C244   C     0.22375   0.58290   0.51542   0.00000  Uiso   1.00
C245   C     0.16824   0.53082   0.49926   0.00000  Uiso   1.00
C246   C     0.13934   0.47324   0.42791   0.00000  Uiso   1.00
C247   C     0.08927   0.43198   0.42514   0.00000  Uiso   1.00
C248   C     0.20828   0.65833   0.54740   0.00000  Uiso   1.00
C249   C     0.21305   0.70796   0.51651   0.00000  Uiso   1.00
C250   C     0.19669   0.77405   0.55426   0.00000  Uiso   1.00
C251   C     0.26901   0.57951   0.58318   0.00000  Uiso   1.00
C252   C     0.32485   0.56289   0.58239   0.00000  Uiso   1.00
C253   C     0.35963   0.56265   0.65028   0.00000  Uiso   1.00
H254   H     0.17035   0.62433   0.68894   0.00000  Uiso   1.00
H255   H     0.08206   0.51771   0.61411   0.00000  Uiso   1.00
H256   H     0.15576   0.75240   0.70270   0.00000  Uiso   1.00
H257   H     0.26754   0.60735   0.76857   0.00000  Uiso   1.00
H258   H     0.99314   0.39254   0.50191   0.00000  Uiso   1.00
H259   H     0.14857   0.88740   0.68874   0.00000  Uiso   1.00
H260   H     0.38429   0.58155   0.82763   0.00000  Uiso   1.00
H261   H     0.23962   0.57059   0.46385   0.00000  Uiso   1.00
H262   H     0.15513   0.46101   0.37666   0.00000  Uiso   1.00
H263   H     0.22883   0.69570   0.46526   0.00000  Uiso   1.00
H264   H     0.34061   0.55066   0.53112   0.00000  Uiso   1.00
H265   H     0.05245   0.34653   0.30919   0.00000  Uiso   1.00
H266   H     0.20788   0.84139   0.49602   0.00000  Uiso   1.00
H267   H     0.44359   0.53554   0.63491   0.00000  Uiso   1.00
O268   O     0.96595   0.29844   0.35225   0.00000  Uiso   1.00
O269   O     0.16988   0.94768   0.59737   0.00000  Uiso   1.00
O270   O     0.47913   0.54640   0.77959   0.00000  Uiso   1.00
N271   N     0.01870   0.39674   0.46853   0.00000  Uiso   1.00
N272   N     0.16401   0.85940   0.64319   0.00000  Uiso   1.00
N273   N     0.38439   0.57347   0.77305   0.00000  Uiso   1.00
N274   N     0.05061   0.37198   0.36483   0.00000  Uiso   1.00
N275   N     0.19592   0.83464   0.53949   0.00000  Uiso   1.00
N276   N     0.41630   0.54871   0.66935   0.00000  Uiso   1.00
C277   C     0.42738   0.24634   0.64145   0.00000  Uiso   1.00
C278   C     0.47979   0.30762   0.67286   0.00000  Uiso   1.00
C279   C     0.48895   0.35448   0.63979   0.00000  Uiso   1.00
C280   C     0.53961   0.40696   0.67740   0.00000  Uiso   1.00
C281   C     0.61488   0.50133   0.71583   0.00000  Uiso   1.00
C282   C     0.39945   0.26025   0.70835   0.00000  Uiso   1.00
C283   C     0.34107   0.26726   0.70511   0.00000  Uiso   1.00
C284   C     0.32410   0.27985   0.77259   0.00000  Uiso   1.00
C285   C     0.27463   0.30061   0.86608   0.00000  Uiso   1.00
C286   C     0.45339   0.17791   0.62920   0.00000  Uiso   1.00
C287   C     0.44035   0.11569   0.55942   0.00000  Uiso   1.00
C288   C     0.46878   0.05895   0.56027   0.00000  Uiso   1.00
C289   C     0.50307   0.95187   0.53089   0.00000  Uiso   1.00
C290   C     0.50106   0.25620   0.76704   0.00000  Uiso   1.00
C291   C     0.51981   0.31298   0.74109   0.00000  Uiso   1.00
C292   C     0.57047   0.36540   0.77875   0.00000  Uiso   1.00
C293   C     0.57970   0.41233   0.74574   0.00000  Uiso   1.00
C294   C     0.43947   0.26561   0.77657   0.00000  Uiso   1.00
C295   C     0.42258   0.27818   0.84406   0.00000  Uiso   1.00
C296   C     0.36419   0.28522   0.84093   0.00000  Uiso   1.00
C297   C     0.49341   0.18327   0.69742   0.00000  Uiso   1.00
C298   C     0.52187   0.12661   0.69838   0.00000  Uiso   1.00
C299   C     0.50887   0.06431   0.62862   0.00000  Uiso   1.00
H300   H     0.39623   0.24217   0.58834   0.00000  Uiso   1.00
H301   H     0.45797   0.35032   0.58700   0.00000  Uiso   1.00
H302   H     0.31011   0.26311   0.65230   0.00000  Uiso   1.00
H303   H     0.40938   0.11156   0.50664   0.00000  Uiso   1.00
H304   H     0.54406   0.47262   0.61562   0.00000  Uiso   1.00
H305   H     0.23228   0.28869   0.75330   0.00000  Uiso   1.00
H306   H     0.44161   0.96912   0.44615   0.00000  Uiso   1.00
H307   H     0.53222   0.26038   0.82016   0.00000  Uiso   1.00
H308   H     0.60143   0.36954   0.83155   0.00000  Uiso   1.00
H309   H     0.45356   0.28232   0.89685   0.00000  Uiso   1.00
H310   H     0.55283   0.13077   0.75119   0.00000  Uiso   1.00
H311   H     0.66049   0.48821   0.81411   0.00000  Uiso   1.00
H312   H     0.34871   0.30428   0.95178   0.00000  Uiso   1.00
H313   H     0.55804   0.98472   0.64463   0.00000  Uiso   1.00
O314   O     0.64534   0.55191   0.71819   0.00000  Uiso   1.00
O315   O     0.23630   0.31059   0.89881   0.00000  Uiso   1.00
O316   O     0.51093   0.89133   0.49583   0.00000  Uiso   1.00
N317   N     0.56197   0.46130   0.66077   0.00000  Uiso   1.00
N318   N     0.27048   0.28935   0.78949   0.00000  Uiso   1.00
N319   N     0.46617   0.99057   0.50233   0.00000  Uiso   1.00
N320   N     0.62462   0.46969   0.76757   0.00000  Uiso   1.00
N321   N     0.33313   0.29774   0.89629   0.00000  Uiso   1.00
N322   N     0.52882   0.99897   0.60913   0.00000  Uiso   1.00
C323   C     0.77341   0.45197   0.60794   0.00000  Uiso   1.00
C324   C     0.83671   0.48823   0.65627   0.00000  Uiso   1.00
C325   C     0.85434   0.55859   0.71427   0.00000  Uiso   1.00
C326   C     0.91430   0.58164   0.75171   0.00000  Uiso   1.00
C327   C     0.00638   0.64488   0.82981   0.00000  Uiso   1.00
C328   C     0.76184   0.38405   0.62002   0.00000  Uiso   1.00
C329   C     0.71653   0.36681   0.64754   0.00000  Uiso   1.00
C330   C     0.71347   0.30215   0.65445   0.00000  Uiso   1.00
C331   C     0.68929   0.20363   0.67621   0.00000  Uiso   1.00
C332   C     0.77315   0.42594   0.52241   0.00000  Uiso   1.00
C333   C     0.73734   0.44391   0.46786   0.00000  Uiso   1.00
C334   C     0.74379   0.41450   0.39259   0.00000  Uiso   1.00
C335   C     0.73717   0.38102   0.26281   0.00000  Uiso   1.00
C336   C     0.84853   0.36779   0.57127   0.00000  Uiso   1.00
C337   C     0.87751   0.44251   0.63635   0.00000  Uiso   1.00
C338   C     0.93746   0.46545   0.67370   0.00000  Uiso   1.00
C339   C     0.95519   0.53583   0.73176   0.00000  Uiso   1.00
C340   C     0.80265   0.33833   0.60010   0.00000  Uiso   1.00
C341   C     0.79965   0.27368   0.60697   0.00000  Uiso   1.00
C342   C     0.75435   0.25635   0.63449   0.00000  Uiso   1.00
C343   C     0.81396   0.38022   0.50250   0.00000  Uiso   1.00
C344   C     0.82046   0.35077   0.42729   0.00000  Uiso   1.00
C345   C     0.78467   0.36869   0.37264   0.00000  Uiso   1.00
H346   H     0.74164   0.48756   0.62345   0.00000  Uiso   1.00
H347   H     0.82275   0.59395   0.72968   0.00000  Uiso   1.00
H348   H     0.68495   0.40220   0.66294   0.00000  Uiso   1.00
H349   H     0.70576   0.47929   0.48329   0.00000  Uiso   1.00
H350   H     0.93067   0.69173   0.83869   0.00000  Uiso   1.00
H351   H     0.64011   0.28741   0.69794   0.00000  Uiso   1.00
H352   H     0.68399   0.44995   0.31912   0.00000  Uiso   1.00
H353   H     0.88031   0.33219   0.55576   0.00000  Uiso   1.00
H354   H     0.96903   0.43006   0.65828   0.00000  Uiso   1.00
H355   H     0.83123   0.23831   0.59154   0.00000  Uiso   1.00
H356   H     0.85204   0.31539   0.41190   0.00000  Uiso   1.00
H357   H     0.04940   0.55871   0.78074   0.00000  Uiso   1.00
H358   H     0.75884   0.15438   0.64000   0.00000  Uiso   1.00
H359   H     0.80272   0.31693   0.26118   0.00000  Uiso   1.00
O360   O     0.04590   0.69240   0.87839   0.00000  Uiso   1.00
O361   O     0.66469   0.16193   0.69373   0.00000  Uiso   1.00
O362   O     0.72226   0.37519   0.19673   0.00000  Uiso   1.00
N363   N     0.94644   0.64700   0.81097   0.00000  Uiso   1.00
N364   N     0.67479   0.26898   0.67939   0.00000  Uiso   1.00
N365   N     0.71580   0.42094   0.32523   0.00000  Uiso   1.00
N366   N     0.01033   0.57542   0.77979   0.00000  Uiso   1.00
N367   N     0.73867   0.19740   0.64821   0.00000  Uiso   1.00
N368   N     0.77969   0.34936   0.29405   0.00000  Uiso   1.00
C369   C     0.70202   0.66329   0.46350   0.00000  Uiso   1.00
C370   C     0.73778   0.70205   0.54933   0.00000  Uiso   1.00
C371   C     0.78118   0.67607   0.58720   0.00000  Uiso   1.00
C372   C     0.80879   0.71969   0.66587   0.00000  Uiso   1.00
C373   C     0.86666   0.76969   0.79315   0.00000  Uiso   1.00
C374   C     0.71162   0.71514   0.42743   0.00000  Uiso   1.00
C375   C     0.73302   0.70015   0.36281   0.00000  Uiso   1.00
C376   C     0.73860   0.75479   0.33888   0.00000  Uiso   1.00
C377   C     0.75581   0.82507   0.27688   0.00000  Uiso   1.00
C378   C     0.63740   0.65743   0.46334   0.00000  Uiso   1.00
C379   C     0.59637   0.59392   0.42890   0.00000  Uiso   1.00
C380   C     0.53945   0.59997   0.43518   0.00000  Uiso   1.00
C381   C     0.44142   0.58065   0.42894   0.00000  Uiso   1.00
C382   C     0.67389   0.78696   0.53588   0.00000  Uiso   1.00
C383   C     0.72250   0.76923   0.58864   0.00000  Uiso   1.00
C384   C     0.75005   0.81290   0.66728   0.00000  Uiso   1.00
C385   C     0.79348   0.78699   0.70526   0.00000  Uiso   1.00
C386   C     0.69634   0.78231   0.46674   0.00000  Uiso   1.00
C387   C     0.70189   0.83698   0.44289   0.00000  Uiso   1.00
C388   C     0.72329   0.82209   0.37826   0.00000  Uiso   1.00
C389   C     0.62211   0.72460   0.50266   0.00000  Uiso   1.00
C390   C     0.56525   0.73075   0.50899   0.00000  Uiso   1.00
C391   C     0.52415   0.66727   0.47457   0.00000  Uiso   1.00
H392   H     0.71392   0.61099   0.43289   0.00000  Uiso   1.00
H393   H     0.79299   0.62408   0.55675   0.00000  Uiso   1.00
H394   H     0.74483   0.64816   0.33240   0.00000  Uiso   1.00
H395   H     0.60821   0.54195   0.39848   0.00000  Uiso   1.00
H396   H     0.87394   0.66824   0.71140   0.00000  Uiso   1.00
H397   H     0.77237   0.71899   0.23833   0.00000  Uiso   1.00
H398   H     0.48427   0.49502   0.37767   0.00000  Uiso   1.00
H399   H     0.66200   0.83926   0.56649   0.00000  Uiso   1.00
H400   H     0.73822   0.86488   0.69769   0.00000  Uiso   1.00
H401   H     0.69006   0.88896   0.47333   0.00000  Uiso   1.00
H402   H     0.55344   0.78274   0.53941   0.00000  Uiso   1.00
H403   H     0.82948   0.86368   0.82579   0.00000  Uiso   1.00
H404   H     0.72791   0.91443   0.35271   0.00000  Uiso   1.00
H405   H     0.43982   0.69046   0.49206   0.00000  Uiso   1.00
O406   O     0.90280   0.77871   0.85248   0.00000  Uiso   1.00
O407   O     0.76954   0.84529   0.23182   0.00000  Uiso   1.00
O408   O     0.39157   0.55144   0.41464   0.00000  Uiso   1.00
N409   N     0.85301   0.71071   0.72032   0.00000  Uiso   1.00
N410   N     0.75805   0.75817   0.27803   0.00000  Uiso   1.00
N411   N     0.48870   0.54877   0.40829   0.00000  Uiso   1.00
N412   N     0.82908   0.81588   0.78187   0.00000  Uiso   1.00
N413   N     0.73413   0.86334   0.33958   0.00000  Uiso   1.00
N414   N     0.46478   0.65394   0.46984   0.00000  Uiso   1.00
C415   C     0.10155   0.24347   0.08196   0.00000  Uiso   1.00
C416   C     0.12232   0.30924   0.07054   0.00000  Uiso   1.00
C417   C     0.17134   0.36229   0.11892   0.00000  Uiso   1.00
C418   C     0.18291   0.41808   0.09844   0.00000  Uiso   1.00
C419   C     0.22065   0.51983   0.09085   0.00000  Uiso   1.00
C420   C     0.03790   0.24667   0.08502   0.00000  Uiso   1.00
C421   C     0.01594   0.24711   0.14557   0.00000  Uiso   1.00
C422   C     0.95644   0.25023   0.13728   0.00000  Uiso   1.00
C423   C     0.86311   0.25478   0.15214   0.00000  Uiso   1.00
C424   C     0.09876   0.17776   0.00644   0.00000  Uiso   1.00
C425   C     0.12796   0.12024   0.00092   0.00000  Uiso   1.00
C426   C     0.11968   0.06533   0.92647   0.00000  Uiso   1.00
C427   C     0.12085   0.96289   0.81933   0.00000  Uiso   1.00
C428   C     0.03492   0.24821   0.95956   0.00000  Uiso   1.00
C429   C     0.08613   0.31181   0.00406   0.00000  Uiso   1.00
C430   C     0.09763   0.36754   0.98350   0.00000  Uiso   1.00
C431   C     0.14665   0.42066   0.03184   0.00000  Uiso   1.00
C432   C     0.00171   0.24925   0.01854   0.00000  Uiso   1.00
C433   C     0.94223   0.25236   0.01016   0.00000  Uiso   1.00
C434   C     0.92018   0.25281   0.07068   0.00000  Uiso   1.00
C435   C     0.06257   0.18033   0.93996   0.00000  Uiso   1.00
C436   C     0.05424   0.12550   0.86551   0.00000  Uiso   1.00
C437   C     0.08343   0.06791   0.85988   0.00000  Uiso   1.00
H438   H     0.12972   0.24146   0.13372   0.00000  Uiso   1.00
H439   H     0.19933   0.36028   0.17037   0.00000  Uiso   1.00
H440   H     0.04396   0.24511   0.19701   0.00000  Uiso   1.00
H441   H     0.15596   0.11827   0.05238   0.00000  Uiso   1.00
H442   H     0.26054   0.49316   0.18170   0.00000  Uiso   1.00
H443   H     0.93292   0.25029   0.23786   0.00000  Uiso   1.00
H444   H     0.16909   0.98282   0.93289   0.00000  Uiso   1.00
H445   H     0.00674   0.25022   0.90780   0.00000  Uiso   1.00
H446   H     0.06961   0.36952   0.93206   0.00000  Uiso   1.00
H447   H     0.91423   0.25435   0.95870   0.00000  Uiso   1.00
H448   H     0.02624   0.12751   0.81408   0.00000  Uiso   1.00
H449   H     0.15525   0.50066   0.98828   0.00000  Uiso   1.00
H450   H     0.82763   0.25779   0.04445   0.00000  Uiso   1.00
H451   H     0.06381   0.99032   0.73947   0.00000  Uiso   1.00
O452   O     0.25146   0.57524   0.10503   0.00000  Uiso   1.00
O453   O     0.82163   0.25659   0.17872   0.00000  Uiso   1.00
O454   O     0.13149   0.90568   0.77860   0.00000  Uiso   1.00
N455   N     0.22714   0.47854   0.13284   0.00000  Uiso   1.00
N456   N     0.92083   0.25149   0.18536   0.00000  Uiso   1.00
N457   N     0.14163   0.00141   0.90023   0.00000  Uiso   1.00
N458   N     0.17049   0.48258   0.02876   0.00000  Uiso   1.00
N459   N     0.86418   0.25552   0.08128   0.00000  Uiso   1.00
N460   N     0.08497   0.00545   0.79616   0.00000  Uiso   1.00
C461   C     0.27238   0.87516   0.91655   0.00000  Uiso   1.00
C462   C     0.31120   0.94125   0.98711   0.00000  Uiso   1.00
C463   C     0.29990   0.01129   0.01244   0.00000  Uiso   1.00
C464   C     0.34083   0.06421   0.07821   0.00000  Uiso   1.00
C465   C     0.39346   0.16936   0.18181   0.00000  Uiso   1.00
C466   C     0.31185   0.84249   0.86411   0.00000  Uiso   1.00
C467   C     0.30109   0.82949   0.78602   0.00000  Uiso   1.00
C468   C     0.34256   0.79928   0.74824   0.00000  Uiso   1.00
C469   C     0.39618   0.75105   0.66087   0.00000  Uiso   1.00
C470   C     0.25767   0.82081   0.94760   0.00000  Uiso   1.00
C471   C     0.20135   0.78955   0.93970   0.00000  Uiso   1.00
C472   C     0.19720   0.74106   0.97220   0.00000  Uiso   1.00
C473   C     0.16669   0.65917   0.01446   0.00000  Uiso   1.00
C474   C     0.36516   0.84461   0.98830   0.00000  Uiso   1.00
C475   C     0.36160   0.92465   0.02607   0.00000  Uiso   1.00
C476   C     0.40255   0.97748   0.09182   0.00000  Uiso   1.00
C477   C     0.39131   0.04759   0.11725   0.00000  Uiso   1.00
C478   C     0.36224   0.82590   0.90307   0.00000  Uiso   1.00
C479   C     0.40374   0.79569   0.86540   0.00000  Uiso   1.00
C480   C     0.39305   0.78265   0.78728   0.00000  Uiso   1.00
C481   C     0.30806   0.80421   0.98657   0.00000  Uiso   1.00
C482   C     0.30400   0.75575   0.01908   0.00000  Uiso   1.00
C483   C     0.24769   0.72443   0.01123   0.00000  Uiso   1.00
H484   H     0.23315   0.88808   0.88621   0.00000  Uiso   1.00
H485   H     0.26090   0.02411   0.98226   0.00000  Uiso   1.00
H486   H     0.26209   0.84234   0.75588   0.00000  Uiso   1.00
H487   H     0.16236   0.80241   0.90954   0.00000  Uiso   1.00
H488   H     0.31390   0.16761   0.10593   0.00000  Uiso   1.00
H489   H     0.31640   0.78431   0.62857   0.00000  Uiso   1.00
H490   H     0.10610   0.70011   0.95259   0.00000  Uiso   1.00
H491   H     0.40439   0.83168   0.01863   0.00000  Uiso   1.00
H492   H     0.44155   0.96462   0.12196   0.00000  Uiso   1.00
H493   H     0.44273   0.78285   0.89557   0.00000  Uiso   1.00
H494   H     0.34301   0.74292   0.04923   0.00000  Uiso   1.00
H495   H     0.46053   0.11933   0.21931   0.00000  Uiso   1.00
H496   H     0.46301   0.73602   0.74195   0.00000  Uiso   1.00
H497   H     0.25273   0.65182   0.06597   0.00000  Uiso   1.00
O498   O     0.40857   0.23194   0.22819   0.00000  Uiso   1.00
O499   O     0.41183   0.72905   0.60191   0.00000  Uiso   1.00
O500   O     0.13594   0.61859   0.02701   0.00000  Uiso   1.00
N501   N     0.34331   0.13800   0.11844   0.00000  Uiso   1.00
N502   N     0.34564   0.77965   0.67215   0.00000  Uiso   1.00
N503   N     0.14904   0.70091   0.97505   0.00000  Uiso   1.00
N504   N     0.42220   0.11202   0.17945   0.00000  Uiso   1.00
N505   N     0.42454   0.75366   0.73316   0.00000  Uiso   1.00
N506   N     0.22793   0.67493   0.03606   0.00000  Uiso   1.00
C507   C     0.09603   0.72718   0.18895   0.00000  Uiso   1.00
C508   C     0.13323   0.79024   0.26423   0.00000  Uiso   1.00
C509   C     0.19006   0.82321   0.27659   0.00000  Uiso   1.00
C510   C     0.21659   0.88006   0.34952   0.00000  Uiso   1.00
C511   C     0.27881   0.97447   0.45755   0.00000  Uiso   1.00
C512   C     0.07896   0.66782   0.21228   0.00000  Uiso   1.00
C513   C     0.09015   0.59786   0.18096   0.00000  Uiso   1.00
C514   C     0.07098   0.55166   0.21015   0.00000  Uiso   1.00
C515   C     0.04891   0.45599   0.23748   0.00000  Uiso   1.00
C516   C     0.03895   0.75246   0.16404   0.00000  Uiso   1.00
C517   C     0.01649   0.75365   0.09213   0.00000  Uiso   1.00
C518   C     0.96363   0.77868   0.08070   0.00000  Uiso   1.00
C519   C     0.87944   0.81443   0.03312   0.00000  Uiso   1.00
C520   C     0.04209   0.76950   0.29650   0.00000  Uiso   1.00
C521   C     0.10393   0.81323   0.32265   0.00000  Uiso   1.00
C522   C     0.13038   0.87005   0.39558   0.00000  Uiso   1.00
C523   C     0.18724   0.90310   0.40805   0.00000  Uiso   1.00
C524   C     0.04966   0.69081   0.27070   0.00000  Uiso   1.00
C525   C     0.03047   0.64469   0.29995   0.00000  Uiso   1.00
C526   C     0.04163   0.57469   0.26867   0.00000  Uiso   1.00
C527   C     0.00965   0.77545   0.22245   0.00000  Uiso   1.00
C528   C     0.95681   0.80048   0.21113   0.00000  Uiso   1.00
C529   C     0.93428   0.80171   0.13922   0.00000  Uiso   1.00
H530   H     0.11884   0.70927   0.14347   0.00000  Uiso   1.00
H531   H     0.21272   0.80540   0.23137   0.00000  Uiso   1.00
H532   H     0.11281   0.58009   0.13575   0.00000  Uiso   1.00
H533   H     0.03917   0.73585   0.04694   0.00000  Uiso   1.00
H534   H     0.30389   0.92210   0.35460   0.00000  Uiso   1.00
H535   H     0.09322   0.44700   0.15295   0.00000  Uiso   1.00
H536   H     0.93793   0.77546   0.96568   0.00000  Uiso   1.00
H537   H     0.01928   0.78740   0.34198   0.00000  Uiso   1.00
H538   H     0.10770   0.88782   0.44078   0.00000  Uiso   1.00
H539   H     0.00779   0.66250   0.34515   0.00000  Uiso   1.00
H540   H     0.93415   0.81827   0.25634   0.00000  Uiso   1.00
H541   H     0.21865   0.98900   0.52456   0.00000  Uiso   1.00
H542   H     0.00798   0.51389   0.32290   0.00000  Uiso   1.00
H543   H     0.85269   0.84235   0.13564   0.00000  Uiso   1.00
O544   O     0.32123   0.02018   0.50100   0.00000  Uiso   1.00
O545   O     0.04483   0.39687   0.23643   0.00000  Uiso   1.00
O546   O     0.84110   0.82780   0.99074   0.00000  Uiso   1.00
N547   N     0.27169   0.92407   0.38103   0.00000  Uiso   1.00
N548   N     0.07473   0.47989   0.19251   0.00000  Uiso   1.00
N549   N     0.92954   0.78695   0.01742   0.00000  Uiso   1.00
N550   N     0.22582   0.96007   0.47249   0.00000  Uiso   1.00
N551   N     0.02887   0.51588   0.28397   0.00000  Uiso   1.00
N552   N     0.88367   0.82294   0.10888   0.00000  Uiso   1.00
