data_job_05501
_audit_creation_date              2018-12-19
_audit_creation_method            'Materials Studio'
_symmetry_space_group_name_H-M    'P1'
_symmetry_Int_Tables_number       1
_symmetry_cell_setting            triclinic
loop_
_symmetry_equiv_pos_as_xyz
  x,y,z
_cell_length_a                    31.6530
_cell_length_b                    7.0152
_cell_length_c                    20.5933
_cell_angle_alpha                 90.0000
_cell_angle_beta                  83.3477
_cell_angle_gamma                 90.0000
loop_
_atom_site_label
_atom_site_type_symbol
_atom_site_fract_x
_atom_site_fract_y
_atom_site_fract_z
_atom_site_U_iso_or_equiv
_atom_site_adp_type
_atom_site_occupancy
C1     C     0.36198   0.30918   0.04228   0.00000  Uiso   1.00
C2     C     0.36988   0.23884   0.97185   0.00000  Uiso   1.00
C3     C     0.36595   0.34710   0.91647   0.00000  Uiso   1.00
C4     C     0.37458   0.25649   0.85646   0.00000  Uiso   1.00
C5     C     0.38499   0.17645   0.74778   0.00000  Uiso   1.00
C6     C     0.32847   0.17650   0.07694   0.00000  Uiso   1.00
C7     C     0.28972   0.23237   0.10992   0.00000  Uiso   1.00
C8     C     0.26349   0.08927   0.13837   0.00000  Uiso   1.00
C9     C     0.20961   0.91246   0.19287   0.00000  Uiso   1.00
C10    C     0.40287   0.26997   0.07251   0.00000  Uiso   1.00
C11    C     0.42668   0.40442   0.10178   0.00000  Uiso   1.00
C12    C     0.46309   0.34002   0.12652   0.00000  Uiso   1.00
C13    C     0.52474   0.30834   0.17414   0.00000  Uiso   1.00
C14    C     0.38429   0.95572   0.03419   0.00000  Uiso   1.00
C15    C     0.38200   0.04685   0.96746   0.00000  Uiso   1.00
C16    C     0.39064   0.95605   0.90752   0.00000  Uiso   1.00
C17    C     0.38673   0.06417   0.85206   0.00000  Uiso   1.00
C18    C     0.34059   0.98452   0.07254   0.00000  Uiso   1.00
C19    C     0.31441   0.84131   0.10096   0.00000  Uiso   1.00
C20    C     0.27563   0.89694   0.13397   0.00000  Uiso   1.00
C21    C     0.41500   0.07799   0.06811   0.00000  Uiso   1.00
C22    C     0.45137   0.01336   0.09282   0.00000  Uiso   1.00
C23    C     0.47523   0.14769   0.12212   0.00000  Uiso   1.00
H24    H     0.35254   0.45864   0.04570   0.00000  Uiso   1.00
H25    H     0.35657   0.49567   0.91990   0.00000  Uiso   1.00
H26    H     0.28035   0.38094   0.11331   0.00000  Uiso   1.00
H27    H     0.41729   0.55297   0.10517   0.00000  Uiso   1.00
H28    H     0.36637   0.45204   0.77847   0.00000  Uiso   1.00
H29    H     0.20566   0.21015   0.18633   0.00000  Uiso   1.00
H30    H     0.49442   0.57291   0.16916   0.00000  Uiso   1.00
H31    H     0.39373   0.80625   0.03077   0.00000  Uiso   1.00
H32    H     0.40002   0.80748   0.90414   0.00000  Uiso   1.00
H33    H     0.32380   0.69276   0.09756   0.00000  Uiso   1.00
H34    H     0.46074   0.86479   0.08941   0.00000  Uiso   1.00
H35    H     0.40163   0.89348   0.76568   0.00000  Uiso   1.00
H36    H     0.24093   0.65159   0.17354   0.00000  Uiso   1.00
H37    H     0.52969   0.01434   0.15636   0.00000  Uiso   1.00
O38    O     0.38738   0.18532   0.68905   0.00000  Uiso   1.00
O39    O     0.17655   0.86798   0.22414   0.00000  Uiso   1.00
O40    O     0.55540   0.34391   0.20161   0.00000  Uiso   1.00
N41    N     0.37381   0.32043   0.79284   0.00000  Uiso   1.00
N42    N     0.22356   0.09427   0.17415   0.00000  Uiso   1.00
N43    N     0.49352   0.43341   0.15811   0.00000  Uiso   1.00
N44    N     0.39279   0.01987   0.78596   0.00000  Uiso   1.00
N45    N     0.24254   0.79371   0.16727   0.00000  Uiso   1.00
N46    N     0.51250   0.13285   0.15123   0.00000  Uiso   1.00
C47    C     0.86198   0.80918   0.04228   0.00000  Uiso   1.00
C48    C     0.86988   0.73884   0.97185   0.00000  Uiso   1.00
C49    C     0.86595   0.84710   0.91647   0.00000  Uiso   1.00
C50    C     0.87458   0.75649   0.85646   0.00000  Uiso   1.00
C51    C     0.88499   0.67645   0.74778   0.00000  Uiso   1.00
C52    C     0.82847   0.67650   0.07694   0.00000  Uiso   1.00
C53    C     0.78972   0.73237   0.10992   0.00000  Uiso   1.00
C54    C     0.76349   0.58927   0.13837   0.00000  Uiso   1.00
C55    C     0.70961   0.41246   0.19287   0.00000  Uiso   1.00
C56    C     0.90287   0.76997   0.07251   0.00000  Uiso   1.00
C57    C     0.92668   0.90442   0.10178   0.00000  Uiso   1.00
C58    C     0.96309   0.84002   0.12652   0.00000  Uiso   1.00
C59    C     0.02474   0.80834   0.17414   0.00000  Uiso   1.00
C60    C     0.88429   0.45572   0.03419   0.00000  Uiso   1.00
C61    C     0.88200   0.54685   0.96746   0.00000  Uiso   1.00
C62    C     0.89064   0.45605   0.90752   0.00000  Uiso   1.00
C63    C     0.88673   0.56417   0.85206   0.00000  Uiso   1.00
C64    C     0.84059   0.48452   0.07254   0.00000  Uiso   1.00
C65    C     0.81441   0.34131   0.10096   0.00000  Uiso   1.00
C66    C     0.77563   0.39694   0.13397   0.00000  Uiso   1.00
C67    C     0.91500   0.57799   0.06811   0.00000  Uiso   1.00
C68    C     0.95137   0.51336   0.09282   0.00000  Uiso   1.00
C69    C     0.97523   0.64769   0.12212   0.00000  Uiso   1.00
H70    H     0.85254   0.95864   0.04570   0.00000  Uiso   1.00
H71    H     0.85657   0.99567   0.91990   0.00000  Uiso   1.00
H72    H     0.78035   0.88094   0.11331   0.00000  Uiso   1.00
H73    H     0.91729   0.05297   0.10517   0.00000  Uiso   1.00
H74    H     0.86637   0.95204   0.77847   0.00000  Uiso   1.00
H75    H     0.70566   0.71015   0.18633   0.00000  Uiso   1.00
H76    H     0.99442   0.07291   0.16916   0.00000  Uiso   1.00
H77    H     0.89373   0.30625   0.03077   0.00000  Uiso   1.00
H78    H     0.90002   0.30748   0.90414   0.00000  Uiso   1.00
H79    H     0.82380   0.19276   0.09756   0.00000  Uiso   1.00
H80    H     0.96074   0.36479   0.08941   0.00000  Uiso   1.00
H81    H     0.90163   0.39348   0.76568   0.00000  Uiso   1.00
H82    H     0.74093   0.15159   0.17354   0.00000  Uiso   1.00
H83    H     0.02969   0.51434   0.15636   0.00000  Uiso   1.00
O84    O     0.88738   0.68532   0.68905   0.00000  Uiso   1.00
O85    O     0.67655   0.36798   0.22414   0.00000  Uiso   1.00
O86    O     0.05540   0.84391   0.20161   0.00000  Uiso   1.00
N87    N     0.87381   0.82043   0.79284   0.00000  Uiso   1.00
N88    N     0.72356   0.59427   0.17415   0.00000  Uiso   1.00
N89    N     0.99352   0.93341   0.15811   0.00000  Uiso   1.00
N90    N     0.89279   0.51987   0.78596   0.00000  Uiso   1.00
N91    N     0.74254   0.29371   0.16727   0.00000  Uiso   1.00
N92    N     0.01250   0.63285   0.15123   0.00000  Uiso   1.00
C93    C     0.63802   0.30918   0.45772   0.00000  Uiso   1.00
C94    C     0.63012   0.23884   0.52815   0.00000  Uiso   1.00
C95    C     0.63405   0.34710   0.58353   0.00000  Uiso   1.00
C96    C     0.62542   0.25649   0.64354   0.00000  Uiso   1.00
C97    C     0.61501   0.17645   0.75222   0.00000  Uiso   1.00
C98    C     0.67153   0.17650   0.42306   0.00000  Uiso   1.00
C99    C     0.71028   0.23237   0.39008   0.00000  Uiso   1.00
C100   C     0.73651   0.08927   0.36163   0.00000  Uiso   1.00
C101   C     0.79039   0.91246   0.30713   0.00000  Uiso   1.00
C102   C     0.59713   0.26997   0.42749   0.00000  Uiso   1.00
C103   C     0.57332   0.40442   0.39822   0.00000  Uiso   1.00
C104   C     0.53691   0.34002   0.37348   0.00000  Uiso   1.00
C105   C     0.47526   0.30834   0.32586   0.00000  Uiso   1.00
C106   C     0.61571   0.95572   0.46581   0.00000  Uiso   1.00
C107   C     0.61800   0.04685   0.53254   0.00000  Uiso   1.00
C108   C     0.60936   0.95605   0.59248   0.00000  Uiso   1.00
C109   C     0.61327   0.06417   0.64794   0.00000  Uiso   1.00
C110   C     0.65941   0.98452   0.42746   0.00000  Uiso   1.00
C111   C     0.68559   0.84131   0.39904   0.00000  Uiso   1.00
C112   C     0.72437   0.89694   0.36603   0.00000  Uiso   1.00
C113   C     0.58500   0.07799   0.43189   0.00000  Uiso   1.00
C114   C     0.54863   0.01336   0.40718   0.00000  Uiso   1.00
C115   C     0.52477   0.14769   0.37788   0.00000  Uiso   1.00
H116   H     0.64746   0.45864   0.45430   0.00000  Uiso   1.00
H117   H     0.64343   0.49567   0.58010   0.00000  Uiso   1.00
H118   H     0.71965   0.38094   0.38669   0.00000  Uiso   1.00
H119   H     0.58271   0.55297   0.39483   0.00000  Uiso   1.00
H120   H     0.63363   0.45204   0.72153   0.00000  Uiso   1.00
H121   H     0.79434   0.21015   0.31367   0.00000  Uiso   1.00
H122   H     0.50558   0.57291   0.33084   0.00000  Uiso   1.00
H123   H     0.60627   0.80625   0.46923   0.00000  Uiso   1.00
H124   H     0.59998   0.80748   0.59586   0.00000  Uiso   1.00
H125   H     0.67620   0.69276   0.40244   0.00000  Uiso   1.00
H126   H     0.53926   0.86479   0.41059   0.00000  Uiso   1.00
H127   H     0.59837   0.89348   0.73432   0.00000  Uiso   1.00
H128   H     0.75907   0.65159   0.32646   0.00000  Uiso   1.00
H129   H     0.47031   0.01434   0.34364   0.00000  Uiso   1.00
O130   O     0.61262   0.18532   0.81095   0.00000  Uiso   1.00
O131   O     0.82345   0.86798   0.27586   0.00000  Uiso   1.00
O132   O     0.44460   0.34391   0.29839   0.00000  Uiso   1.00
N133   N     0.62619   0.32043   0.70716   0.00000  Uiso   1.00
N134   N     0.77644   0.09427   0.32585   0.00000  Uiso   1.00
N135   N     0.50648   0.43341   0.34189   0.00000  Uiso   1.00
N136   N     0.60721   0.01987   0.71404   0.00000  Uiso   1.00
N137   N     0.75746   0.79371   0.33273   0.00000  Uiso   1.00
N138   N     0.48750   0.13285   0.34877   0.00000  Uiso   1.00
C139   C     0.13802   0.80918   0.45772   0.00000  Uiso   1.00
C140   C     0.13012   0.73884   0.52815   0.00000  Uiso   1.00
C141   C     0.13405   0.84710   0.58353   0.00000  Uiso   1.00
C142   C     0.12542   0.75649   0.64354   0.00000  Uiso   1.00
C143   C     0.11501   0.67645   0.75222   0.00000  Uiso   1.00
C144   C     0.17153   0.67650   0.42306   0.00000  Uiso   1.00
C145   C     0.21028   0.73237   0.39008   0.00000  Uiso   1.00
C146   C     0.23651   0.58927   0.36163   0.00000  Uiso   1.00
C147   C     0.29039   0.41246   0.30713   0.00000  Uiso   1.00
C148   C     0.09713   0.76997   0.42749   0.00000  Uiso   1.00
C149   C     0.07332   0.90442   0.39822   0.00000  Uiso   1.00
C150   C     0.03691   0.84002   0.37348   0.00000  Uiso   1.00
C151   C     0.97526   0.80834   0.32586   0.00000  Uiso   1.00
C152   C     0.11571   0.45572   0.46581   0.00000  Uiso   1.00
C153   C     0.11800   0.54685   0.53254   0.00000  Uiso   1.00
C154   C     0.10936   0.45605   0.59248   0.00000  Uiso   1.00
C155   C     0.11327   0.56417   0.64794   0.00000  Uiso   1.00
C156   C     0.15941   0.48452   0.42746   0.00000  Uiso   1.00
C157   C     0.18559   0.34131   0.39904   0.00000  Uiso   1.00
C158   C     0.22437   0.39694   0.36603   0.00000  Uiso   1.00
C159   C     0.08500   0.57799   0.43189   0.00000  Uiso   1.00
C160   C     0.04863   0.51336   0.40718   0.00000  Uiso   1.00
C161   C     0.02477   0.64769   0.37788   0.00000  Uiso   1.00
H162   H     0.14746   0.95864   0.45430   0.00000  Uiso   1.00
H163   H     0.14343   0.99567   0.58010   0.00000  Uiso   1.00
H164   H     0.21965   0.88094   0.38669   0.00000  Uiso   1.00
H165   H     0.08271   0.05297   0.39483   0.00000  Uiso   1.00
H166   H     0.13363   0.95204   0.72153   0.00000  Uiso   1.00
H167   H     0.29434   0.71015   0.31367   0.00000  Uiso   1.00
H168   H     0.00558   0.07291   0.33084   0.00000  Uiso   1.00
H169   H     0.10627   0.30625   0.46923   0.00000  Uiso   1.00
H170   H     0.09998   0.30748   0.59586   0.00000  Uiso   1.00
H171   H     0.17620   0.19276   0.40244   0.00000  Uiso   1.00
H172   H     0.03926   0.36479   0.41059   0.00000  Uiso   1.00
H173   H     0.09837   0.39348   0.73432   0.00000  Uiso   1.00
H174   H     0.25907   0.15159   0.32646   0.00000  Uiso   1.00
H175   H     0.97031   0.51434   0.34364   0.00000  Uiso   1.00
O176   O     0.11262   0.68532   0.81095   0.00000  Uiso   1.00
O177   O     0.32345   0.36798   0.27586   0.00000  Uiso   1.00
O178   O     0.94460   0.84391   0.29839   0.00000  Uiso   1.00
N179   N     0.12619   0.82043   0.70716   0.00000  Uiso   1.00
N180   N     0.27644   0.59427   0.32585   0.00000  Uiso   1.00
N181   N     0.00648   0.93341   0.34189   0.00000  Uiso   1.00
N182   N     0.10721   0.51987   0.71404   0.00000  Uiso   1.00
N183   N     0.25746   0.29371   0.33273   0.00000  Uiso   1.00
N184   N     0.98750   0.63285   0.34877   0.00000  Uiso   1.00
C185   C     0.63802   0.69082   0.95772   0.00000  Uiso   1.00
C186   C     0.63012   0.76116   0.02815   0.00000  Uiso   1.00
C187   C     0.63405   0.65290   0.08353   0.00000  Uiso   1.00
C188   C     0.62542   0.74351   0.14354   0.00000  Uiso   1.00
C189   C     0.61501   0.82355   0.25222   0.00000  Uiso   1.00
C190   C     0.67153   0.82350   0.92306   0.00000  Uiso   1.00
C191   C     0.71028   0.76763   0.89008   0.00000  Uiso   1.00
C192   C     0.73651   0.91073   0.86163   0.00000  Uiso   1.00
C193   C     0.79039   0.08754   0.80713   0.00000  Uiso   1.00
C194   C     0.59713   0.73003   0.92749   0.00000  Uiso   1.00
C195   C     0.57332   0.59558   0.89822   0.00000  Uiso   1.00
C196   C     0.53691   0.65998   0.87348   0.00000  Uiso   1.00
C197   C     0.47526   0.69166   0.82586   0.00000  Uiso   1.00
C198   C     0.61571   0.04428   0.96581   0.00000  Uiso   1.00
C199   C     0.61800   0.95315   0.03254   0.00000  Uiso   1.00
C200   C     0.60936   0.04395   0.09248   0.00000  Uiso   1.00
C201   C     0.61327   0.93583   0.14794   0.00000  Uiso   1.00
C202   C     0.65941   0.01548   0.92746   0.00000  Uiso   1.00
C203   C     0.68559   0.15869   0.89904   0.00000  Uiso   1.00
C204   C     0.72437   0.10306   0.86603   0.00000  Uiso   1.00
C205   C     0.58500   0.92201   0.93189   0.00000  Uiso   1.00
C206   C     0.54863   0.98664   0.90718   0.00000  Uiso   1.00
C207   C     0.52477   0.85231   0.87788   0.00000  Uiso   1.00
H208   H     0.64746   0.54136   0.95430   0.00000  Uiso   1.00
H209   H     0.64343   0.50433   0.08010   0.00000  Uiso   1.00
H210   H     0.71965   0.61906   0.88669   0.00000  Uiso   1.00
H211   H     0.58271   0.44703   0.89483   0.00000  Uiso   1.00
H212   H     0.63363   0.54796   0.22153   0.00000  Uiso   1.00
H213   H     0.79434   0.78985   0.81367   0.00000  Uiso   1.00
H214   H     0.50558   0.42709   0.83084   0.00000  Uiso   1.00
H215   H     0.60627   0.19375   0.96923   0.00000  Uiso   1.00
H216   H     0.59998   0.19252   0.09586   0.00000  Uiso   1.00
H217   H     0.67620   0.30724   0.90244   0.00000  Uiso   1.00
H218   H     0.53926   0.13521   0.91059   0.00000  Uiso   1.00
H219   H     0.59837   0.10652   0.23432   0.00000  Uiso   1.00
H220   H     0.75907   0.34841   0.82646   0.00000  Uiso   1.00
H221   H     0.47031   0.98566   0.84364   0.00000  Uiso   1.00
O222   O     0.61262   0.81468   0.31095   0.00000  Uiso   1.00
O223   O     0.82345   0.13202   0.77586   0.00000  Uiso   1.00
O224   O     0.44460   0.65609   0.79839   0.00000  Uiso   1.00
N225   N     0.62619   0.67957   0.20716   0.00000  Uiso   1.00
N226   N     0.77644   0.90573   0.82585   0.00000  Uiso   1.00
N227   N     0.50648   0.56659   0.84189   0.00000  Uiso   1.00
N228   N     0.60721   0.98013   0.21404   0.00000  Uiso   1.00
N229   N     0.75746   0.20629   0.83273   0.00000  Uiso   1.00
N230   N     0.48750   0.86715   0.84877   0.00000  Uiso   1.00
C231   C     0.13802   0.19082   0.95772   0.00000  Uiso   1.00
C232   C     0.13012   0.26116   0.02815   0.00000  Uiso   1.00
C233   C     0.13405   0.15290   0.08353   0.00000  Uiso   1.00
C234   C     0.12542   0.24351   0.14354   0.00000  Uiso   1.00
C235   C     0.11501   0.32355   0.25222   0.00000  Uiso   1.00
C236   C     0.17153   0.32350   0.92306   0.00000  Uiso   1.00
C237   C     0.21028   0.26763   0.89008   0.00000  Uiso   1.00
C238   C     0.23651   0.41073   0.86163   0.00000  Uiso   1.00
C239   C     0.29039   0.58754   0.80713   0.00000  Uiso   1.00
C240   C     0.09713   0.23003   0.92749   0.00000  Uiso   1.00
C241   C     0.07332   0.09558   0.89822   0.00000  Uiso   1.00
C242   C     0.03691   0.15998   0.87348   0.00000  Uiso   1.00
C243   C     0.97526   0.19166   0.82586   0.00000  Uiso   1.00
C244   C     0.11571   0.54428   0.96581   0.00000  Uiso   1.00
C245   C     0.11800   0.45315   0.03254   0.00000  Uiso   1.00
C246   C     0.10936   0.54395   0.09248   0.00000  Uiso   1.00
C247   C     0.11327   0.43583   0.14794   0.00000  Uiso   1.00
C248   C     0.15941   0.51548   0.92746   0.00000  Uiso   1.00
C249   C     0.18559   0.65869   0.89904   0.00000  Uiso   1.00
C250   C     0.22437   0.60306   0.86603   0.00000  Uiso   1.00
C251   C     0.08500   0.42201   0.93189   0.00000  Uiso   1.00
C252   C     0.04863   0.48664   0.90718   0.00000  Uiso   1.00
C253   C     0.02477   0.35231   0.87788   0.00000  Uiso   1.00
H254   H     0.14746   0.04136   0.95430   0.00000  Uiso   1.00
H255   H     0.14343   0.00433   0.08010   0.00000  Uiso   1.00
H256   H     0.21965   0.11906   0.88669   0.00000  Uiso   1.00
H257   H     0.08271   0.94703   0.89483   0.00000  Uiso   1.00
H258   H     0.13363   0.04796   0.22153   0.00000  Uiso   1.00
H259   H     0.29434   0.28985   0.81367   0.00000  Uiso   1.00
H260   H     0.00558   0.92709   0.83084   0.00000  Uiso   1.00
H261   H     0.10627   0.69375   0.96923   0.00000  Uiso   1.00
H262   H     0.09998   0.69252   0.09586   0.00000  Uiso   1.00
H263   H     0.17620   0.80724   0.90244   0.00000  Uiso   1.00
H264   H     0.03926   0.63521   0.91059   0.00000  Uiso   1.00
H265   H     0.09837   0.60652   0.23432   0.00000  Uiso   1.00
H266   H     0.25907   0.84841   0.82646   0.00000  Uiso   1.00
H267   H     0.97031   0.48566   0.84364   0.00000  Uiso   1.00
O268   O     0.11262   0.31468   0.31095   0.00000  Uiso   1.00
O269   O     0.32345   0.63202   0.77586   0.00000  Uiso   1.00
O270   O     0.94460   0.15609   0.79839   0.00000  Uiso   1.00
N271   N     0.12619   0.17957   0.20716   0.00000  Uiso   1.00
N272   N     0.27644   0.40573   0.82585   0.00000  Uiso   1.00
N273   N     0.00648   0.06659   0.84189   0.00000  Uiso   1.00
N274   N     0.10721   0.48013   0.21404   0.00000  Uiso   1.00
N275   N     0.25746   0.70629   0.83273   0.00000  Uiso   1.00
N276   N     0.98750   0.36715   0.84877   0.00000  Uiso   1.00
C277   C     0.36198   0.69082   0.54228   0.00000  Uiso   1.00
C278   C     0.36988   0.76116   0.47185   0.00000  Uiso   1.00
C279   C     0.36595   0.65290   0.41647   0.00000  Uiso   1.00
C280   C     0.37458   0.74351   0.35646   0.00000  Uiso   1.00
C281   C     0.38499   0.82355   0.24778   0.00000  Uiso   1.00
C282   C     0.32847   0.82350   0.57694   0.00000  Uiso   1.00
C283   C     0.28972   0.76763   0.60992   0.00000  Uiso   1.00
C284   C     0.26349   0.91073   0.63837   0.00000  Uiso   1.00
C285   C     0.20961   0.08754   0.69287   0.00000  Uiso   1.00
C286   C     0.40287   0.73003   0.57251   0.00000  Uiso   1.00
C287   C     0.42668   0.59558   0.60178   0.00000  Uiso   1.00
C288   C     0.46309   0.65998   0.62652   0.00000  Uiso   1.00
C289   C     0.52474   0.69166   0.67414   0.00000  Uiso   1.00
C290   C     0.38429   0.04428   0.53419   0.00000  Uiso   1.00
C291   C     0.38200   0.95315   0.46746   0.00000  Uiso   1.00
C292   C     0.39064   0.04395   0.40752   0.00000  Uiso   1.00
C293   C     0.38673   0.93583   0.35206   0.00000  Uiso   1.00
C294   C     0.34059   0.01548   0.57254   0.00000  Uiso   1.00
C295   C     0.31441   0.15869   0.60096   0.00000  Uiso   1.00
C296   C     0.27563   0.10306   0.63397   0.00000  Uiso   1.00
C297   C     0.41500   0.92201   0.56811   0.00000  Uiso   1.00
C298   C     0.45137   0.98664   0.59282   0.00000  Uiso   1.00
C299   C     0.47523   0.85231   0.62212   0.00000  Uiso   1.00
H300   H     0.35254   0.54136   0.54570   0.00000  Uiso   1.00
H301   H     0.35657   0.50433   0.41990   0.00000  Uiso   1.00
H302   H     0.28035   0.61906   0.61331   0.00000  Uiso   1.00
H303   H     0.41729   0.44703   0.60517   0.00000  Uiso   1.00
H304   H     0.36637   0.54796   0.27847   0.00000  Uiso   1.00
H305   H     0.20566   0.78985   0.68633   0.00000  Uiso   1.00
H306   H     0.49442   0.42709   0.66916   0.00000  Uiso   1.00
H307   H     0.39373   0.19375   0.53077   0.00000  Uiso   1.00
H308   H     0.40002   0.19252   0.40414   0.00000  Uiso   1.00
H309   H     0.32380   0.30724   0.59756   0.00000  Uiso   1.00
H310   H     0.46074   0.13521   0.58941   0.00000  Uiso   1.00
H311   H     0.40163   0.10652   0.26568   0.00000  Uiso   1.00
H312   H     0.24093   0.34841   0.67354   0.00000  Uiso   1.00
H313   H     0.52969   0.98566   0.65636   0.00000  Uiso   1.00
O314   O     0.38738   0.81468   0.18905   0.00000  Uiso   1.00
O315   O     0.17655   0.13202   0.72414   0.00000  Uiso   1.00
O316   O     0.55540   0.65609   0.70161   0.00000  Uiso   1.00
N317   N     0.37381   0.67957   0.29284   0.00000  Uiso   1.00
N318   N     0.22356   0.90573   0.67415   0.00000  Uiso   1.00
N319   N     0.49352   0.56659   0.65811   0.00000  Uiso   1.00
N320   N     0.39279   0.98013   0.28596   0.00000  Uiso   1.00
N321   N     0.24254   0.20629   0.66727   0.00000  Uiso   1.00
N322   N     0.51250   0.86715   0.65123   0.00000  Uiso   1.00
C323   C     0.86198   0.19082   0.54228   0.00000  Uiso   1.00
C324   C     0.86988   0.26116   0.47185   0.00000  Uiso   1.00
C325   C     0.86595   0.15290   0.41647   0.00000  Uiso   1.00
C326   C     0.87458   0.24351   0.35646   0.00000  Uiso   1.00
C327   C     0.88499   0.32355   0.24778   0.00000  Uiso   1.00
C328   C     0.82847   0.32350   0.57694   0.00000  Uiso   1.00
C329   C     0.78972   0.26763   0.60992   0.00000  Uiso   1.00
C330   C     0.76349   0.41073   0.63837   0.00000  Uiso   1.00
C331   C     0.70961   0.58754   0.69287   0.00000  Uiso   1.00
C332   C     0.90287   0.23003   0.57251   0.00000  Uiso   1.00
C333   C     0.92668   0.09558   0.60178   0.00000  Uiso   1.00
C334   C     0.96309   0.15998   0.62652   0.00000  Uiso   1.00
C335   C     0.02474   0.19166   0.67414   0.00000  Uiso   1.00
C336   C     0.88429   0.54428   0.53419   0.00000  Uiso   1.00
C337   C     0.88200   0.45315   0.46746   0.00000  Uiso   1.00
C338   C     0.89064   0.54395   0.40752   0.00000  Uiso   1.00
C339   C     0.88673   0.43583   0.35206   0.00000  Uiso   1.00
C340   C     0.84059   0.51548   0.57254   0.00000  Uiso   1.00
C341   C     0.81441   0.65869   0.60096   0.00000  Uiso   1.00
C342   C     0.77563   0.60306   0.63397   0.00000  Uiso   1.00
C343   C     0.91500   0.42201   0.56811   0.00000  Uiso   1.00
C344   C     0.95137   0.48664   0.59282   0.00000  Uiso   1.00
C345   C     0.97523   0.35231   0.62212   0.00000  Uiso   1.00
H346   H     0.85254   0.04136   0.54570   0.00000  Uiso   1.00
H347   H     0.85657   0.00433   0.41990   0.00000  Uiso   1.00
H348   H     0.78035   0.11906   0.61331   0.00000  Uiso   1.00
H349   H     0.91729   0.94703   0.60517   0.00000  Uiso   1.00
H350   H     0.86637   0.04796   0.27847   0.00000  Uiso   1.00
H351   H     0.70566   0.28985   0.68633   0.00000  Uiso   1.00
H352   H     0.99442   0.92709   0.66916   0.00000  Uiso   1.00
H353   H     0.89373   0.69375   0.53077   0.00000  Uiso   1.00
H354   H     0.90002   0.69252   0.40414   0.00000  Uiso   1.00
H355   H     0.82380   0.80724   0.59756   0.00000  Uiso   1.00
H356   H     0.96074   0.63521   0.58941   0.00000  Uiso   1.00
H357   H     0.90163   0.60652   0.26568   0.00000  Uiso   1.00
H358   H     0.74093   0.84841   0.67354   0.00000  Uiso   1.00
H359   H     0.02969   0.48566   0.65636   0.00000  Uiso   1.00
O360   O     0.88738   0.31468   0.18905   0.00000  Uiso   1.00
O361   O     0.67655   0.63202   0.72414   0.00000  Uiso   1.00
O362   O     0.05540   0.15609   0.70161   0.00000  Uiso   1.00
N363   N     0.87381   0.17957   0.29284   0.00000  Uiso   1.00
N364   N     0.72356   0.40573   0.67415   0.00000  Uiso   1.00
N365   N     0.99352   0.06659   0.65811   0.00000  Uiso   1.00
N366   N     0.89279   0.48013   0.28596   0.00000  Uiso   1.00
N367   N     0.74254   0.70629   0.66727   0.00000  Uiso   1.00
N368   N     0.01250   0.36715   0.65123   0.00000  Uiso   1.00
