data_job_00682
_audit_creation_date              2018-12-19
_audit_creation_method            'Materials Studio'
_symmetry_space_group_name_H-M    'P1'
_symmetry_Int_Tables_number       1
_symmetry_cell_setting            triclinic
loop_
_symmetry_equiv_pos_as_xyz
  x,y,z
_cell_length_a                    23.7999
_cell_length_b                    17.1547
_cell_length_c                    12.5969
_cell_angle_alpha                 90.0000
_cell_angle_beta                  114.2401
_cell_angle_gamma                 90.0000
loop_
_atom_site_label
_atom_site_type_symbol
_atom_site_fract_x
_atom_site_fract_y
_atom_site_fract_z
_atom_site_U_iso_or_equiv
_atom_site_adp_type
_atom_site_occupancy
C1     C     0.29149   0.60748   0.67929   0.00000  Uiso   1.00
C2     C     0.31712   0.52831   0.73206   0.00000  Uiso   1.00
C3     C     0.35604   0.48190   0.70187   0.00000  Uiso   1.00
C4     C     0.37435   0.41146   0.76026   0.00000  Uiso   1.00
C5     C     0.41716   0.29204   0.82916   0.00000  Uiso   1.00
C6     C     0.22157   0.60052   0.63264   0.00000  Uiso   1.00
C7     C     0.18016   0.61483   0.51885   0.00000  Uiso   1.00
C8     C     0.11804   0.60519   0.49355   0.00000  Uiso   1.00
C9     C     0.01251   0.59793   0.40811   0.00000  Uiso   1.00
C10    C     0.31063   0.66444   0.78102   0.00000  Uiso   1.00
C11    C     0.34408   0.73251   0.79199   0.00000  Uiso   1.00
C12    C     0.35692   0.77670   0.89161   0.00000  Uiso   1.00
C13    C     0.38966   0.86867   0.03655   0.00000  Uiso   1.00
C14    C     0.25481   0.56493   0.83669   0.00000  Uiso   1.00
C15    C     0.29719   0.50520   0.81756   0.00000  Uiso   1.00
C16    C     0.31545   0.43482   0.87601   0.00000  Uiso   1.00
C17    C     0.35439   0.38831   0.84591   0.00000  Uiso   1.00
C18    C     0.20165   0.57741   0.71813   0.00000  Uiso   1.00
C19    C     0.13958   0.56776   0.69299   0.00000  Uiso   1.00
C20    C     0.09808   0.58204   0.57920   0.00000  Uiso   1.00
C21    C     0.29070   0.64133   0.86652   0.00000  Uiso   1.00
C22    C     0.30350   0.68543   0.96613   0.00000  Uiso   1.00
C23    C     0.33696   0.75354   0.97725   0.00000  Uiso   1.00
H24    H     0.30700   0.62547   0.61273   0.00000  Uiso   1.00
H25    H     0.37144   0.49980   0.63570   0.00000  Uiso   1.00
H26    H     0.19559   0.63272   0.45271   0.00000  Uiso   1.00
H27    H     0.35949   0.75037   0.72581   0.00000  Uiso   1.00
H28    H     0.43409   0.35026   0.69884   0.00000  Uiso   1.00
H29    H     0.06330   0.63056   0.31301   0.00000  Uiso   1.00
H30    H     0.40890   0.87866   0.88889   0.00000  Uiso   1.00
H31    H     0.23929   0.54694   0.90325   0.00000  Uiso   1.00
H32    H     0.30003   0.41695   0.94217   0.00000  Uiso   1.00
H33    H     0.12418   0.54988   0.75918   0.00000  Uiso   1.00
H34    H     0.28807   0.66753   0.03228   0.00000  Uiso   1.00
H35    H     0.37612   0.28302   0.94757   0.00000  Uiso   1.00
H36    H     0.00533   0.56333   0.56175   0.00000  Uiso   1.00
H37    H     0.35093   0.81142   0.13763   0.00000  Uiso   1.00
O38    O     0.44626   0.23254   0.84354   0.00000  Uiso   1.00
O39    O     0.95980   0.60030   0.33736   0.00000  Uiso   1.00
O40    O     0.41323   0.92579   0.09289   0.00000  Uiso   1.00
N41    N     0.41212   0.35228   0.75205   0.00000  Uiso   1.00
N42    N     0.06546   0.61434   0.39132   0.00000  Uiso   1.00
N43    N     0.38855   0.84629   0.92971   0.00000  Uiso   1.00
N44    N     0.38093   0.31610   0.88590   0.00000  Uiso   1.00
N45    N     0.03427   0.57815   0.52517   0.00000  Uiso   1.00
N46    N     0.35736   0.81011   0.06355   0.00000  Uiso   1.00
C47    C     0.79149   0.10748   0.67929   0.00000  Uiso   1.00
C48    C     0.81712   0.02831   0.73206   0.00000  Uiso   1.00
C49    C     0.85604   0.98190   0.70187   0.00000  Uiso   1.00
C50    C     0.87435   0.91146   0.76026   0.00000  Uiso   1.00
C51    C     0.91716   0.79204   0.82916   0.00000  Uiso   1.00
C52    C     0.72157   0.10052   0.63264   0.00000  Uiso   1.00
C53    C     0.68016   0.11483   0.51885   0.00000  Uiso   1.00
C54    C     0.61804   0.10519   0.49355   0.00000  Uiso   1.00
C55    C     0.51251   0.09793   0.40811   0.00000  Uiso   1.00
C56    C     0.81063   0.16444   0.78102   0.00000  Uiso   1.00
C57    C     0.84408   0.23251   0.79199   0.00000  Uiso   1.00
C58    C     0.85692   0.27670   0.89161   0.00000  Uiso   1.00
C59    C     0.88966   0.36867   0.03655   0.00000  Uiso   1.00
C60    C     0.75481   0.06493   0.83669   0.00000  Uiso   1.00
C61    C     0.79719   0.00520   0.81756   0.00000  Uiso   1.00
C62    C     0.81545   0.93482   0.87601   0.00000  Uiso   1.00
C63    C     0.85439   0.88831   0.84591   0.00000  Uiso   1.00
C64    C     0.70165   0.07741   0.71813   0.00000  Uiso   1.00
C65    C     0.63958   0.06776   0.69299   0.00000  Uiso   1.00
C66    C     0.59808   0.08204   0.57920   0.00000  Uiso   1.00
C67    C     0.79070   0.14133   0.86652   0.00000  Uiso   1.00
C68    C     0.80350   0.18543   0.96613   0.00000  Uiso   1.00
C69    C     0.83696   0.25354   0.97725   0.00000  Uiso   1.00
H70    H     0.80700   0.12547   0.61273   0.00000  Uiso   1.00
H71    H     0.87144   0.99980   0.63570   0.00000  Uiso   1.00
H72    H     0.69559   0.13272   0.45271   0.00000  Uiso   1.00
H73    H     0.85949   0.25037   0.72581   0.00000  Uiso   1.00
H74    H     0.93409   0.85026   0.69884   0.00000  Uiso   1.00
H75    H     0.56330   0.13056   0.31301   0.00000  Uiso   1.00
H76    H     0.90890   0.37866   0.88889   0.00000  Uiso   1.00
H77    H     0.73929   0.04694   0.90325   0.00000  Uiso   1.00
H78    H     0.80003   0.91695   0.94217   0.00000  Uiso   1.00
H79    H     0.62418   0.04988   0.75918   0.00000  Uiso   1.00
H80    H     0.78807   0.16753   0.03228   0.00000  Uiso   1.00
H81    H     0.87612   0.78302   0.94757   0.00000  Uiso   1.00
H82    H     0.50533   0.06333   0.56175   0.00000  Uiso   1.00
H83    H     0.85093   0.31142   0.13763   0.00000  Uiso   1.00
O84    O     0.94626   0.73254   0.84354   0.00000  Uiso   1.00
O85    O     0.45980   0.10030   0.33736   0.00000  Uiso   1.00
O86    O     0.91323   0.42579   0.09289   0.00000  Uiso   1.00
N87    N     0.91212   0.85228   0.75205   0.00000  Uiso   1.00
N88    N     0.56546   0.11434   0.39132   0.00000  Uiso   1.00
N89    N     0.88855   0.34629   0.92971   0.00000  Uiso   1.00
N90    N     0.88093   0.81610   0.88590   0.00000  Uiso   1.00
N91    N     0.53427   0.07815   0.52517   0.00000  Uiso   1.00
N92    N     0.85736   0.31011   0.06355   0.00000  Uiso   1.00
C93    C     0.70851   0.60748   0.82071   0.00000  Uiso   1.00
C94    C     0.68288   0.52831   0.76794   0.00000  Uiso   1.00
C95    C     0.64396   0.48190   0.79813   0.00000  Uiso   1.00
C96    C     0.62565   0.41146   0.73974   0.00000  Uiso   1.00
C97    C     0.58284   0.29204   0.67084   0.00000  Uiso   1.00
C98    C     0.77843   0.60052   0.86736   0.00000  Uiso   1.00
C99    C     0.81984   0.61483   0.98115   0.00000  Uiso   1.00
C100   C     0.88196   0.60519   0.00645   0.00000  Uiso   1.00
C101   C     0.98749   0.59793   0.09189   0.00000  Uiso   1.00
C102   C     0.68937   0.66444   0.71898   0.00000  Uiso   1.00
C103   C     0.65592   0.73251   0.70801   0.00000  Uiso   1.00
C104   C     0.64308   0.77670   0.60839   0.00000  Uiso   1.00
C105   C     0.61034   0.86867   0.46345   0.00000  Uiso   1.00
C106   C     0.74519   0.56493   0.66331   0.00000  Uiso   1.00
C107   C     0.70281   0.50520   0.68244   0.00000  Uiso   1.00
C108   C     0.68455   0.43482   0.62399   0.00000  Uiso   1.00
C109   C     0.64561   0.38831   0.65409   0.00000  Uiso   1.00
C110   C     0.79835   0.57741   0.78187   0.00000  Uiso   1.00
C111   C     0.86042   0.56776   0.80701   0.00000  Uiso   1.00
C112   C     0.90192   0.58204   0.92080   0.00000  Uiso   1.00
C113   C     0.70930   0.64133   0.63348   0.00000  Uiso   1.00
C114   C     0.69650   0.68543   0.53387   0.00000  Uiso   1.00
C115   C     0.66304   0.75354   0.52275   0.00000  Uiso   1.00
H116   H     0.69300   0.62547   0.88727   0.00000  Uiso   1.00
H117   H     0.62856   0.49980   0.86430   0.00000  Uiso   1.00
H118   H     0.80441   0.63272   0.04729   0.00000  Uiso   1.00
H119   H     0.64051   0.75037   0.77419   0.00000  Uiso   1.00
H120   H     0.56591   0.35026   0.80116   0.00000  Uiso   1.00
H121   H     0.93670   0.63056   0.18699   0.00000  Uiso   1.00
H122   H     0.59110   0.87866   0.61111   0.00000  Uiso   1.00
H123   H     0.76071   0.54694   0.59675   0.00000  Uiso   1.00
H124   H     0.69997   0.41695   0.55783   0.00000  Uiso   1.00
H125   H     0.87582   0.54988   0.74082   0.00000  Uiso   1.00
H126   H     0.71193   0.66753   0.46772   0.00000  Uiso   1.00
H127   H     0.62388   0.28302   0.55243   0.00000  Uiso   1.00
H128   H     0.99467   0.56333   0.93825   0.00000  Uiso   1.00
H129   H     0.64907   0.81142   0.36237   0.00000  Uiso   1.00
O130   O     0.55374   0.23254   0.65646   0.00000  Uiso   1.00
O131   O     0.04020   0.60030   0.16264   0.00000  Uiso   1.00
O132   O     0.58677   0.92579   0.40711   0.00000  Uiso   1.00
N133   N     0.58788   0.35228   0.74795   0.00000  Uiso   1.00
N134   N     0.93454   0.61434   0.10868   0.00000  Uiso   1.00
N135   N     0.61145   0.84629   0.57029   0.00000  Uiso   1.00
N136   N     0.61907   0.31610   0.61410   0.00000  Uiso   1.00
N137   N     0.96573   0.57815   0.97483   0.00000  Uiso   1.00
N138   N     0.64264   0.81011   0.43645   0.00000  Uiso   1.00
C139   C     0.20851   0.10748   0.82071   0.00000  Uiso   1.00
C140   C     0.18288   0.02831   0.76794   0.00000  Uiso   1.00
C141   C     0.14396   0.98190   0.79813   0.00000  Uiso   1.00
C142   C     0.12565   0.91146   0.73974   0.00000  Uiso   1.00
C143   C     0.08284   0.79204   0.67084   0.00000  Uiso   1.00
C144   C     0.27843   0.10052   0.86736   0.00000  Uiso   1.00
C145   C     0.31984   0.11483   0.98115   0.00000  Uiso   1.00
C146   C     0.38196   0.10519   0.00645   0.00000  Uiso   1.00
C147   C     0.48749   0.09793   0.09189   0.00000  Uiso   1.00
C148   C     0.18937   0.16444   0.71898   0.00000  Uiso   1.00
C149   C     0.15592   0.23251   0.70801   0.00000  Uiso   1.00
C150   C     0.14308   0.27670   0.60839   0.00000  Uiso   1.00
C151   C     0.11034   0.36867   0.46345   0.00000  Uiso   1.00
C152   C     0.24519   0.06493   0.66331   0.00000  Uiso   1.00
C153   C     0.20281   0.00520   0.68244   0.00000  Uiso   1.00
C154   C     0.18455   0.93482   0.62399   0.00000  Uiso   1.00
C155   C     0.14561   0.88831   0.65409   0.00000  Uiso   1.00
C156   C     0.29835   0.07741   0.78187   0.00000  Uiso   1.00
C157   C     0.36042   0.06776   0.80701   0.00000  Uiso   1.00
C158   C     0.40192   0.08204   0.92080   0.00000  Uiso   1.00
C159   C     0.20930   0.14133   0.63348   0.00000  Uiso   1.00
C160   C     0.19650   0.18543   0.53387   0.00000  Uiso   1.00
C161   C     0.16304   0.25354   0.52275   0.00000  Uiso   1.00
H162   H     0.19300   0.12547   0.88727   0.00000  Uiso   1.00
H163   H     0.12856   0.99980   0.86430   0.00000  Uiso   1.00
H164   H     0.30441   0.13272   0.04729   0.00000  Uiso   1.00
H165   H     0.14051   0.25037   0.77419   0.00000  Uiso   1.00
H166   H     0.06591   0.85026   0.80116   0.00000  Uiso   1.00
H167   H     0.43670   0.13056   0.18699   0.00000  Uiso   1.00
H168   H     0.09110   0.37866   0.61111   0.00000  Uiso   1.00
H169   H     0.26071   0.04694   0.59675   0.00000  Uiso   1.00
H170   H     0.19997   0.91695   0.55783   0.00000  Uiso   1.00
H171   H     0.37582   0.04988   0.74082   0.00000  Uiso   1.00
H172   H     0.21193   0.16753   0.46772   0.00000  Uiso   1.00
H173   H     0.12388   0.78302   0.55243   0.00000  Uiso   1.00
H174   H     0.49467   0.06333   0.93825   0.00000  Uiso   1.00
H175   H     0.14907   0.31142   0.36237   0.00000  Uiso   1.00
O176   O     0.05374   0.73254   0.65646   0.00000  Uiso   1.00
O177   O     0.54020   0.10030   0.16264   0.00000  Uiso   1.00
O178   O     0.08677   0.42579   0.40711   0.00000  Uiso   1.00
N179   N     0.08788   0.85228   0.74795   0.00000  Uiso   1.00
N180   N     0.43454   0.11434   0.10868   0.00000  Uiso   1.00
N181   N     0.11145   0.34629   0.57029   0.00000  Uiso   1.00
N182   N     0.11907   0.81610   0.61410   0.00000  Uiso   1.00
N183   N     0.46573   0.07815   0.97483   0.00000  Uiso   1.00
N184   N     0.14264   0.31011   0.43645   0.00000  Uiso   1.00
C185   C     0.70851   0.39252   0.32071   0.00000  Uiso   1.00
C186   C     0.68288   0.47169   0.26794   0.00000  Uiso   1.00
C187   C     0.64396   0.51810   0.29813   0.00000  Uiso   1.00
C188   C     0.62565   0.58854   0.23974   0.00000  Uiso   1.00
C189   C     0.58284   0.70796   0.17084   0.00000  Uiso   1.00
C190   C     0.77843   0.39948   0.36736   0.00000  Uiso   1.00
C191   C     0.81984   0.38517   0.48115   0.00000  Uiso   1.00
C192   C     0.88196   0.39481   0.50645   0.00000  Uiso   1.00
C193   C     0.98749   0.40207   0.59189   0.00000  Uiso   1.00
C194   C     0.68937   0.33556   0.21898   0.00000  Uiso   1.00
C195   C     0.65592   0.26749   0.20801   0.00000  Uiso   1.00
C196   C     0.64308   0.22330   0.10839   0.00000  Uiso   1.00
C197   C     0.61034   0.13133   0.96345   0.00000  Uiso   1.00
C198   C     0.74519   0.43507   0.16331   0.00000  Uiso   1.00
C199   C     0.70281   0.49480   0.18244   0.00000  Uiso   1.00
C200   C     0.68455   0.56518   0.12399   0.00000  Uiso   1.00
C201   C     0.64561   0.61169   0.15409   0.00000  Uiso   1.00
C202   C     0.79835   0.42259   0.28187   0.00000  Uiso   1.00
C203   C     0.86042   0.43224   0.30701   0.00000  Uiso   1.00
C204   C     0.90192   0.41796   0.42080   0.00000  Uiso   1.00
C205   C     0.70930   0.35867   0.13348   0.00000  Uiso   1.00
C206   C     0.69650   0.31457   0.03387   0.00000  Uiso   1.00
C207   C     0.66304   0.24646   0.02275   0.00000  Uiso   1.00
H208   H     0.69300   0.37453   0.38727   0.00000  Uiso   1.00
H209   H     0.62856   0.50020   0.36430   0.00000  Uiso   1.00
H210   H     0.80441   0.36728   0.54729   0.00000  Uiso   1.00
H211   H     0.64051   0.24963   0.27419   0.00000  Uiso   1.00
H212   H     0.56591   0.64974   0.30116   0.00000  Uiso   1.00
H213   H     0.93670   0.36944   0.68699   0.00000  Uiso   1.00
H214   H     0.59110   0.12134   0.11111   0.00000  Uiso   1.00
H215   H     0.76071   0.45306   0.09675   0.00000  Uiso   1.00
H216   H     0.69997   0.58305   0.05783   0.00000  Uiso   1.00
H217   H     0.87582   0.45012   0.24082   0.00000  Uiso   1.00
H218   H     0.71193   0.33247   0.96772   0.00000  Uiso   1.00
H219   H     0.62388   0.71698   0.05243   0.00000  Uiso   1.00
H220   H     0.99467   0.43667   0.43825   0.00000  Uiso   1.00
H221   H     0.64907   0.18858   0.86237   0.00000  Uiso   1.00
O222   O     0.55374   0.76746   0.15646   0.00000  Uiso   1.00
O223   O     0.04020   0.39970   0.66264   0.00000  Uiso   1.00
O224   O     0.58677   0.07421   0.90711   0.00000  Uiso   1.00
N225   N     0.58788   0.64772   0.24795   0.00000  Uiso   1.00
N226   N     0.93454   0.38566   0.60868   0.00000  Uiso   1.00
N227   N     0.61145   0.15371   0.07029   0.00000  Uiso   1.00
N228   N     0.61907   0.68390   0.11410   0.00000  Uiso   1.00
N229   N     0.96573   0.42185   0.47483   0.00000  Uiso   1.00
N230   N     0.64264   0.18989   0.93645   0.00000  Uiso   1.00
C231   C     0.20851   0.89252   0.32071   0.00000  Uiso   1.00
C232   C     0.18288   0.97169   0.26794   0.00000  Uiso   1.00
C233   C     0.14396   0.01810   0.29813   0.00000  Uiso   1.00
C234   C     0.12565   0.08854   0.23974   0.00000  Uiso   1.00
C235   C     0.08284   0.20796   0.17084   0.00000  Uiso   1.00
C236   C     0.27843   0.89948   0.36736   0.00000  Uiso   1.00
C237   C     0.31984   0.88517   0.48115   0.00000  Uiso   1.00
C238   C     0.38196   0.89481   0.50645   0.00000  Uiso   1.00
C239   C     0.48749   0.90207   0.59189   0.00000  Uiso   1.00
C240   C     0.18937   0.83556   0.21898   0.00000  Uiso   1.00
C241   C     0.15592   0.76749   0.20801   0.00000  Uiso   1.00
C242   C     0.14308   0.72330   0.10839   0.00000  Uiso   1.00
C243   C     0.11034   0.63133   0.96345   0.00000  Uiso   1.00
C244   C     0.24519   0.93507   0.16331   0.00000  Uiso   1.00
C245   C     0.20281   0.99480   0.18244   0.00000  Uiso   1.00
C246   C     0.18455   0.06518   0.12399   0.00000  Uiso   1.00
C247   C     0.14561   0.11169   0.15409   0.00000  Uiso   1.00
C248   C     0.29835   0.92259   0.28187   0.00000  Uiso   1.00
C249   C     0.36042   0.93224   0.30701   0.00000  Uiso   1.00
C250   C     0.40192   0.91796   0.42080   0.00000  Uiso   1.00
C251   C     0.20930   0.85867   0.13348   0.00000  Uiso   1.00
C252   C     0.19650   0.81457   0.03387   0.00000  Uiso   1.00
C253   C     0.16304   0.74646   0.02275   0.00000  Uiso   1.00
H254   H     0.19300   0.87453   0.38727   0.00000  Uiso   1.00
H255   H     0.12856   0.00020   0.36430   0.00000  Uiso   1.00
H256   H     0.30441   0.86728   0.54729   0.00000  Uiso   1.00
H257   H     0.14051   0.74963   0.27419   0.00000  Uiso   1.00
H258   H     0.06591   0.14974   0.30116   0.00000  Uiso   1.00
H259   H     0.43670   0.86944   0.68699   0.00000  Uiso   1.00
H260   H     0.09110   0.62134   0.11111   0.00000  Uiso   1.00
H261   H     0.26071   0.95306   0.09675   0.00000  Uiso   1.00
H262   H     0.19997   0.08305   0.05783   0.00000  Uiso   1.00
H263   H     0.37582   0.95012   0.24082   0.00000  Uiso   1.00
H264   H     0.21193   0.83247   0.96772   0.00000  Uiso   1.00
H265   H     0.12388   0.21698   0.05243   0.00000  Uiso   1.00
H266   H     0.49467   0.93667   0.43825   0.00000  Uiso   1.00
H267   H     0.14907   0.68858   0.86237   0.00000  Uiso   1.00
O268   O     0.05374   0.26746   0.15646   0.00000  Uiso   1.00
O269   O     0.54020   0.89970   0.66264   0.00000  Uiso   1.00
O270   O     0.08677   0.57421   0.90711   0.00000  Uiso   1.00
N271   N     0.08788   0.14772   0.24795   0.00000  Uiso   1.00
N272   N     0.43454   0.88566   0.60868   0.00000  Uiso   1.00
N273   N     0.11145   0.65371   0.07029   0.00000  Uiso   1.00
N274   N     0.11907   0.18390   0.11410   0.00000  Uiso   1.00
N275   N     0.46573   0.92185   0.47483   0.00000  Uiso   1.00
N276   N     0.14264   0.68989   0.93645   0.00000  Uiso   1.00
C277   C     0.29149   0.39252   0.17929   0.00000  Uiso   1.00
C278   C     0.31712   0.47169   0.23206   0.00000  Uiso   1.00
C279   C     0.35604   0.51810   0.20187   0.00000  Uiso   1.00
C280   C     0.37435   0.58854   0.26026   0.00000  Uiso   1.00
C281   C     0.41716   0.70796   0.32916   0.00000  Uiso   1.00
C282   C     0.22157   0.39948   0.13264   0.00000  Uiso   1.00
C283   C     0.18016   0.38517   0.01885   0.00000  Uiso   1.00
C284   C     0.11804   0.39481   0.99355   0.00000  Uiso   1.00
C285   C     0.01251   0.40207   0.90811   0.00000  Uiso   1.00
C286   C     0.31063   0.33556   0.28102   0.00000  Uiso   1.00
C287   C     0.34408   0.26749   0.29199   0.00000  Uiso   1.00
C288   C     0.35692   0.22330   0.39161   0.00000  Uiso   1.00
C289   C     0.38966   0.13133   0.53655   0.00000  Uiso   1.00
C290   C     0.25481   0.43507   0.33669   0.00000  Uiso   1.00
C291   C     0.29719   0.49480   0.31756   0.00000  Uiso   1.00
C292   C     0.31545   0.56518   0.37601   0.00000  Uiso   1.00
C293   C     0.35439   0.61169   0.34591   0.00000  Uiso   1.00
C294   C     0.20165   0.42259   0.21813   0.00000  Uiso   1.00
C295   C     0.13958   0.43224   0.19299   0.00000  Uiso   1.00
C296   C     0.09808   0.41796   0.07920   0.00000  Uiso   1.00
C297   C     0.29070   0.35867   0.36652   0.00000  Uiso   1.00
C298   C     0.30350   0.31457   0.46613   0.00000  Uiso   1.00
C299   C     0.33696   0.24646   0.47725   0.00000  Uiso   1.00
H300   H     0.30700   0.37453   0.11273   0.00000  Uiso   1.00
H301   H     0.37144   0.50020   0.13570   0.00000  Uiso   1.00
H302   H     0.19559   0.36728   0.95271   0.00000  Uiso   1.00
H303   H     0.35949   0.24963   0.22581   0.00000  Uiso   1.00
H304   H     0.43409   0.64974   0.19884   0.00000  Uiso   1.00
H305   H     0.06330   0.36944   0.81301   0.00000  Uiso   1.00
H306   H     0.40890   0.12134   0.38889   0.00000  Uiso   1.00
H307   H     0.23929   0.45306   0.40325   0.00000  Uiso   1.00
H308   H     0.30003   0.58305   0.44217   0.00000  Uiso   1.00
H309   H     0.12418   0.45012   0.25918   0.00000  Uiso   1.00
H310   H     0.28807   0.33247   0.53228   0.00000  Uiso   1.00
H311   H     0.37612   0.71698   0.44757   0.00000  Uiso   1.00
H312   H     0.00533   0.43667   0.06175   0.00000  Uiso   1.00
H313   H     0.35093   0.18858   0.63763   0.00000  Uiso   1.00
O314   O     0.44626   0.76746   0.34354   0.00000  Uiso   1.00
O315   O     0.95980   0.39970   0.83736   0.00000  Uiso   1.00
O316   O     0.41323   0.07421   0.59289   0.00000  Uiso   1.00
N317   N     0.41212   0.64772   0.25205   0.00000  Uiso   1.00
N318   N     0.06546   0.38566   0.89132   0.00000  Uiso   1.00
N319   N     0.38855   0.15371   0.42971   0.00000  Uiso   1.00
N320   N     0.38093   0.68390   0.38590   0.00000  Uiso   1.00
N321   N     0.03427   0.42185   0.02517   0.00000  Uiso   1.00
N322   N     0.35736   0.18989   0.56355   0.00000  Uiso   1.00
C323   C     0.79149   0.89252   0.17929   0.00000  Uiso   1.00
C324   C     0.81712   0.97169   0.23206   0.00000  Uiso   1.00
C325   C     0.85604   0.01810   0.20187   0.00000  Uiso   1.00
C326   C     0.87435   0.08854   0.26026   0.00000  Uiso   1.00
C327   C     0.91716   0.20796   0.32916   0.00000  Uiso   1.00
C328   C     0.72157   0.89948   0.13264   0.00000  Uiso   1.00
C329   C     0.68016   0.88517   0.01885   0.00000  Uiso   1.00
C330   C     0.61804   0.89481   0.99355   0.00000  Uiso   1.00
C331   C     0.51251   0.90207   0.90811   0.00000  Uiso   1.00
C332   C     0.81063   0.83556   0.28102   0.00000  Uiso   1.00
C333   C     0.84408   0.76749   0.29199   0.00000  Uiso   1.00
C334   C     0.85692   0.72330   0.39161   0.00000  Uiso   1.00
C335   C     0.88966   0.63133   0.53655   0.00000  Uiso   1.00
C336   C     0.75481   0.93507   0.33669   0.00000  Uiso   1.00
C337   C     0.79719   0.99480   0.31756   0.00000  Uiso   1.00
C338   C     0.81545   0.06518   0.37601   0.00000  Uiso   1.00
C339   C     0.85439   0.11169   0.34591   0.00000  Uiso   1.00
C340   C     0.70165   0.92259   0.21813   0.00000  Uiso   1.00
C341   C     0.63958   0.93224   0.19299   0.00000  Uiso   1.00
C342   C     0.59808   0.91796   0.07920   0.00000  Uiso   1.00
C343   C     0.79070   0.85867   0.36652   0.00000  Uiso   1.00
C344   C     0.80350   0.81457   0.46613   0.00000  Uiso   1.00
C345   C     0.83696   0.74646   0.47725   0.00000  Uiso   1.00
H346   H     0.80700   0.87453   0.11273   0.00000  Uiso   1.00
H347   H     0.87144   0.00020   0.13570   0.00000  Uiso   1.00
H348   H     0.69559   0.86728   0.95271   0.00000  Uiso   1.00
H349   H     0.85949   0.74963   0.22581   0.00000  Uiso   1.00
H350   H     0.93409   0.14974   0.19884   0.00000  Uiso   1.00
H351   H     0.56330   0.86944   0.81301   0.00000  Uiso   1.00
H352   H     0.90890   0.62134   0.38889   0.00000  Uiso   1.00
H353   H     0.73929   0.95306   0.40325   0.00000  Uiso   1.00
H354   H     0.80003   0.08305   0.44217   0.00000  Uiso   1.00
H355   H     0.62418   0.95012   0.25918   0.00000  Uiso   1.00
H356   H     0.78807   0.83247   0.53228   0.00000  Uiso   1.00
H357   H     0.87612   0.21698   0.44757   0.00000  Uiso   1.00
H358   H     0.50533   0.93667   0.06175   0.00000  Uiso   1.00
H359   H     0.85093   0.68858   0.63763   0.00000  Uiso   1.00
O360   O     0.94626   0.26746   0.34354   0.00000  Uiso   1.00
O361   O     0.45980   0.89970   0.83736   0.00000  Uiso   1.00
O362   O     0.91323   0.57421   0.59289   0.00000  Uiso   1.00
N363   N     0.91212   0.14772   0.25205   0.00000  Uiso   1.00
N364   N     0.56546   0.88566   0.89132   0.00000  Uiso   1.00
N365   N     0.88855   0.65371   0.42971   0.00000  Uiso   1.00
N366   N     0.88093   0.18390   0.38590   0.00000  Uiso   1.00
N367   N     0.53427   0.92185   0.02517   0.00000  Uiso   1.00
N368   N     0.85736   0.68989   0.56355   0.00000  Uiso   1.00
