data_job_03932
_audit_creation_date              2018-12-19
_audit_creation_method            'Materials Studio'
_symmetry_space_group_name_H-M    'P1'
_symmetry_Int_Tables_number       1
_symmetry_cell_setting            triclinic
loop_
_symmetry_equiv_pos_as_xyz
  x,y,z
_cell_length_a                    11.7746
_cell_length_b                    12.4975
_cell_length_c                    16.4822
_cell_angle_alpha                 104.3809
_cell_angle_beta                  107.4466
_cell_angle_gamma                 78.0611
loop_
_atom_site_label
_atom_site_type_symbol
_atom_site_fract_x
_atom_site_fract_y
_atom_site_fract_z
_atom_site_U_iso_or_equiv
_atom_site_adp_type
_atom_site_occupancy
C1     C     0.26795   0.19097   0.85761   0.00000  Uiso   1.00
C2     C     0.40035   0.15662   0.85866   0.00000  Uiso   1.00
C3     C     0.49722   0.17994   0.92977   0.00000  Uiso   1.00
C4     C     0.61139   0.14126   0.91749   0.00000  Uiso   1.00
C5     C     0.81445   0.09708   0.93137   0.00000  Uiso   1.00
C6     C     0.21241   0.25737   0.78557   0.00000  Uiso   1.00
C7     C     0.15125   0.36539   0.79523   0.00000  Uiso   1.00
C8     C     0.10721   0.41150   0.72141   0.00000  Uiso   1.00
C9     C     0.01842   0.52370   0.62179   0.00000  Uiso   1.00
C10    C     0.21199   0.08342   0.82698   0.00000  Uiso   1.00
C11    C     0.15044   0.04520   0.87145   0.00000  Uiso   1.00
C12    C     0.10602   0.94488   0.83249   0.00000  Uiso   1.00
C13    C     0.01657   0.78701   0.79717   0.00000  Uiso   1.00
C14    C     0.29846   0.08079   0.70934   0.00000  Uiso   1.00
C15    C     0.41691   0.09678   0.77812   0.00000  Uiso   1.00
C16    C     0.53097   0.05805   0.76573   0.00000  Uiso   1.00
C17    C     0.62799   0.08131   0.83681   0.00000  Uiso   1.00
C18    C     0.22898   0.19753   0.70503   0.00000  Uiso   1.00
C19    C     0.18501   0.24349   0.63118   0.00000  Uiso   1.00
C20    C     0.12381   0.35156   0.64073   0.00000  Uiso   1.00
C21    C     0.22856   0.02358   0.74645   0.00000  Uiso   1.00
C22    C     0.18421   0.92331   0.70740   0.00000  Uiso   1.00
C23    C     0.12262   0.88493   0.75181   0.00000  Uiso   1.00
H24    H     0.25504   0.23756   0.92030   0.00000  Uiso   1.00
H25    H     0.48435   0.22627   0.99209   0.00000  Uiso   1.00
H26    H     0.13844   0.41167   0.85756   0.00000  Uiso   1.00
H27    H     0.13764   0.09153   0.93377   0.00000  Uiso   1.00
H28    H     0.74590   0.18739   0.03615   0.00000  Uiso   1.00
H29    H     0.01648   0.57831   0.75248   0.00000  Uiso   1.00
H30    H     0.01478   0.90324   0.91319   0.00000  Uiso   1.00
H31    H     0.31135   0.03420   0.64663   0.00000  Uiso   1.00
H32    H     0.54377   0.01174   0.70340   0.00000  Uiso   1.00
H33    H     0.19785   0.19716   0.56887   0.00000  Uiso   1.00
H34    H     0.19705   0.87702   0.64508   0.00000  Uiso   1.00
H35    H     0.79412   0.01328   0.80183   0.00000  Uiso   1.00
H36    H     0.06469   0.40421   0.51817   0.00000  Uiso   1.00
H37    H     0.06301   0.72913   0.67887   0.00000  Uiso   1.00
O38    O     0.92188   0.08926   0.96126   0.00000  Uiso   1.00
O39    O     0.96489   0.60213   0.58910   0.00000  Uiso   1.00
O40    O     0.96268   0.71645   0.79995   0.00000  Uiso   1.00
N41    N     0.72535   0.14947   0.97322   0.00000  Uiso   1.00
N42    N     0.04340   0.51497   0.70801   0.00000  Uiso   1.00
N43    N     0.04179   0.88385   0.85824   0.00000  Uiso   1.00
N44    N     0.75130   0.05578   0.84713   0.00000  Uiso   1.00
N45    N     0.06935   0.42129   0.58193   0.00000  Uiso   1.00
N46    N     0.06774   0.79017   0.73216   0.00000  Uiso   1.00
C47    C     0.73205   0.80903   0.14239   0.00000  Uiso   1.00
C48    C     0.59965   0.84338   0.14134   0.00000  Uiso   1.00
C49    C     0.50278   0.82006   0.07023   0.00000  Uiso   1.00
C50    C     0.38861   0.85874   0.08251   0.00000  Uiso   1.00
C51    C     0.18555   0.90292   0.06863   0.00000  Uiso   1.00
C52    C     0.78759   0.74263   0.21443   0.00000  Uiso   1.00
C53    C     0.84875   0.63461   0.20477   0.00000  Uiso   1.00
C54    C     0.89279   0.58850   0.27859   0.00000  Uiso   1.00
C55    C     0.98158   0.47630   0.37821   0.00000  Uiso   1.00
C56    C     0.78801   0.91658   0.17302   0.00000  Uiso   1.00
C57    C     0.84956   0.95480   0.12855   0.00000  Uiso   1.00
C58    C     0.89398   0.05512   0.16751   0.00000  Uiso   1.00
C59    C     0.98343   0.21299   0.20283   0.00000  Uiso   1.00
C60    C     0.70154   0.91921   0.29066   0.00000  Uiso   1.00
C61    C     0.58309   0.90322   0.22188   0.00000  Uiso   1.00
C62    C     0.46903   0.94195   0.23427   0.00000  Uiso   1.00
C63    C     0.37201   0.91869   0.16319   0.00000  Uiso   1.00
C64    C     0.77102   0.80247   0.29497   0.00000  Uiso   1.00
C65    C     0.81499   0.75651   0.36882   0.00000  Uiso   1.00
C66    C     0.87619   0.64844   0.35927   0.00000  Uiso   1.00
C67    C     0.77144   0.97642   0.25355   0.00000  Uiso   1.00
C68    C     0.81579   0.07669   0.29260   0.00000  Uiso   1.00
C69    C     0.87738   0.11507   0.24819   0.00000  Uiso   1.00
H70    H     0.74496   0.76244   0.07970   0.00000  Uiso   1.00
H71    H     0.51565   0.77373   0.00791   0.00000  Uiso   1.00
H72    H     0.86156   0.58833   0.14244   0.00000  Uiso   1.00
H73    H     0.86236   0.90847   0.06623   0.00000  Uiso   1.00
H74    H     0.25410   0.81261   0.96385   0.00000  Uiso   1.00
H75    H     0.98352   0.42169   0.24752   0.00000  Uiso   1.00
H76    H     0.98522   0.09676   0.08681   0.00000  Uiso   1.00
H77    H     0.68865   0.96580   0.35337   0.00000  Uiso   1.00
H78    H     0.45623   0.98826   0.29660   0.00000  Uiso   1.00
H79    H     0.80215   0.80284   0.43113   0.00000  Uiso   1.00
H80    H     0.80295   0.12298   0.35492   0.00000  Uiso   1.00
H81    H     0.20588   0.98672   0.19817   0.00000  Uiso   1.00
H82    H     0.93531   0.59579   0.48183   0.00000  Uiso   1.00
H83    H     0.93699   0.27087   0.32113   0.00000  Uiso   1.00
O84    O     0.07812   0.91074   0.03874   0.00000  Uiso   1.00
O85    O     0.03511   0.39787   0.41090   0.00000  Uiso   1.00
O86    O     0.03732   0.28355   0.20005   0.00000  Uiso   1.00
N87    N     0.27465   0.85053   0.02678   0.00000  Uiso   1.00
N88    N     0.95660   0.48503   0.29199   0.00000  Uiso   1.00
N89    N     0.95821   0.11615   0.14176   0.00000  Uiso   1.00
N90    N     0.24870   0.94422   0.15287   0.00000  Uiso   1.00
N91    N     0.93065   0.57871   0.41807   0.00000  Uiso   1.00
N92    N     0.93226   0.20983   0.26784   0.00000  Uiso   1.00
