data_job_06544
_audit_creation_date              2018-12-19
_audit_creation_method            'Materials Studio'
_symmetry_space_group_name_H-M    'P1'
_symmetry_Int_Tables_number       1
_symmetry_cell_setting            triclinic
loop_
_symmetry_equiv_pos_as_xyz
  x,y,z
_cell_length_a                    22.6386
_cell_length_b                    21.4721
_cell_length_c                    21.0312
_cell_angle_alpha                 62.6286
_cell_angle_beta                  69.6818
_cell_angle_gamma                 68.3131
loop_
_atom_site_label
_atom_site_type_symbol
_atom_site_fract_x
_atom_site_fract_y
_atom_site_fract_z
_atom_site_U_iso_or_equiv
_atom_site_adp_type
_atom_site_occupancy
C1     C     0.83183   0.70610   0.02694   0.00000  Uiso   1.00
C2     C     0.85567   0.76164   0.03108   0.00000  Uiso   1.00
C3     C     0.82054   0.83207   0.02381   0.00000  Uiso   1.00
C4     C     0.85096   0.87439   0.02930   0.00000  Uiso   1.00
C5     C     0.87837   0.96479   0.03382   0.00000  Uiso   1.00
C6     C     0.88173   0.68197   0.96673   0.00000  Uiso   1.00
C7     C     0.86850   0.68540   0.90535   0.00000  Uiso   1.00
C8     C     0.92086   0.66063   0.85667   0.00000  Uiso   1.00
C9     C     0.98872   0.62728   0.76132   0.00000  Uiso   1.00
C10    C     0.83793   0.64036   0.09854   0.00000  Uiso   1.00
C11    C     0.78788   0.60880   0.14799   0.00000  Uiso   1.00
C12    C     0.80337   0.54899   0.21029   0.00000  Uiso   1.00
C13    C     0.80322   0.45104   0.31960   0.00000  Uiso   1.00
C14    C     0.94834   0.65601   0.04963   0.00000  Uiso   1.00
C15    C     0.91896   0.73443   0.04341   0.00000  Uiso   1.00
C16    C     0.94944   0.77665   0.04892   0.00000  Uiso   1.00
C17    C     0.91436   0.84713   0.04165   0.00000  Uiso   1.00
C18    C     0.94502   0.65476   0.97905   0.00000  Uiso   1.00
C19    C     0.99741   0.62998   0.93046   0.00000  Uiso   1.00
C20    C     0.98426   0.63338   0.86902   0.00000  Uiso   1.00
C21    C     0.90122   0.61315   0.11087   0.00000  Uiso   1.00
C22    C     0.91679   0.55338   0.17310   0.00000  Uiso   1.00
C23    C     0.86677   0.52173   0.22264   0.00000  Uiso   1.00
H24    H     0.78256   0.72728   0.01733   0.00000  Uiso   1.00
H25    H     0.77156   0.85311   0.01426   0.00000  Uiso   1.00
H26    H     0.81952   0.70645   0.89583   0.00000  Uiso   1.00
H27    H     0.73891   0.62987   0.13843   0.00000  Uiso   1.00
H28    H     0.78729   0.98063   0.01626   0.00000  Uiso   1.00
H29    H     0.88840   0.67137   0.76655   0.00000  Uiso   1.00
H30    H     0.71842   0.50987   0.27814   0.00000  Uiso   1.00
H31    H     0.99761   0.63482   0.05923   0.00000  Uiso   1.00
H32    H     0.99842   0.75558   0.05846   0.00000  Uiso   1.00
H33    H     0.04637   0.60892   0.94002   0.00000  Uiso   1.00
H34    H     0.96576   0.53234   0.18263   0.00000  Uiso   1.00
H35    H     0.97141   0.90147   0.05213   0.00000  Uiso   1.00
H36    H     0.07253   0.59220   0.80242   0.00000  Uiso   1.00
H37    H     0.90255   0.43071   0.31400   0.00000  Uiso   1.00
O38    O     0.87600   0.02217   0.03290   0.00000  Uiso   1.00
O39    O     0.00866   0.61641   0.70531   0.00000  Uiso   1.00
O40    O     0.78565   0.40454   0.37649   0.00000  Uiso   1.00
N41    N     0.83051   0.94542   0.02482   0.00000  Uiso   1.00
N42    N     0.92504   0.65629   0.79135   0.00000  Uiso   1.00
N43    N     0.76613   0.50529   0.26963   0.00000  Uiso   1.00
N44    N     0.92958   0.90283   0.04412   0.00000  Uiso   1.00
N45    N     0.02412   0.61370   0.81066   0.00000  Uiso   1.00
N46    N     0.86521   0.46270   0.28893   0.00000  Uiso   1.00
C47    C     0.06129   0.79783   0.72439   0.00000  Uiso   1.00
C48    C     0.07823   0.81651   0.77661   0.00000  Uiso   1.00
C49    C     0.08442   0.77119   0.84807   0.00000  Uiso   1.00
C50    C     0.10018   0.79837   0.88687   0.00000  Uiso   1.00
C51    C     0.12505   0.81675   0.97276   0.00000  Uiso   1.00
C52    C     0.00099   0.85640   0.70043   0.00000  Uiso   1.00
C53    C     0.94224   0.84462   0.70782   0.00000  Uiso   1.00
C54    C     0.89299   0.90537   0.68248   0.00000  Uiso   1.00
C55    C     0.79796   0.98568   0.65004   0.00000  Uiso   1.00
C56    C     0.11628   0.80888   0.65629   0.00000  Uiso   1.00
C57    C     0.15446   0.75714   0.62656   0.00000  Uiso   1.00
C58    C     0.20226   0.77789   0.56404   0.00000  Uiso   1.00
C59    C     0.28623   0.78440   0.46308   0.00000  Uiso   1.00
C60    C     0.07828   0.92669   0.66622   0.00000  Uiso   1.00
C61    C     0.08746   0.88651   0.74501   0.00000  Uiso   1.00
C62    C     0.10322   0.91376   0.78371   0.00000  Uiso   1.00
C63    C     0.10943   0.86849   0.85521   0.00000  Uiso   1.00
C64    C     0.01022   0.92639   0.66883   0.00000  Uiso   1.00
C65    C     0.96104   0.98719   0.64346   0.00000  Uiso   1.00
C66    C     0.90223   0.97549   0.65082   0.00000  Uiso   1.00
C67    C     0.12551   0.87887   0.62469   0.00000  Uiso   1.00
C68    C     0.17326   0.89971   0.56220   0.00000  Uiso   1.00
C69    C     0.21150   0.84801   0.53239   0.00000  Uiso   1.00
H70    H     0.05410   0.74334   0.74899   0.00000  Uiso   1.00
H71    H     0.07727   0.71703   0.87250   0.00000  Uiso   1.00
H72    H     0.93512   0.79045   0.73227   0.00000  Uiso   1.00
H73    H     0.14730   0.70298   0.65102   0.00000  Uiso   1.00
H74    H     0.10700   0.71874   0.99551   0.00000  Uiso   1.00
H75    H     0.80727   0.87354   0.69980   0.00000  Uiso   1.00
H76    H     0.25471   0.68910   0.52847   0.00000  Uiso   1.00
H77    H     0.08546   0.98118   0.64162   0.00000  Uiso   1.00
H78    H     0.11036   0.96793   0.75925   0.00000  Uiso   1.00
H79    H     0.96820   0.04134   0.61901   0.00000  Uiso   1.00
H80    H     0.18038   0.95387   0.53777   0.00000  Uiso   1.00
H81    H     0.13385   0.92238   0.90359   0.00000  Uiso   1.00
H82    H     0.83412   0.07717   0.60787   0.00000  Uiso   1.00
H83    H     0.28155   0.89273   0.43655   0.00000  Uiso   1.00
O84    O     0.13621   0.80756   0.02887   0.00000  Uiso   1.00
O85    O     0.74299   0.01064   0.64089   0.00000  Uiso   1.00
O86    O     0.33001   0.76866   0.41612   0.00000  Uiso   1.00
N87    N     0.10992   0.76848   0.95773   0.00000  Uiso   1.00
N88    N     0.82969   0.91320   0.68127   0.00000  Uiso   1.00
N89    N     0.24799   0.74078   0.52108   0.00000  Uiso   1.00
N90    N     0.12437   0.87806   0.90827   0.00000  Uiso   1.00
N91    N     0.84413   0.02278   0.63180   0.00000  Uiso   1.00
N92    N     0.26243   0.85035   0.47162   0.00000  Uiso   1.00
C93    C     0.65081   0.13141   0.79449   0.00000  Uiso   1.00
C94    C     0.70856   0.13328   0.81451   0.00000  Uiso   1.00
C95    C     0.76278   0.15663   0.76522   0.00000  Uiso   1.00
C96    C     0.81035   0.15411   0.79448   0.00000  Uiso   1.00
C97    C     0.90104   0.16079   0.81404   0.00000  Uiso   1.00
C98    C     0.64505   0.05330   0.83448   0.00000  Uiso   1.00
C99    C     0.64586   0.00942   0.80198   0.00000  Uiso   1.00
C100   C     0.63995   0.93958   0.84804   0.00000  Uiso   1.00
C101   C     0.63198   0.82210   0.89861   0.00000  Uiso   1.00
C102   C     0.59063   0.17611   0.83013   0.00000  Uiso   1.00
C103   C     0.54567   0.23547   0.79399   0.00000  Uiso   1.00
C104   C     0.49394   0.26901   0.83641   0.00000  Uiso   1.00
C105   C     0.40147   0.34221   0.88023   0.00000  Uiso   1.00
C106   C     0.63887   0.08541   0.93408   0.00000  Uiso   1.00
C107   C     0.70208   0.10829   0.89033   0.00000  Uiso   1.00
C108   C     0.74958   0.10574   0.91967   0.00000  Uiso   1.00
C109   C     0.80386   0.12909   0.87044   0.00000  Uiso   1.00
C110   C     0.63857   0.02832   0.91030   0.00000  Uiso   1.00
C111   C     0.63265   0.95852   0.95642   0.00000  Uiso   1.00
C112   C     0.63346   0.91454   0.92400   0.00000  Uiso   1.00
C113   C     0.58415   0.15112   0.90596   0.00000  Uiso   1.00
C114   C     0.53247   0.18458   0.94844   0.00000  Uiso   1.00
C115   C     0.48744   0.24398   0.91236   0.00000  Uiso   1.00
H116   H     0.65585   0.15086   0.73546   0.00000  Uiso   1.00
H117   H     0.76778   0.17596   0.70655   0.00000  Uiso   1.00
H118   H     0.65087   0.02877   0.74330   0.00000  Uiso   1.00
H119   H     0.55070   0.25479   0.73532   0.00000  Uiso   1.00
H120   H     0.88903   0.19275   0.70794   0.00000  Uiso   1.00
H121   H     0.64249   0.88240   0.78543   0.00000  Uiso   1.00
H122   H     0.43126   0.35901   0.76859   0.00000  Uiso   1.00
H123   H     0.63382   0.06595   0.99311   0.00000  Uiso   1.00
H124   H     0.74455   0.08640   0.97835   0.00000  Uiso   1.00
H125   H     0.62763   0.93921   0.01509   0.00000  Uiso   1.00
H126   H     0.52747   0.16522   0.00711   0.00000  Uiso   1.00
H127   H     0.87018   0.12005   0.92854   0.00000  Uiso   1.00
H128   H     0.62363   0.80971   0.00603   0.00000  Uiso   1.00
H129   H     0.41241   0.28631   0.98919   0.00000  Uiso   1.00
O130   O     0.95285   0.17136   0.80388   0.00000  Uiso   1.00
O131   O     0.62938   0.76421   0.90554   0.00000  Uiso   1.00
O132   O     0.35226   0.38950   0.88345   0.00000  Uiso   1.00
N133   N     0.86939   0.17285   0.76189   0.00000  Uiso   1.00
N134   N     0.63890   0.88269   0.83433   0.00000  Uiso   1.00
N135   N     0.44141   0.32826   0.81859   0.00000  Uiso   1.00
N136   N     0.85925   0.13373   0.88059   0.00000  Uiso   1.00
N137   N     0.62875   0.84357   0.95304   0.00000  Uiso   1.00
N138   N     0.43127   0.28914   0.93730   0.00000  Uiso   1.00
C139   C     0.34656   0.52204   0.21750   0.00000  Uiso   1.00
C140   C     0.37601   0.52243   0.27240   0.00000  Uiso   1.00
C141   C     0.34561   0.51443   0.34450   0.00000  Uiso   1.00
C142   C     0.38075   0.51631   0.38586   0.00000  Uiso   1.00
C143   C     0.41687   0.51543   0.47564   0.00000  Uiso   1.00
C144   C     0.39369   0.46244   0.19084   0.00000  Uiso   1.00
C145   C     0.37814   0.40401   0.19437   0.00000  Uiso   1.00
C146   C     0.42816   0.35539   0.16706   0.00000  Uiso   1.00
C147   C     0.49171   0.26141   0.13018   0.00000  Uiso   1.00
C148   C     0.34981   0.59327   0.15172   0.00000  Uiso   1.00
C149   C     0.29737   0.64483   0.12234   0.00000  Uiso   1.00
C150   C     0.31044   0.70636   0.06209   0.00000  Uiso   1.00
C151   C     0.30586   0.81550   0.96446   0.00000  Uiso   1.00
C152   C     0.46303   0.53959   0.16273   0.00000  Uiso   1.00
C153   C     0.43928   0.53196   0.24265   0.00000  Uiso   1.00
C154   C     0.47447   0.53386   0.28391   0.00000  Uiso   1.00
C155   C     0.44412   0.52587   0.35606   0.00000  Uiso   1.00
C156   C     0.45695   0.47197   0.16109   0.00000  Uiso   1.00
C157   C     0.50700   0.42343   0.13377   0.00000  Uiso   1.00
C158   C     0.49154   0.36494   0.13726   0.00000  Uiso   1.00
C159   C     0.41307   0.60281   0.12197   0.00000  Uiso   1.00
C160   C     0.42623   0.66426   0.06175   0.00000  Uiso   1.00
C161   C     0.37382   0.71591   0.03228   0.00000  Uiso   1.00
H162   H     0.29731   0.51461   0.24066   0.00000  Uiso   1.00
H163   H     0.29665   0.50705   0.36751   0.00000  Uiso   1.00
H164   H     0.32918   0.39665   0.21738   0.00000  Uiso   1.00
H165   H     0.24842   0.63743   0.14537   0.00000  Uiso   1.00
H166   H     0.32383   0.50284   0.49503   0.00000  Uiso   1.00
H167   H     0.39241   0.27007   0.17847   0.00000  Uiso   1.00
H168   H     0.22210   0.77782   0.02662   0.00000  Uiso   1.00
H169   H     0.51229   0.54702   0.13957   0.00000  Uiso   1.00
H170   H     0.52343   0.54124   0.26087   0.00000  Uiso   1.00
H171   H     0.55595   0.43083   0.11075   0.00000  Uiso   1.00
H172   H     0.47519   0.67162   0.03874   0.00000  Uiso   1.00
H173   H     0.50789   0.53059   0.40848   0.00000  Uiso   1.00
H174   H     0.57647   0.29782   0.09192   0.00000  Uiso   1.00
H175   H     0.40617   0.80556   0.94007   0.00000  Uiso   1.00
O176   O     0.41931   0.51231   0.53339   0.00000  Uiso   1.00
O177   O     0.50928   0.20692   0.11806   0.00000  Uiso   1.00
O178   O     0.28585   0.87308   0.91884   0.00000  Uiso   1.00
N179   N     0.36561   0.51018   0.45801   0.00000  Uiso   1.00
N180   N     0.42973   0.29255   0.16206   0.00000  Uiso   1.00
N181   N     0.27052   0.76724   0.02008   0.00000  Uiso   1.00
N182   N     0.46466   0.52511   0.41144   0.00000  Uiso   1.00
N183   N     0.52877   0.30748   0.11549   0.00000  Uiso   1.00
N184   N     0.36956   0.78217   0.97351   0.00000  Uiso   1.00
C185   C     0.64827   0.14753   0.33077   0.00000  Uiso   1.00
C186   C     0.63860   0.21487   0.34443   0.00000  Uiso   1.00
C187   C     0.66529   0.27315   0.29621   0.00000  Uiso   1.00
C188   C     0.65062   0.32953   0.31889   0.00000  Uiso   1.00
C189   C     0.64167   0.43439   0.32967   0.00000  Uiso   1.00
C190   C     0.58025   0.14222   0.33988   0.00000  Uiso   1.00
C191   C     0.55789   0.13941   0.28784   0.00000  Uiso   1.00
C192   C     0.49409   0.13463   0.30670   0.00000  Uiso   1.00
C193   C     0.39456   0.12665   0.31044   0.00000  Uiso   1.00
C194   C     0.67555   0.08311   0.39437   0.00000  Uiso   1.00
C195   C     0.73331   0.03058   0.38815   0.00000  Uiso   1.00
C196   C     0.74975   0.97602   0.45289   0.00000  Uiso   1.00
C197   C     0.79819   0.87626   0.54124   0.00000  Uiso   1.00
C198   C     0.57474   0.14403   0.45681   0.00000  Uiso   1.00
C199   C     0.59867   0.21297   0.41289   0.00000  Uiso   1.00
C200   C     0.58395   0.26928   0.43566   0.00000  Uiso   1.00
C201   C     0.61062   0.32763   0.38748   0.00000  Uiso   1.00
C202   C     0.54031   0.14032   0.40834   0.00000  Uiso   1.00
C203   C     0.47654   0.13554   0.42728   0.00000  Uiso   1.00
C204   C     0.45409   0.13272   0.37528   0.00000  Uiso   1.00
C205   C     0.63562   0.08121   0.46283   0.00000  Uiso   1.00
C206   C     0.65197   0.02671   0.52760   0.00000  Uiso   1.00
C207   C     0.70975   0.97411   0.52148   0.00000  Uiso   1.00
H208   H     0.67935   0.14901   0.27748   0.00000  Uiso   1.00
H209   H     0.69619   0.27460   0.24323   0.00000  Uiso   1.00
H210   H     0.58880   0.14087   0.23487   0.00000  Uiso   1.00
H211   H     0.76420   0.03207   0.33517   0.00000  Uiso   1.00
H212   H     0.69723   0.41301   0.23545   0.00000  Uiso   1.00
H213   H     0.47080   0.13102   0.21782   0.00000  Uiso   1.00
H214   H     0.84067   0.90158   0.42932   0.00000  Uiso   1.00
H215   H     0.54365   0.14255   0.51011   0.00000  Uiso   1.00
H216   H     0.55305   0.26779   0.48863   0.00000  Uiso   1.00
H217   H     0.44565   0.13407   0.48027   0.00000  Uiso   1.00
H218   H     0.62106   0.02526   0.58056   0.00000  Uiso   1.00
H219   H     0.58105   0.40749   0.43462   0.00000  Uiso   1.00
H220   H     0.35462   0.12549   0.41700   0.00000  Uiso   1.00
H221   H     0.72448   0.89605   0.62849   0.00000  Uiso   1.00
O222   O     0.64775   0.49276   0.31670   0.00000  Uiso   1.00
O223   O     0.35069   0.12279   0.29358   0.00000  Uiso   1.00
O224   O     0.83595   0.82177   0.57106   0.00000  Uiso   1.00
N225   N     0.66861   0.39452   0.28528   0.00000  Uiso   1.00
N226   N     0.45691   0.13088   0.26879   0.00000  Uiso   1.00
N227   N     0.80270   0.91636   0.46652   0.00000  Uiso   1.00
N228   N     0.60609   0.39155   0.39245   0.00000  Uiso   1.00
N229   N     0.39439   0.12791   0.37597   0.00000  Uiso   1.00
N230   N     0.74018   0.91339   0.57370   0.00000  Uiso   1.00
C231   C     0.15603   0.29800   0.63578   0.00000  Uiso   1.00
C232   C     0.21099   0.32087   0.63869   0.00000  Uiso   1.00
C233   C     0.26715   0.27440   0.66337   0.00000  Uiso   1.00
C234   C     0.31157   0.30597   0.66164   0.00000  Uiso   1.00
C235   C     0.39867   0.33002   0.67000   0.00000  Uiso   1.00
C236   C     0.14854   0.33624   0.55636   0.00000  Uiso   1.00
C237   C     0.15219   0.30269   0.51182   0.00000  Uiso   1.00
C238   C     0.14402   0.34720   0.44079   0.00000  Uiso   1.00
C239   C     0.13412   0.39512   0.32135   0.00000  Uiso   1.00
C240   C     0.09417   0.33196   0.68010   0.00000  Uiso   1.00
C241   C     0.05208   0.29480   0.73960   0.00000  Uiso   1.00
C242   C     0.99812   0.33571   0.77273   0.00000  Uiso   1.00
C243   C     0.90379   0.37696   0.84542   0.00000  Uiso   1.00
C244   C     0.13504   0.43672   0.58882   0.00000  Uiso   1.00
C245   C     0.19960   0.39622   0.61318   0.00000  Uiso   1.00
C246   C     0.24394   0.42787   0.61141   0.00000  Uiso   1.00
C247   C     0.30015   0.38145   0.63609   0.00000  Uiso   1.00
C248   C     0.13715   0.41159   0.53085   0.00000  Uiso   1.00
C249   C     0.12897   0.45616   0.45987   0.00000  Uiso   1.00
C250   C     0.13261   0.42268   0.41523   0.00000  Uiso   1.00
C251   C     0.08277   0.40730   0.65460   0.00000  Uiso   1.00
C252   C     0.02887   0.44827   0.68764   0.00000  Uiso   1.00
C253   C     0.98671   0.41119   0.74718   0.00000  Uiso   1.00
H254   H     0.16490   0.23935   0.65563   0.00000  Uiso   1.00
H255   H     0.27595   0.21609   0.68310   0.00000  Uiso   1.00
H256   H     0.16100   0.24438   0.53158   0.00000  Uiso   1.00
H257   H     0.06091   0.23650   0.75932   0.00000  Uiso   1.00
H258   H     0.39407   0.22354   0.70228   0.00000  Uiso   1.00
H259   H     0.15166   0.28319   0.38280   0.00000  Uiso   1.00
H260   H     0.94060   0.26656   0.86303   0.00000  Uiso   1.00
H261   H     0.12617   0.49538   0.56896   0.00000  Uiso   1.00
H262   H     0.23511   0.48617   0.59167   0.00000  Uiso   1.00
H263   H     0.12015   0.51446   0.44015   0.00000  Uiso   1.00
H264   H     0.02006   0.50657   0.66789   0.00000  Uiso   1.00
H265   H     0.36091   0.44274   0.62807   0.00000  Uiso   1.00
H266   H     0.11850   0.50240   0.30859   0.00000  Uiso   1.00
H267   H     0.90744   0.48577   0.78882   0.00000  Uiso   1.00
O268   O     0.44986   0.32247   0.68165   0.00000  Uiso   1.00
O269   O     0.13181   0.40073   0.26252   0.00000  Uiso   1.00
O270   O     0.85491   0.37891   0.89257   0.00000  Uiso   1.00
N271   N     0.37131   0.27639   0.68171   0.00000  Uiso   1.00
N272   N     0.14468   0.33216   0.38301   0.00000  Uiso   1.00
N273   N     0.94735   0.31661   0.83198   0.00000  Uiso   1.00
N274   N     0.35347   0.39434   0.64178   0.00000  Uiso   1.00
N275   N     0.12684   0.45012   0.34308   0.00000  Uiso   1.00
N276   N     0.92951   0.43457   0.79205   0.00000  Uiso   1.00
C277   C     0.16817   0.29390   0.97306   0.00000  Uiso   1.00
C278   C     0.14433   0.23836   0.96892   0.00000  Uiso   1.00
C279   C     0.17946   0.16793   0.97619   0.00000  Uiso   1.00
C280   C     0.14904   0.12561   0.97070   0.00000  Uiso   1.00
C281   C     0.12163   0.03521   0.96618   0.00000  Uiso   1.00
C282   C     0.11827   0.31803   0.03327   0.00000  Uiso   1.00
C283   C     0.13150   0.31460   0.09465   0.00000  Uiso   1.00
C284   C     0.07914   0.33937   0.14333   0.00000  Uiso   1.00
C285   C     0.01128   0.37272   0.23868   0.00000  Uiso   1.00
C286   C     0.16207   0.35964   0.90146   0.00000  Uiso   1.00
C287   C     0.21212   0.39120   0.85201   0.00000  Uiso   1.00
C288   C     0.19663   0.45101   0.78971   0.00000  Uiso   1.00
C289   C     0.19678   0.54896   0.68040   0.00000  Uiso   1.00
C290   C     0.05166   0.34399   0.95037   0.00000  Uiso   1.00
C291   C     0.08104   0.26557   0.95659   0.00000  Uiso   1.00
C292   C     0.05056   0.22335   0.95108   0.00000  Uiso   1.00
C293   C     0.08564   0.15287   0.95835   0.00000  Uiso   1.00
C294   C     0.05498   0.34524   0.02095   0.00000  Uiso   1.00
C295   C     0.00259   0.37002   0.06954   0.00000  Uiso   1.00
C296   C     0.01574   0.36662   0.13098   0.00000  Uiso   1.00
C297   C     0.09878   0.38685   0.88913   0.00000  Uiso   1.00
C298   C     0.08321   0.44662   0.82690   0.00000  Uiso   1.00
C299   C     0.13323   0.47827   0.77736   0.00000  Uiso   1.00
H300   H     0.21744   0.27272   0.98267   0.00000  Uiso   1.00
H301   H     0.22844   0.14689   0.98574   0.00000  Uiso   1.00
H302   H     0.18048   0.29355   0.10417   0.00000  Uiso   1.00
H303   H     0.26109   0.37013   0.86157   0.00000  Uiso   1.00
H304   H     0.21271   0.01937   0.98374   0.00000  Uiso   1.00
H305   H     0.11160   0.32863   0.23345   0.00000  Uiso   1.00
H306   H     0.28158   0.49013   0.72186   0.00000  Uiso   1.00
H307   H     0.00239   0.36518   0.94077   0.00000  Uiso   1.00
H308   H     0.00158   0.24442   0.94154   0.00000  Uiso   1.00
H309   H     0.95363   0.39108   0.05998   0.00000  Uiso   1.00
H310   H     0.03424   0.46766   0.81737   0.00000  Uiso   1.00
H311   H     0.02859   0.09853   0.94787   0.00000  Uiso   1.00
H312   H     0.92747   0.40780   0.19758   0.00000  Uiso   1.00
H313   H     0.09745   0.56929   0.68600   0.00000  Uiso   1.00
O314   O     0.12400   0.97783   0.96710   0.00000  Uiso   1.00
O315   O     0.99134   0.38359   0.29469   0.00000  Uiso   1.00
O316   O     0.21435   0.59546   0.62351   0.00000  Uiso   1.00
N317   N     0.16949   0.05458   0.97518   0.00000  Uiso   1.00
N318   N     0.07496   0.34371   0.20865   0.00000  Uiso   1.00
N319   N     0.23387   0.49471   0.73037   0.00000  Uiso   1.00
N320   N     0.07042   0.09717   0.95588   0.00000  Uiso   1.00
N321   N     0.97588   0.38630   0.18934   0.00000  Uiso   1.00
N322   N     0.13479   0.53730   0.71107   0.00000  Uiso   1.00
C323   C     0.93871   0.20217   0.27561   0.00000  Uiso   1.00
C324   C     0.92177   0.18349   0.22339   0.00000  Uiso   1.00
C325   C     0.91558   0.22881   0.15193   0.00000  Uiso   1.00
C326   C     0.89982   0.20163   0.11313   0.00000  Uiso   1.00
C327   C     0.87495   0.18325   0.02724   0.00000  Uiso   1.00
C328   C     0.99901   0.14360   0.29957   0.00000  Uiso   1.00
C329   C     0.05776   0.15538   0.29218   0.00000  Uiso   1.00
C330   C     0.10701   0.09463   0.31752   0.00000  Uiso   1.00
C331   C     0.20204   0.01432   0.34996   0.00000  Uiso   1.00
C332   C     0.88372   0.19112   0.34371   0.00000  Uiso   1.00
C333   C     0.84554   0.24286   0.37344   0.00000  Uiso   1.00
C334   C     0.79774   0.22211   0.43596   0.00000  Uiso   1.00
C335   C     0.71377   0.21560   0.53692   0.00000  Uiso   1.00
C336   C     0.92172   0.07331   0.33378   0.00000  Uiso   1.00
C337   C     0.91254   0.11349   0.25499   0.00000  Uiso   1.00
C338   C     0.89678   0.08624   0.21629   0.00000  Uiso   1.00
C339   C     0.89057   0.13151   0.14479   0.00000  Uiso   1.00
C340   C     0.98978   0.07361   0.33117   0.00000  Uiso   1.00
C341   C     0.03896   0.01281   0.35654   0.00000  Uiso   1.00
C342   C     0.09777   0.02451   0.34918   0.00000  Uiso   1.00
C343   C     0.87449   0.12113   0.37531   0.00000  Uiso   1.00
C344   C     0.82674   0.10029   0.43780   0.00000  Uiso   1.00
C345   C     0.78850   0.15199   0.46761   0.00000  Uiso   1.00
H346   H     0.94590   0.25666   0.25101   0.00000  Uiso   1.00
H347   H     0.92273   0.28297   0.12750   0.00000  Uiso   1.00
H348   H     0.06488   0.20955   0.26773   0.00000  Uiso   1.00
H349   H     0.85270   0.29702   0.34898   0.00000  Uiso   1.00
H350   H     0.89300   0.28126   0.00449   0.00000  Uiso   1.00
H351   H     0.19273   0.12646   0.30020   0.00000  Uiso   1.00
H352   H     0.74529   0.31090   0.47153   0.00000  Uiso   1.00
H353   H     0.91454   0.01882   0.35838   0.00000  Uiso   1.00
H354   H     0.88964   0.03207   0.24075   0.00000  Uiso   1.00
H355   H     0.03180   0.95866   0.38099   0.00000  Uiso   1.00
H356   H     0.81962   0.04613   0.46223   0.00000  Uiso   1.00
H357   H     0.86615   0.07762   0.09641   0.00000  Uiso   1.00
H358   H     0.16588   0.92283   0.39213   0.00000  Uiso   1.00
H359   H     0.71845   0.10727   0.56345   0.00000  Uiso   1.00
O360   O     0.86379   0.19244   0.97113   0.00000  Uiso   1.00
O361   O     0.25701   0.98936   0.35911   0.00000  Uiso   1.00
O362   O     0.66999   0.23134   0.58388   0.00000  Uiso   1.00
N363   N     0.89008   0.23152   0.04227   0.00000  Uiso   1.00
N364   N     0.17031   0.08680   0.31873   0.00000  Uiso   1.00
N365   N     0.75201   0.25922   0.47892   0.00000  Uiso   1.00
N366   N     0.87563   0.12194   0.09173   0.00000  Uiso   1.00
N367   N     0.15587   0.97722   0.36820   0.00000  Uiso   1.00
N368   N     0.73757   0.14965   0.52838   0.00000  Uiso   1.00
C369   C     0.34919   0.86859   0.20551   0.00000  Uiso   1.00
C370   C     0.29144   0.86672   0.18549   0.00000  Uiso   1.00
C371   C     0.23722   0.84337   0.23478   0.00000  Uiso   1.00
C372   C     0.18965   0.84589   0.20552   0.00000  Uiso   1.00
C373   C     0.09896   0.83921   0.18596   0.00000  Uiso   1.00
C374   C     0.35495   0.94670   0.16552   0.00000  Uiso   1.00
C375   C     0.35414   0.99058   0.19802   0.00000  Uiso   1.00
C376   C     0.36005   0.06042   0.15196   0.00000  Uiso   1.00
C377   C     0.36802   0.17790   0.10139   0.00000  Uiso   1.00
C378   C     0.40937   0.82389   0.16987   0.00000  Uiso   1.00
C379   C     0.45433   0.76453   0.20601   0.00000  Uiso   1.00
C380   C     0.50606   0.73099   0.16359   0.00000  Uiso   1.00
C381   C     0.59853   0.65779   0.11977   0.00000  Uiso   1.00
C382   C     0.36113   0.91459   0.06592   0.00000  Uiso   1.00
C383   C     0.29792   0.89171   0.10967   0.00000  Uiso   1.00
C384   C     0.25042   0.89426   0.08033   0.00000  Uiso   1.00
C385   C     0.19614   0.87091   0.12956   0.00000  Uiso   1.00
C386   C     0.36143   0.97168   0.08970   0.00000  Uiso   1.00
C387   C     0.36735   0.04148   0.04358   0.00000  Uiso   1.00
C388   C     0.36654   0.08546   0.07600   0.00000  Uiso   1.00
C389   C     0.41585   0.84888   0.09404   0.00000  Uiso   1.00
C390   C     0.46753   0.81542   0.05156   0.00000  Uiso   1.00
C391   C     0.51256   0.75602   0.08764   0.00000  Uiso   1.00
H392   H     0.34415   0.84914   0.26454   0.00000  Uiso   1.00
H393   H     0.23222   0.82404   0.29345   0.00000  Uiso   1.00
H394   H     0.34913   0.97123   0.25670   0.00000  Uiso   1.00
H395   H     0.44930   0.74521   0.26468   0.00000  Uiso   1.00
H396   H     0.11097   0.80725   0.29206   0.00000  Uiso   1.00
H397   H     0.35751   0.11760   0.21457   0.00000  Uiso   1.00
H398   H     0.56874   0.64099   0.23141   0.00000  Uiso   1.00
H399   H     0.36618   0.93405   0.00689   0.00000  Uiso   1.00
H400   H     0.25545   0.91360   0.02165   0.00000  Uiso   1.00
H401   H     0.37237   0.06079   0.98491   0.00000  Uiso   1.00
H402   H     0.47253   0.83478   0.99289   0.00000  Uiso   1.00
H403   H     0.12982   0.87995   0.07146   0.00000  Uiso   1.00
H404   H     0.37637   0.19029   0.99397   0.00000  Uiso   1.00
H405   H     0.58759   0.71369   0.01081   0.00000  Uiso   1.00
O406   O     0.04715   0.82864   0.19612   0.00000  Uiso   1.00
O407   O     0.37062   0.23579   0.09446   0.00000  Uiso   1.00
O408   O     0.64774   0.61050   0.11655   0.00000  Uiso   1.00
N409   N     0.13061   0.82715   0.23811   0.00000  Uiso   1.00
N410   N     0.36110   0.11731   0.16567   0.00000  Uiso   1.00
N411   N     0.55859   0.67174   0.18141   0.00000  Uiso   1.00
N412   N     0.14075   0.86627   0.11941   0.00000  Uiso   1.00
N413   N     0.37125   0.15643   0.04696   0.00000  Uiso   1.00
N414   N     0.56873   0.71086   0.06270   0.00000  Uiso   1.00
C415   C     0.65344   0.47796   0.78250   0.00000  Uiso   1.00
C416   C     0.62399   0.47757   0.72760   0.00000  Uiso   1.00
C417   C     0.65439   0.48557   0.65550   0.00000  Uiso   1.00
C418   C     0.61925   0.48369   0.61414   0.00000  Uiso   1.00
C419   C     0.58313   0.48457   0.52436   0.00000  Uiso   1.00
C420   C     0.60631   0.53756   0.80916   0.00000  Uiso   1.00
C421   C     0.62186   0.59599   0.80563   0.00000  Uiso   1.00
C422   C     0.57184   0.64461   0.83294   0.00000  Uiso   1.00
C423   C     0.50829   0.73859   0.86982   0.00000  Uiso   1.00
C424   C     0.65019   0.40673   0.84828   0.00000  Uiso   1.00
C425   C     0.70263   0.35517   0.87766   0.00000  Uiso   1.00
C426   C     0.68956   0.29364   0.93791   0.00000  Uiso   1.00
C427   C     0.69414   0.18450   0.03554   0.00000  Uiso   1.00
C428   C     0.53697   0.46041   0.83727   0.00000  Uiso   1.00
C429   C     0.56072   0.46804   0.75735   0.00000  Uiso   1.00
C430   C     0.52553   0.46614   0.71609   0.00000  Uiso   1.00
C431   C     0.55588   0.47413   0.64394   0.00000  Uiso   1.00
C432   C     0.54305   0.52803   0.83891   0.00000  Uiso   1.00
C433   C     0.49300   0.57657   0.86623   0.00000  Uiso   1.00
C434   C     0.50846   0.63506   0.86274   0.00000  Uiso   1.00
C435   C     0.58693   0.39719   0.87803   0.00000  Uiso   1.00
C436   C     0.57377   0.33574   0.93825   0.00000  Uiso   1.00
C437   C     0.62618   0.28409   0.96772   0.00000  Uiso   1.00
H438   H     0.70269   0.48539   0.75934   0.00000  Uiso   1.00
H439   H     0.70335   0.49295   0.63249   0.00000  Uiso   1.00
H440   H     0.67082   0.60335   0.78262   0.00000  Uiso   1.00
H441   H     0.75158   0.36257   0.85463   0.00000  Uiso   1.00
H442   H     0.67617   0.49716   0.50497   0.00000  Uiso   1.00
H443   H     0.60759   0.72993   0.82153   0.00000  Uiso   1.00
H444   H     0.77790   0.22218   0.97338   0.00000  Uiso   1.00
H445   H     0.48771   0.45298   0.86043   0.00000  Uiso   1.00
H446   H     0.47657   0.45876   0.73913   0.00000  Uiso   1.00
H447   H     0.44405   0.56917   0.88925   0.00000  Uiso   1.00
H448   H     0.52481   0.32838   0.96126   0.00000  Uiso   1.00
H449   H     0.49211   0.46941   0.59152   0.00000  Uiso   1.00
H450   H     0.42353   0.70218   0.90808   0.00000  Uiso   1.00
H451   H     0.59383   0.19444   0.05993   0.00000  Uiso   1.00
O452   O     0.58069   0.48769   0.46661   0.00000  Uiso   1.00
O453   O     0.49072   0.79308   0.88194   0.00000  Uiso   1.00
O454   O     0.71415   0.12692   0.08116   0.00000  Uiso   1.00
N455   N     0.63439   0.48982   0.54199   0.00000  Uiso   1.00
N456   N     0.57027   0.70745   0.83794   0.00000  Uiso   1.00
N457   N     0.72948   0.23276   0.97992   0.00000  Uiso   1.00
N458   N     0.53534   0.47489   0.58856   0.00000  Uiso   1.00
N459   N     0.47123   0.69252   0.88451   0.00000  Uiso   1.00
N460   N     0.63044   0.21783   0.02649   0.00000  Uiso   1.00
C461   C     0.35173   0.85247   0.66923   0.00000  Uiso   1.00
C462   C     0.36140   0.78513   0.65557   0.00000  Uiso   1.00
C463   C     0.33471   0.72685   0.70379   0.00000  Uiso   1.00
C464   C     0.34938   0.67047   0.68111   0.00000  Uiso   1.00
C465   C     0.35833   0.56561   0.67033   0.00000  Uiso   1.00
C466   C     0.41975   0.85778   0.66012   0.00000  Uiso   1.00
C467   C     0.44211   0.86059   0.71216   0.00000  Uiso   1.00
C468   C     0.50591   0.86537   0.69330   0.00000  Uiso   1.00
C469   C     0.60544   0.87335   0.68956   0.00000  Uiso   1.00
C470   C     0.32445   0.91689   0.60563   0.00000  Uiso   1.00
C471   C     0.26669   0.96942   0.61185   0.00000  Uiso   1.00
C472   C     0.25025   0.02398   0.54711   0.00000  Uiso   1.00
C473   C     0.20181   0.12374   0.45876   0.00000  Uiso   1.00
C474   C     0.42526   0.85597   0.54319   0.00000  Uiso   1.00
C475   C     0.40133   0.78703   0.58711   0.00000  Uiso   1.00
C476   C     0.41605   0.73072   0.56434   0.00000  Uiso   1.00
C477   C     0.38938   0.67237   0.61252   0.00000  Uiso   1.00
C478   C     0.45969   0.85968   0.59166   0.00000  Uiso   1.00
C479   C     0.52346   0.86446   0.57272   0.00000  Uiso   1.00
C480   C     0.54591   0.86728   0.62472   0.00000  Uiso   1.00
C481   C     0.36438   0.91879   0.53717   0.00000  Uiso   1.00
C482   C     0.34803   0.97329   0.47240   0.00000  Uiso   1.00
C483   C     0.29025   0.02589   0.47852   0.00000  Uiso   1.00
H484   H     0.32065   0.85099   0.72252   0.00000  Uiso   1.00
H485   H     0.30381   0.72540   0.75677   0.00000  Uiso   1.00
H486   H     0.41120   0.85913   0.76513   0.00000  Uiso   1.00
H487   H     0.23580   0.96793   0.66483   0.00000  Uiso   1.00
H488   H     0.30277   0.58699   0.76455   0.00000  Uiso   1.00
H489   H     0.52920   0.86898   0.78218   0.00000  Uiso   1.00
H490   H     0.15933   0.09842   0.57068   0.00000  Uiso   1.00
H491   H     0.45635   0.85745   0.48989   0.00000  Uiso   1.00
H492   H     0.44695   0.73221   0.51137   0.00000  Uiso   1.00
H493   H     0.55435   0.86593   0.51973   0.00000  Uiso   1.00
H494   H     0.37894   0.97474   0.41944   0.00000  Uiso   1.00
H495   H     0.41895   0.59251   0.56538   0.00000  Uiso   1.00
H496   H     0.64538   0.87451   0.58300   0.00000  Uiso   1.00
H497   H     0.27552   0.10395   0.37151   0.00000  Uiso   1.00
O498   O     0.35225   0.50724   0.68330   0.00000  Uiso   1.00
O499   O     0.64931   0.87721   0.70642   0.00000  Uiso   1.00
O500   O     0.16405   0.17823   0.42894   0.00000  Uiso   1.00
N501   N     0.33139   0.60548   0.71472   0.00000  Uiso   1.00
N502   N     0.54309   0.86912   0.73121   0.00000  Uiso   1.00
N503   N     0.19730   0.08364   0.53348   0.00000  Uiso   1.00
N504   N     0.39391   0.60845   0.60755   0.00000  Uiso   1.00
N505   N     0.60561   0.87209   0.62403   0.00000  Uiso   1.00
N506   N     0.25982   0.08661   0.42630   0.00000  Uiso   1.00
C507   C     0.84397   0.70200   0.36422   0.00000  Uiso   1.00
C508   C     0.78901   0.67913   0.36131   0.00000  Uiso   1.00
C509   C     0.73285   0.72560   0.33663   0.00000  Uiso   1.00
C510   C     0.68843   0.69403   0.33836   0.00000  Uiso   1.00
C511   C     0.60133   0.66998   0.33000   0.00000  Uiso   1.00
C512   C     0.85146   0.66376   0.44364   0.00000  Uiso   1.00
C513   C     0.84781   0.69731   0.48818   0.00000  Uiso   1.00
C514   C     0.85598   0.65280   0.55921   0.00000  Uiso   1.00
C515   C     0.86588   0.60488   0.67865   0.00000  Uiso   1.00
C516   C     0.90583   0.66804   0.31990   0.00000  Uiso   1.00
C517   C     0.94792   0.70520   0.26040   0.00000  Uiso   1.00
C518   C     0.00188   0.66429   0.22727   0.00000  Uiso   1.00
C519   C     0.09621   0.62304   0.15458   0.00000  Uiso   1.00
C520   C     0.86496   0.56328   0.41118   0.00000  Uiso   1.00
C521   C     0.80040   0.60378   0.38682   0.00000  Uiso   1.00
C522   C     0.75606   0.57213   0.38859   0.00000  Uiso   1.00
C523   C     0.69985   0.61855   0.36391   0.00000  Uiso   1.00
C524   C     0.86285   0.58841   0.46915   0.00000  Uiso   1.00
C525   C     0.87103   0.54384   0.54013   0.00000  Uiso   1.00
C526   C     0.86739   0.57732   0.58477   0.00000  Uiso   1.00
C527   C     0.91723   0.59270   0.34540   0.00000  Uiso   1.00
C528   C     0.97113   0.55173   0.31236   0.00000  Uiso   1.00
C529   C     0.01329   0.58881   0.25282   0.00000  Uiso   1.00
H530   H     0.83510   0.76065   0.34437   0.00000  Uiso   1.00
H531   H     0.72405   0.78391   0.31690   0.00000  Uiso   1.00
H532   H     0.83900   0.75562   0.46842   0.00000  Uiso   1.00
H533   H     0.93909   0.76350   0.24068   0.00000  Uiso   1.00
H534   H     0.60593   0.77646   0.29772   0.00000  Uiso   1.00
H535   H     0.84834   0.71681   0.61720   0.00000  Uiso   1.00
H536   H     0.05940   0.73344   0.13697   0.00000  Uiso   1.00
H537   H     0.87383   0.50462   0.43104   0.00000  Uiso   1.00
H538   H     0.76489   0.51383   0.40833   0.00000  Uiso   1.00
H539   H     0.87985   0.48554   0.55985   0.00000  Uiso   1.00
H540   H     0.97994   0.49343   0.33211   0.00000  Uiso   1.00
H541   H     0.63909   0.55726   0.37193   0.00000  Uiso   1.00
H542   H     0.88150   0.49760   0.69141   0.00000  Uiso   1.00
H543   H     0.09256   0.51423   0.21118   0.00000  Uiso   1.00
O544   O     0.55014   0.67753   0.31835   0.00000  Uiso   1.00
O545   O     0.86819   0.59927   0.73748   0.00000  Uiso   1.00
O546   O     0.14509   0.62109   0.10743   0.00000  Uiso   1.00
N547   N     0.62869   0.72361   0.31829   0.00000  Uiso   1.00
N548   N     0.85532   0.66784   0.61699   0.00000  Uiso   1.00
N549   N     0.05265   0.68339   0.16802   0.00000  Uiso   1.00
N550   N     0.64653   0.60566   0.35822   0.00000  Uiso   1.00
N551   N     0.87316   0.54988   0.65692   0.00000  Uiso   1.00
N552   N     0.07049   0.56543   0.20795   0.00000  Uiso   1.00
