data_job_01418
_audit_creation_date              2018-12-19
_audit_creation_method            'Materials Studio'
_symmetry_space_group_name_H-M    'P1'
_symmetry_Int_Tables_number       1
_symmetry_cell_setting            triclinic
loop_
_symmetry_equiv_pos_as_xyz
  x,y,z
_cell_length_a                    15.9694
_cell_length_b                    19.2394
_cell_length_c                    20.3285
_cell_angle_alpha                 90.0000
_cell_angle_beta                  90.0000
_cell_angle_gamma                 90.0000
loop_
_atom_site_label
_atom_site_type_symbol
_atom_site_fract_x
_atom_site_fract_y
_atom_site_fract_z
_atom_site_U_iso_or_equiv
_atom_site_adp_type
_atom_site_occupancy
C1     C     0.99329   0.43788   0.32626   0.00000  Uiso   1.00
C2     C     0.92979   0.47796   0.36748   0.00000  Uiso   1.00
C3     C     0.94571   0.53847   0.40247   0.00000  Uiso   1.00
C4     C     0.87926   0.56718   0.43713   0.00000  Uiso   1.00
C5     C     0.79277   0.63408   0.50123   0.00000  Uiso   1.00
C6     C     0.99388   0.36401   0.35345   0.00000  Uiso   1.00
C7     C     0.06370   0.32872   0.37662   0.00000  Uiso   1.00
C8     C     0.05121   0.26150   0.39945   0.00000  Uiso   1.00
C9     C     0.06423   0.15147   0.44172   0.00000  Uiso   1.00
C10    C     0.95592   0.43286   0.25739   0.00000  Uiso   1.00
C11    C     0.99382   0.45543   0.19979   0.00000  Uiso   1.00
C12    C     0.94937   0.44617   0.14175   0.00000  Uiso   1.00
C13    C     0.90344   0.44303   0.03487   0.00000  Uiso   1.00
C14    C     0.84696   0.38126   0.32560   0.00000  Uiso   1.00
C15    C     0.85031   0.44720   0.36713   0.00000  Uiso   1.00
C16    C     0.78381   0.47583   0.40174   0.00000  Uiso   1.00
C17    C     0.79964   0.53638   0.43677   0.00000  Uiso   1.00
C18    C     0.91441   0.33325   0.35309   0.00000  Uiso   1.00
C19    C     0.90181   0.26607   0.37589   0.00000  Uiso   1.00
C20    C     0.97159   0.23069   0.39910   0.00000  Uiso   1.00
C21    C     0.87643   0.40210   0.25703   0.00000  Uiso   1.00
C22    C     0.83192   0.39279   0.19907   0.00000  Uiso   1.00
C23    C     0.86974   0.41535   0.14140   0.00000  Uiso   1.00
H24    H     0.05517   0.46182   0.32653   0.00000  Uiso   1.00
H25    H     0.00723   0.56226   0.40273   0.00000  Uiso   1.00
H26    H     0.12520   0.35253   0.37688   0.00000  Uiso   1.00
H27    H     0.05533   0.47923   0.20009   0.00000  Uiso   1.00
H28    H     0.91904   0.66003   0.48708   0.00000  Uiso   1.00
H29    H     0.16780   0.21780   0.43255   0.00000  Uiso   1.00
H30    H     0.02045   0.48498   0.05974   0.00000  Uiso   1.00
H31    H     0.78508   0.35731   0.32532   0.00000  Uiso   1.00
H32    H     0.72231   0.45202   0.40146   0.00000  Uiso   1.00
H33    H     0.84029   0.24229   0.37561   0.00000  Uiso   1.00
H34    H     0.77041   0.36899   0.19881   0.00000  Uiso   1.00
H35    H     0.68779   0.57056   0.48605   0.00000  Uiso   1.00
H36    H     0.93655   0.12832   0.43151   0.00000  Uiso   1.00
H37    H     0.78920   0.39550   0.05871   0.00000  Uiso   1.00
O38    O     0.76701   0.67947   0.53669   0.00000  Uiso   1.00
O39    O     0.09337   0.09928   0.46513   0.00000  Uiso   1.00
O40    O     0.90006   0.44981   0.97602   0.00000  Uiso   1.00
N41    N     0.87323   0.62599   0.47638   0.00000  Uiso   1.00
N42    N     0.10580   0.21253   0.42541   0.00000  Uiso   1.00
N43    N     0.96805   0.46230   0.07686   0.00000  Uiso   1.00
N44    N     0.74879   0.57784   0.47582   0.00000  Uiso   1.00
N45    N     0.98136   0.16438   0.42485   0.00000  Uiso   1.00
N46    N     0.84362   0.41415   0.07630   0.00000  Uiso   1.00
C47    C     0.50671   0.06212   0.32626   0.00000  Uiso   1.00
C48    C     0.57021   0.02204   0.36748   0.00000  Uiso   1.00
C49    C     0.55429   0.96153   0.40247   0.00000  Uiso   1.00
C50    C     0.62074   0.93282   0.43713   0.00000  Uiso   1.00
C51    C     0.70723   0.86592   0.50123   0.00000  Uiso   1.00
C52    C     0.50612   0.13599   0.35345   0.00000  Uiso   1.00
C53    C     0.43630   0.17128   0.37662   0.00000  Uiso   1.00
C54    C     0.44879   0.23850   0.39945   0.00000  Uiso   1.00
C55    C     0.43577   0.34853   0.44172   0.00000  Uiso   1.00
C56    C     0.54408   0.06714   0.25739   0.00000  Uiso   1.00
C57    C     0.50618   0.04457   0.19979   0.00000  Uiso   1.00
C58    C     0.55063   0.05383   0.14175   0.00000  Uiso   1.00
C59    C     0.59656   0.05697   0.03487   0.00000  Uiso   1.00
C60    C     0.65304   0.11874   0.32560   0.00000  Uiso   1.00
C61    C     0.64969   0.05280   0.36713   0.00000  Uiso   1.00
C62    C     0.71619   0.02417   0.40174   0.00000  Uiso   1.00
C63    C     0.70036   0.96362   0.43677   0.00000  Uiso   1.00
C64    C     0.58559   0.16675   0.35309   0.00000  Uiso   1.00
C65    C     0.59819   0.23393   0.37589   0.00000  Uiso   1.00
C66    C     0.52841   0.26931   0.39910   0.00000  Uiso   1.00
C67    C     0.62357   0.09790   0.25703   0.00000  Uiso   1.00
C68    C     0.66808   0.10721   0.19907   0.00000  Uiso   1.00
C69    C     0.63026   0.08465   0.14140   0.00000  Uiso   1.00
H70    H     0.44483   0.03818   0.32653   0.00000  Uiso   1.00
H71    H     0.49277   0.93774   0.40273   0.00000  Uiso   1.00
H72    H     0.37480   0.14747   0.37688   0.00000  Uiso   1.00
H73    H     0.44467   0.02077   0.20009   0.00000  Uiso   1.00
H74    H     0.58096   0.83997   0.48708   0.00000  Uiso   1.00
H75    H     0.33220   0.28220   0.43255   0.00000  Uiso   1.00
H76    H     0.47955   0.01502   0.05974   0.00000  Uiso   1.00
H77    H     0.71492   0.14269   0.32532   0.00000  Uiso   1.00
H78    H     0.77769   0.04798   0.40146   0.00000  Uiso   1.00
H79    H     0.65971   0.25771   0.37561   0.00000  Uiso   1.00
H80    H     0.72959   0.13101   0.19881   0.00000  Uiso   1.00
H81    H     0.81221   0.92944   0.48605   0.00000  Uiso   1.00
H82    H     0.56345   0.37168   0.43151   0.00000  Uiso   1.00
H83    H     0.71080   0.10450   0.05871   0.00000  Uiso   1.00
O84    O     0.73299   0.82053   0.53669   0.00000  Uiso   1.00
O85    O     0.40663   0.40072   0.46513   0.00000  Uiso   1.00
O86    O     0.59994   0.05019   0.97602   0.00000  Uiso   1.00
N87    N     0.62677   0.87401   0.47638   0.00000  Uiso   1.00
N88    N     0.39420   0.28747   0.42541   0.00000  Uiso   1.00
N89    N     0.53195   0.03770   0.07686   0.00000  Uiso   1.00
N90    N     0.75121   0.92216   0.47582   0.00000  Uiso   1.00
N91    N     0.51864   0.33562   0.42485   0.00000  Uiso   1.00
N92    N     0.65638   0.08585   0.07630   0.00000  Uiso   1.00
C93    C     0.00671   0.93788   0.17374   0.00000  Uiso   1.00
C94    C     0.07021   0.97796   0.13252   0.00000  Uiso   1.00
C95    C     0.05429   0.03847   0.09753   0.00000  Uiso   1.00
C96    C     0.12074   0.06718   0.06287   0.00000  Uiso   1.00
C97    C     0.20723   0.13408   0.99877   0.00000  Uiso   1.00
C98    C     0.00612   0.86401   0.14655   0.00000  Uiso   1.00
C99    C     0.93630   0.82872   0.12338   0.00000  Uiso   1.00
C100   C     0.94879   0.76150   0.10055   0.00000  Uiso   1.00
C101   C     0.93577   0.65147   0.05828   0.00000  Uiso   1.00
C102   C     0.04408   0.93286   0.24261   0.00000  Uiso   1.00
C103   C     0.00618   0.95543   0.30021   0.00000  Uiso   1.00
C104   C     0.05063   0.94617   0.35825   0.00000  Uiso   1.00
C105   C     0.09656   0.94303   0.46513   0.00000  Uiso   1.00
C106   C     0.15304   0.88126   0.17440   0.00000  Uiso   1.00
C107   C     0.14969   0.94720   0.13287   0.00000  Uiso   1.00
C108   C     0.21619   0.97583   0.09826   0.00000  Uiso   1.00
C109   C     0.20036   0.03638   0.06323   0.00000  Uiso   1.00
C110   C     0.08559   0.83325   0.14691   0.00000  Uiso   1.00
C111   C     0.09819   0.76607   0.12411   0.00000  Uiso   1.00
C112   C     0.02841   0.73069   0.10090   0.00000  Uiso   1.00
C113   C     0.12357   0.90210   0.24297   0.00000  Uiso   1.00
C114   C     0.16808   0.89279   0.30093   0.00000  Uiso   1.00
C115   C     0.13026   0.91535   0.35860   0.00000  Uiso   1.00
H116   H     0.94483   0.96182   0.17347   0.00000  Uiso   1.00
H117   H     0.99277   0.06226   0.09727   0.00000  Uiso   1.00
H118   H     0.87480   0.85253   0.12312   0.00000  Uiso   1.00
H119   H     0.94467   0.97923   0.29991   0.00000  Uiso   1.00
H120   H     0.08096   0.16003   0.01292   0.00000  Uiso   1.00
H121   H     0.83220   0.71780   0.06745   0.00000  Uiso   1.00
H122   H     0.97955   0.98498   0.44026   0.00000  Uiso   1.00
H123   H     0.21492   0.85731   0.17468   0.00000  Uiso   1.00
H124   H     0.27769   0.95202   0.09854   0.00000  Uiso   1.00
H125   H     0.15971   0.74229   0.12439   0.00000  Uiso   1.00
H126   H     0.22959   0.86899   0.30119   0.00000  Uiso   1.00
H127   H     0.31221   0.07056   0.01395   0.00000  Uiso   1.00
H128   H     0.06345   0.62832   0.06849   0.00000  Uiso   1.00
H129   H     0.21080   0.89550   0.44129   0.00000  Uiso   1.00
O130   O     0.23299   0.17947   0.96331   0.00000  Uiso   1.00
O131   O     0.90663   0.59928   0.03487   0.00000  Uiso   1.00
O132   O     0.09994   0.94981   0.52398   0.00000  Uiso   1.00
N133   N     0.12677   0.12599   0.02362   0.00000  Uiso   1.00
N134   N     0.89420   0.71253   0.07459   0.00000  Uiso   1.00
N135   N     0.03195   0.96230   0.42314   0.00000  Uiso   1.00
N136   N     0.25121   0.07784   0.02418   0.00000  Uiso   1.00
N137   N     0.01864   0.66438   0.07515   0.00000  Uiso   1.00
N138   N     0.15638   0.91415   0.42370   0.00000  Uiso   1.00
C139   C     0.49329   0.56212   0.17374   0.00000  Uiso   1.00
C140   C     0.42979   0.52204   0.13252   0.00000  Uiso   1.00
C141   C     0.44571   0.46153   0.09753   0.00000  Uiso   1.00
C142   C     0.37926   0.43282   0.06287   0.00000  Uiso   1.00
C143   C     0.29277   0.36592   0.99877   0.00000  Uiso   1.00
C144   C     0.49388   0.63599   0.14655   0.00000  Uiso   1.00
C145   C     0.56370   0.67128   0.12338   0.00000  Uiso   1.00
C146   C     0.55121   0.73850   0.10055   0.00000  Uiso   1.00
C147   C     0.56423   0.84853   0.05828   0.00000  Uiso   1.00
C148   C     0.45592   0.56714   0.24261   0.00000  Uiso   1.00
C149   C     0.49382   0.54457   0.30021   0.00000  Uiso   1.00
C150   C     0.44937   0.55383   0.35825   0.00000  Uiso   1.00
C151   C     0.40344   0.55697   0.46513   0.00000  Uiso   1.00
C152   C     0.34696   0.61874   0.17440   0.00000  Uiso   1.00
C153   C     0.35031   0.55280   0.13287   0.00000  Uiso   1.00
C154   C     0.28381   0.52417   0.09826   0.00000  Uiso   1.00
C155   C     0.29964   0.46362   0.06323   0.00000  Uiso   1.00
C156   C     0.41441   0.66675   0.14691   0.00000  Uiso   1.00
C157   C     0.40181   0.73393   0.12411   0.00000  Uiso   1.00
C158   C     0.47159   0.76931   0.10090   0.00000  Uiso   1.00
C159   C     0.37643   0.59790   0.24297   0.00000  Uiso   1.00
C160   C     0.33192   0.60721   0.30093   0.00000  Uiso   1.00
C161   C     0.36974   0.58465   0.35860   0.00000  Uiso   1.00
H162   H     0.55517   0.53818   0.17347   0.00000  Uiso   1.00
H163   H     0.50723   0.43774   0.09727   0.00000  Uiso   1.00
H164   H     0.62520   0.64747   0.12312   0.00000  Uiso   1.00
H165   H     0.55533   0.52077   0.29991   0.00000  Uiso   1.00
H166   H     0.41904   0.33997   0.01292   0.00000  Uiso   1.00
H167   H     0.66780   0.78220   0.06745   0.00000  Uiso   1.00
H168   H     0.52045   0.51502   0.44026   0.00000  Uiso   1.00
H169   H     0.28508   0.64269   0.17468   0.00000  Uiso   1.00
H170   H     0.22231   0.54798   0.09854   0.00000  Uiso   1.00
H171   H     0.34029   0.75771   0.12439   0.00000  Uiso   1.00
H172   H     0.27041   0.63101   0.30119   0.00000  Uiso   1.00
H173   H     0.18779   0.42944   0.01395   0.00000  Uiso   1.00
H174   H     0.43655   0.87168   0.06849   0.00000  Uiso   1.00
H175   H     0.28920   0.60450   0.44129   0.00000  Uiso   1.00
O176   O     0.26701   0.32053   0.96331   0.00000  Uiso   1.00
O177   O     0.59337   0.90072   0.03487   0.00000  Uiso   1.00
O178   O     0.40006   0.55019   0.52398   0.00000  Uiso   1.00
N179   N     0.37323   0.37401   0.02362   0.00000  Uiso   1.00
N180   N     0.60580   0.78747   0.07459   0.00000  Uiso   1.00
N181   N     0.46805   0.53770   0.42314   0.00000  Uiso   1.00
N182   N     0.24879   0.42216   0.02418   0.00000  Uiso   1.00
N183   N     0.48136   0.83562   0.07515   0.00000  Uiso   1.00
N184   N     0.34362   0.58585   0.42370   0.00000  Uiso   1.00
C185   C     0.00671   0.56212   0.67374   0.00000  Uiso   1.00
C186   C     0.07021   0.52204   0.63252   0.00000  Uiso   1.00
C187   C     0.05429   0.46153   0.59753   0.00000  Uiso   1.00
C188   C     0.12074   0.43282   0.56287   0.00000  Uiso   1.00
C189   C     0.20723   0.36592   0.49877   0.00000  Uiso   1.00
C190   C     0.00612   0.63599   0.64655   0.00000  Uiso   1.00
C191   C     0.93630   0.67128   0.62338   0.00000  Uiso   1.00
C192   C     0.94879   0.73850   0.60055   0.00000  Uiso   1.00
C193   C     0.93577   0.84853   0.55828   0.00000  Uiso   1.00
C194   C     0.04408   0.56714   0.74261   0.00000  Uiso   1.00
C195   C     0.00618   0.54457   0.80021   0.00000  Uiso   1.00
C196   C     0.05063   0.55383   0.85825   0.00000  Uiso   1.00
C197   C     0.09656   0.55697   0.96513   0.00000  Uiso   1.00
C198   C     0.15304   0.61874   0.67440   0.00000  Uiso   1.00
C199   C     0.14969   0.55280   0.63287   0.00000  Uiso   1.00
C200   C     0.21619   0.52417   0.59826   0.00000  Uiso   1.00
C201   C     0.20036   0.46362   0.56323   0.00000  Uiso   1.00
C202   C     0.08559   0.66675   0.64691   0.00000  Uiso   1.00
C203   C     0.09819   0.73393   0.62411   0.00000  Uiso   1.00
C204   C     0.02841   0.76931   0.60090   0.00000  Uiso   1.00
C205   C     0.12357   0.59790   0.74297   0.00000  Uiso   1.00
C206   C     0.16808   0.60721   0.80093   0.00000  Uiso   1.00
C207   C     0.13026   0.58465   0.85860   0.00000  Uiso   1.00
H208   H     0.94483   0.53818   0.67347   0.00000  Uiso   1.00
H209   H     0.99277   0.43774   0.59727   0.00000  Uiso   1.00
H210   H     0.87480   0.64747   0.62312   0.00000  Uiso   1.00
H211   H     0.94467   0.52077   0.79991   0.00000  Uiso   1.00
H212   H     0.08096   0.33997   0.51292   0.00000  Uiso   1.00
H213   H     0.83220   0.78220   0.56745   0.00000  Uiso   1.00
H214   H     0.97955   0.51502   0.94026   0.00000  Uiso   1.00
H215   H     0.21492   0.64269   0.67468   0.00000  Uiso   1.00
H216   H     0.27769   0.54798   0.59854   0.00000  Uiso   1.00
H217   H     0.15971   0.75771   0.62439   0.00000  Uiso   1.00
H218   H     0.22959   0.63101   0.80119   0.00000  Uiso   1.00
H219   H     0.31221   0.42944   0.51395   0.00000  Uiso   1.00
H220   H     0.06345   0.87168   0.56849   0.00000  Uiso   1.00
H221   H     0.21080   0.60450   0.94129   0.00000  Uiso   1.00
O222   O     0.23299   0.32053   0.46331   0.00000  Uiso   1.00
O223   O     0.90663   0.90072   0.53487   0.00000  Uiso   1.00
O224   O     0.09994   0.55019   0.02398   0.00000  Uiso   1.00
N225   N     0.12677   0.37401   0.52362   0.00000  Uiso   1.00
N226   N     0.89420   0.78747   0.57459   0.00000  Uiso   1.00
N227   N     0.03195   0.53770   0.92314   0.00000  Uiso   1.00
N228   N     0.25121   0.42216   0.52418   0.00000  Uiso   1.00
N229   N     0.01864   0.83562   0.57515   0.00000  Uiso   1.00
N230   N     0.15638   0.58585   0.92370   0.00000  Uiso   1.00
C231   C     0.49329   0.93788   0.67374   0.00000  Uiso   1.00
C232   C     0.42979   0.97796   0.63252   0.00000  Uiso   1.00
C233   C     0.44571   0.03847   0.59753   0.00000  Uiso   1.00
C234   C     0.37926   0.06718   0.56287   0.00000  Uiso   1.00
C235   C     0.29277   0.13408   0.49877   0.00000  Uiso   1.00
C236   C     0.49388   0.86401   0.64655   0.00000  Uiso   1.00
C237   C     0.56370   0.82872   0.62338   0.00000  Uiso   1.00
C238   C     0.55121   0.76150   0.60055   0.00000  Uiso   1.00
C239   C     0.56423   0.65147   0.55828   0.00000  Uiso   1.00
C240   C     0.45592   0.93286   0.74261   0.00000  Uiso   1.00
C241   C     0.49382   0.95543   0.80021   0.00000  Uiso   1.00
C242   C     0.44937   0.94617   0.85825   0.00000  Uiso   1.00
C243   C     0.40344   0.94303   0.96513   0.00000  Uiso   1.00
C244   C     0.34696   0.88126   0.67440   0.00000  Uiso   1.00
C245   C     0.35031   0.94720   0.63287   0.00000  Uiso   1.00
C246   C     0.28381   0.97583   0.59826   0.00000  Uiso   1.00
C247   C     0.29964   0.03638   0.56323   0.00000  Uiso   1.00
C248   C     0.41441   0.83325   0.64691   0.00000  Uiso   1.00
C249   C     0.40181   0.76607   0.62411   0.00000  Uiso   1.00
C250   C     0.47159   0.73069   0.60090   0.00000  Uiso   1.00
C251   C     0.37643   0.90210   0.74297   0.00000  Uiso   1.00
C252   C     0.33192   0.89279   0.80093   0.00000  Uiso   1.00
C253   C     0.36974   0.91535   0.85860   0.00000  Uiso   1.00
H254   H     0.55517   0.96182   0.67347   0.00000  Uiso   1.00
H255   H     0.50723   0.06226   0.59727   0.00000  Uiso   1.00
H256   H     0.62520   0.85253   0.62312   0.00000  Uiso   1.00
H257   H     0.55533   0.97923   0.79991   0.00000  Uiso   1.00
H258   H     0.41904   0.16003   0.51292   0.00000  Uiso   1.00
H259   H     0.66780   0.71780   0.56745   0.00000  Uiso   1.00
H260   H     0.52045   0.98498   0.94026   0.00000  Uiso   1.00
H261   H     0.28508   0.85731   0.67468   0.00000  Uiso   1.00
H262   H     0.22231   0.95202   0.59854   0.00000  Uiso   1.00
H263   H     0.34029   0.74229   0.62439   0.00000  Uiso   1.00
H264   H     0.27041   0.86899   0.80119   0.00000  Uiso   1.00
H265   H     0.18779   0.07056   0.51395   0.00000  Uiso   1.00
H266   H     0.43655   0.62832   0.56849   0.00000  Uiso   1.00
H267   H     0.28920   0.89550   0.94129   0.00000  Uiso   1.00
O268   O     0.26701   0.17947   0.46331   0.00000  Uiso   1.00
O269   O     0.59337   0.59928   0.53487   0.00000  Uiso   1.00
O270   O     0.40006   0.94981   0.02398   0.00000  Uiso   1.00
N271   N     0.37323   0.12599   0.52362   0.00000  Uiso   1.00
N272   N     0.60580   0.71253   0.57459   0.00000  Uiso   1.00
N273   N     0.46805   0.96230   0.92314   0.00000  Uiso   1.00
N274   N     0.24879   0.07784   0.52418   0.00000  Uiso   1.00
N275   N     0.48136   0.66438   0.57515   0.00000  Uiso   1.00
N276   N     0.34362   0.91415   0.92370   0.00000  Uiso   1.00
C277   C     0.99329   0.06212   0.82626   0.00000  Uiso   1.00
C278   C     0.92979   0.02204   0.86748   0.00000  Uiso   1.00
C279   C     0.94571   0.96153   0.90247   0.00000  Uiso   1.00
C280   C     0.87926   0.93282   0.93713   0.00000  Uiso   1.00
C281   C     0.79277   0.86592   0.00123   0.00000  Uiso   1.00
C282   C     0.99388   0.13599   0.85345   0.00000  Uiso   1.00
C283   C     0.06370   0.17128   0.87662   0.00000  Uiso   1.00
C284   C     0.05121   0.23850   0.89945   0.00000  Uiso   1.00
C285   C     0.06423   0.34853   0.94172   0.00000  Uiso   1.00
C286   C     0.95592   0.06714   0.75739   0.00000  Uiso   1.00
C287   C     0.99382   0.04457   0.69979   0.00000  Uiso   1.00
C288   C     0.94937   0.05383   0.64175   0.00000  Uiso   1.00
C289   C     0.90344   0.05697   0.53487   0.00000  Uiso   1.00
C290   C     0.84696   0.11874   0.82560   0.00000  Uiso   1.00
C291   C     0.85031   0.05280   0.86713   0.00000  Uiso   1.00
C292   C     0.78381   0.02417   0.90174   0.00000  Uiso   1.00
C293   C     0.79964   0.96362   0.93677   0.00000  Uiso   1.00
C294   C     0.91441   0.16675   0.85309   0.00000  Uiso   1.00
C295   C     0.90181   0.23393   0.87589   0.00000  Uiso   1.00
C296   C     0.97159   0.26931   0.89910   0.00000  Uiso   1.00
C297   C     0.87643   0.09790   0.75703   0.00000  Uiso   1.00
C298   C     0.83192   0.10721   0.69907   0.00000  Uiso   1.00
C299   C     0.86974   0.08465   0.64140   0.00000  Uiso   1.00
H300   H     0.05517   0.03818   0.82653   0.00000  Uiso   1.00
H301   H     0.00723   0.93774   0.90273   0.00000  Uiso   1.00
H302   H     0.12520   0.14747   0.87688   0.00000  Uiso   1.00
H303   H     0.05533   0.02077   0.70009   0.00000  Uiso   1.00
H304   H     0.91904   0.83997   0.98708   0.00000  Uiso   1.00
H305   H     0.16780   0.28220   0.93255   0.00000  Uiso   1.00
H306   H     0.02045   0.01502   0.55974   0.00000  Uiso   1.00
H307   H     0.78508   0.14269   0.82532   0.00000  Uiso   1.00
H308   H     0.72231   0.04798   0.90146   0.00000  Uiso   1.00
H309   H     0.84029   0.25771   0.87561   0.00000  Uiso   1.00
H310   H     0.77041   0.13101   0.69881   0.00000  Uiso   1.00
H311   H     0.68779   0.92944   0.98605   0.00000  Uiso   1.00
H312   H     0.93655   0.37168   0.93151   0.00000  Uiso   1.00
H313   H     0.78920   0.10450   0.55871   0.00000  Uiso   1.00
O314   O     0.76701   0.82053   0.03669   0.00000  Uiso   1.00
O315   O     0.09337   0.40072   0.96513   0.00000  Uiso   1.00
O316   O     0.90006   0.05019   0.47602   0.00000  Uiso   1.00
N317   N     0.87323   0.87401   0.97638   0.00000  Uiso   1.00
N318   N     0.10580   0.28747   0.92541   0.00000  Uiso   1.00
N319   N     0.96805   0.03770   0.57686   0.00000  Uiso   1.00
N320   N     0.74879   0.92216   0.97582   0.00000  Uiso   1.00
N321   N     0.98136   0.33562   0.92485   0.00000  Uiso   1.00
N322   N     0.84362   0.08585   0.57630   0.00000  Uiso   1.00
C323   C     0.50671   0.43788   0.82626   0.00000  Uiso   1.00
C324   C     0.57021   0.47796   0.86748   0.00000  Uiso   1.00
C325   C     0.55429   0.53847   0.90247   0.00000  Uiso   1.00
C326   C     0.62074   0.56718   0.93713   0.00000  Uiso   1.00
C327   C     0.70723   0.63408   0.00123   0.00000  Uiso   1.00
C328   C     0.50612   0.36401   0.85345   0.00000  Uiso   1.00
C329   C     0.43630   0.32872   0.87662   0.00000  Uiso   1.00
C330   C     0.44879   0.26150   0.89945   0.00000  Uiso   1.00
C331   C     0.43577   0.15147   0.94172   0.00000  Uiso   1.00
C332   C     0.54408   0.43286   0.75739   0.00000  Uiso   1.00
C333   C     0.50618   0.45543   0.69979   0.00000  Uiso   1.00
C334   C     0.55063   0.44617   0.64175   0.00000  Uiso   1.00
C335   C     0.59656   0.44303   0.53487   0.00000  Uiso   1.00
C336   C     0.65304   0.38126   0.82560   0.00000  Uiso   1.00
C337   C     0.64969   0.44720   0.86713   0.00000  Uiso   1.00
C338   C     0.71619   0.47583   0.90174   0.00000  Uiso   1.00
C339   C     0.70036   0.53638   0.93677   0.00000  Uiso   1.00
C340   C     0.58559   0.33325   0.85309   0.00000  Uiso   1.00
C341   C     0.59819   0.26607   0.87589   0.00000  Uiso   1.00
C342   C     0.52841   0.23069   0.89910   0.00000  Uiso   1.00
C343   C     0.62357   0.40210   0.75703   0.00000  Uiso   1.00
C344   C     0.66808   0.39279   0.69907   0.00000  Uiso   1.00
C345   C     0.63026   0.41535   0.64140   0.00000  Uiso   1.00
H346   H     0.44483   0.46182   0.82653   0.00000  Uiso   1.00
H347   H     0.49277   0.56226   0.90273   0.00000  Uiso   1.00
H348   H     0.37480   0.35253   0.87688   0.00000  Uiso   1.00
H349   H     0.44467   0.47923   0.70009   0.00000  Uiso   1.00
H350   H     0.58096   0.66003   0.98708   0.00000  Uiso   1.00
H351   H     0.33220   0.21780   0.93255   0.00000  Uiso   1.00
H352   H     0.47955   0.48498   0.55974   0.00000  Uiso   1.00
H353   H     0.71492   0.35731   0.82532   0.00000  Uiso   1.00
H354   H     0.77769   0.45202   0.90146   0.00000  Uiso   1.00
H355   H     0.65971   0.24229   0.87561   0.00000  Uiso   1.00
H356   H     0.72959   0.36899   0.69881   0.00000  Uiso   1.00
H357   H     0.81221   0.57056   0.98605   0.00000  Uiso   1.00
H358   H     0.56345   0.12832   0.93151   0.00000  Uiso   1.00
H359   H     0.71080   0.39550   0.55871   0.00000  Uiso   1.00
O360   O     0.73299   0.67947   0.03669   0.00000  Uiso   1.00
O361   O     0.40663   0.09928   0.96513   0.00000  Uiso   1.00
O362   O     0.59994   0.44981   0.47602   0.00000  Uiso   1.00
N363   N     0.62677   0.62599   0.97638   0.00000  Uiso   1.00
N364   N     0.39420   0.21253   0.92541   0.00000  Uiso   1.00
N365   N     0.53195   0.46230   0.57686   0.00000  Uiso   1.00
N366   N     0.75121   0.57784   0.97582   0.00000  Uiso   1.00
N367   N     0.51864   0.16438   0.92485   0.00000  Uiso   1.00
N368   N     0.65638   0.41415   0.57630   0.00000  Uiso   1.00
