data_job_04146
_audit_creation_date              2018-12-19
_audit_creation_method            'Materials Studio'
_symmetry_space_group_name_H-M    'P1'
_symmetry_Int_Tables_number       1
_symmetry_cell_setting            triclinic
loop_
_symmetry_equiv_pos_as_xyz
  x,y,z
_cell_length_a                    26.1955
_cell_length_b                    12.1974
_cell_length_c                    15.7039
_cell_angle_alpha                 90.0000
_cell_angle_beta                  146.9563
_cell_angle_gamma                 90.0000
loop_
_atom_site_label
_atom_site_type_symbol
_atom_site_fract_x
_atom_site_fract_y
_atom_site_fract_z
_atom_site_U_iso_or_equiv
_atom_site_adp_type
_atom_site_occupancy
C1     C     0.31949   0.19095   0.14324   0.00000  Uiso   1.00
C2     C     0.38628   0.21764   0.30950   0.00000  Uiso   1.00
C3     C     0.48320   0.21078   0.44181   0.00000  Uiso   1.00
C4     C     0.53179   0.23872   0.58318   0.00000  Uiso   1.00
C5     C     0.64261   0.27499   0.84005   0.00000  Uiso   1.00
C6     C     0.25269   0.10391   0.08398   0.00000  Uiso   1.00
C7     C     0.23727   0.00143   0.02666   0.00000  Uiso   1.00
C8     C     0.17339   0.93364   0.97818   0.00000  Uiso   1.00
C9     C     0.07675   0.79338   0.88482   0.00000  Uiso   1.00
C10    C     0.26053   0.29366   0.04706   0.00000  Uiso   1.00
C11    C     0.25168   0.35072   0.95866   0.00000  Uiso   1.00
C12    C     0.19439   0.44268   0.87906   0.00000  Uiso   1.00
C13    C     0.10993   0.59704   0.72837   0.00000  Uiso   1.00
C14    C     0.23344   0.25276   0.15903   0.00000  Uiso   1.00
C15    C     0.33954   0.25121   0.31807   0.00000  Uiso   1.00
C16    C     0.38800   0.27917   0.45928   0.00000  Uiso   1.00
C17    C     0.48497   0.27236   0.59178   0.00000  Uiso   1.00
C18    C     0.20595   0.13748   0.09256   0.00000  Uiso   1.00
C19    C     0.14207   0.06982   0.04413   0.00000  Uiso   1.00
C20    C     0.12657   0.96727   0.98677   0.00000  Uiso   1.00
C21    C     0.21379   0.32724   0.05564   0.00000  Uiso   1.00
C22    C     0.15649   0.41911   0.97614   0.00000  Uiso   1.00
C23    C     0.14756   0.47631   0.88765   0.00000  Uiso   1.00
H24    H     0.35587   0.16481   0.13656   0.00000  Uiso   1.00
H25    H     0.51934   0.18478   0.43512   0.00000  Uiso   1.00
H26    H     0.27344   0.97548   0.02003   0.00000  Uiso   1.00
H27    H     0.28786   0.32472   0.95205   0.00000  Uiso   1.00
H28    H     0.67996   0.22170   0.76993   0.00000  Uiso   1.00
H29    H     0.16145   0.78038   0.89463   0.00000  Uiso   1.00
H30    H     0.19185   0.51682   0.75127   0.00000  Uiso   1.00
H31    H     0.19705   0.27890   0.16570   0.00000  Uiso   1.00
H32    H     0.35181   0.30515   0.46588   0.00000  Uiso   1.00
H33    H     0.10591   0.09583   0.05078   0.00000  Uiso   1.00
H34    H     0.12033   0.44507   0.98280   0.00000  Uiso   1.00
H35    H     0.54399   0.31938   0.79490   0.00000  Uiso   1.00
H36    H     0.02547   0.87806   0.91958   0.00000  Uiso   1.00
H37    H     0.05588   0.61450   0.77624   0.00000  Uiso   1.00
O38    O     0.71664   0.28571   0.97936   0.00000  Uiso   1.00
O39    O     0.03636   0.70673   0.83097   0.00000  Uiso   1.00
O40    O     0.07626   0.67291   0.64290   0.00000  Uiso   1.00
N41    N     0.62672   0.24111   0.73461   0.00000  Uiso   1.00
N42    N     0.14196   0.82849   0.91627   0.00000  Uiso   1.00
N43    N     0.17036   0.51698   0.78222   0.00000  Uiso   1.00
N44    N     0.55356   0.29367   0.74804   0.00000  Uiso   1.00
N45    N     0.06879   0.88106   0.92971   0.00000  Uiso   1.00
N46    N     0.09720   0.56955   0.79565   0.00000  Uiso   1.00
C47    C     0.68051   0.69095   0.35676   0.00000  Uiso   1.00
C48    C     0.61372   0.71764   0.19050   0.00000  Uiso   1.00
C49    C     0.51680   0.71078   0.05819   0.00000  Uiso   1.00
C50    C     0.46821   0.73872   0.91682   0.00000  Uiso   1.00
C51    C     0.35739   0.77499   0.65995   0.00000  Uiso   1.00
C52    C     0.74731   0.60391   0.41602   0.00000  Uiso   1.00
C53    C     0.76273   0.50143   0.47334   0.00000  Uiso   1.00
C54    C     0.82661   0.43364   0.52182   0.00000  Uiso   1.00
C55    C     0.92325   0.29338   0.61518   0.00000  Uiso   1.00
C56    C     0.73947   0.79366   0.45294   0.00000  Uiso   1.00
C57    C     0.74832   0.85072   0.54134   0.00000  Uiso   1.00
C58    C     0.80561   0.94268   0.62094   0.00000  Uiso   1.00
C59    C     0.89007   0.09704   0.77163   0.00000  Uiso   1.00
C60    C     0.76656   0.75276   0.34097   0.00000  Uiso   1.00
C61    C     0.66046   0.75121   0.18193   0.00000  Uiso   1.00
C62    C     0.61200   0.77917   0.04072   0.00000  Uiso   1.00
C63    C     0.51503   0.77236   0.90822   0.00000  Uiso   1.00
C64    C     0.79405   0.63748   0.40744   0.00000  Uiso   1.00
C65    C     0.85793   0.56982   0.45587   0.00000  Uiso   1.00
C66    C     0.87343   0.46727   0.51323   0.00000  Uiso   1.00
C67    C     0.78621   0.82724   0.44436   0.00000  Uiso   1.00
C68    C     0.84351   0.91911   0.52386   0.00000  Uiso   1.00
C69    C     0.85244   0.97631   0.61235   0.00000  Uiso   1.00
H70    H     0.64413   0.66481   0.36344   0.00000  Uiso   1.00
H71    H     0.48066   0.68478   0.06488   0.00000  Uiso   1.00
H72    H     0.72656   0.47548   0.47997   0.00000  Uiso   1.00
H73    H     0.71214   0.82472   0.54795   0.00000  Uiso   1.00
H74    H     0.32004   0.72170   0.73007   0.00000  Uiso   1.00
H75    H     0.83855   0.28038   0.60537   0.00000  Uiso   1.00
H76    H     0.80815   0.01682   0.74873   0.00000  Uiso   1.00
H77    H     0.80295   0.77890   0.33430   0.00000  Uiso   1.00
H78    H     0.64819   0.80515   0.03412   0.00000  Uiso   1.00
H79    H     0.89409   0.59583   0.44922   0.00000  Uiso   1.00
H80    H     0.87967   0.94507   0.51720   0.00000  Uiso   1.00
H81    H     0.45601   0.81938   0.70510   0.00000  Uiso   1.00
H82    H     0.97453   0.37806   0.58042   0.00000  Uiso   1.00
H83    H     0.94412   0.11450   0.72376   0.00000  Uiso   1.00
O84    O     0.28336   0.78571   0.52064   0.00000  Uiso   1.00
O85    O     0.96364   0.20673   0.66903   0.00000  Uiso   1.00
O86    O     0.92374   0.17291   0.85710   0.00000  Uiso   1.00
N87    N     0.37328   0.74111   0.76539   0.00000  Uiso   1.00
N88    N     0.85804   0.32849   0.58373   0.00000  Uiso   1.00
N89    N     0.82964   0.01698   0.71778   0.00000  Uiso   1.00
N90    N     0.44644   0.79367   0.75196   0.00000  Uiso   1.00
N91    N     0.93121   0.38106   0.57029   0.00000  Uiso   1.00
N92    N     0.90280   0.06955   0.70435   0.00000  Uiso   1.00
C93    C     0.68051   0.80905   0.85676   0.00000  Uiso   1.00
C94    C     0.61372   0.78236   0.69050   0.00000  Uiso   1.00
C95    C     0.51680   0.78922   0.55819   0.00000  Uiso   1.00
C96    C     0.46821   0.76128   0.41682   0.00000  Uiso   1.00
C97    C     0.35739   0.72501   0.15995   0.00000  Uiso   1.00
C98    C     0.74731   0.89609   0.91602   0.00000  Uiso   1.00
C99    C     0.76273   0.99857   0.97334   0.00000  Uiso   1.00
C100   C     0.82661   0.06636   0.02182   0.00000  Uiso   1.00
C101   C     0.92325   0.20662   0.11518   0.00000  Uiso   1.00
C102   C     0.73947   0.70634   0.95294   0.00000  Uiso   1.00
C103   C     0.74832   0.64928   0.04134   0.00000  Uiso   1.00
C104   C     0.80561   0.55732   0.12094   0.00000  Uiso   1.00
C105   C     0.89007   0.40296   0.27163   0.00000  Uiso   1.00
C106   C     0.76656   0.74724   0.84097   0.00000  Uiso   1.00
C107   C     0.66046   0.74879   0.68193   0.00000  Uiso   1.00
C108   C     0.61200   0.72083   0.54072   0.00000  Uiso   1.00
C109   C     0.51503   0.72764   0.40822   0.00000  Uiso   1.00
C110   C     0.79405   0.86252   0.90744   0.00000  Uiso   1.00
C111   C     0.85793   0.93018   0.95587   0.00000  Uiso   1.00
C112   C     0.87343   0.03273   0.01323   0.00000  Uiso   1.00
C113   C     0.78621   0.67276   0.94436   0.00000  Uiso   1.00
C114   C     0.84351   0.58089   0.02386   0.00000  Uiso   1.00
C115   C     0.85244   0.52369   0.11235   0.00000  Uiso   1.00
H116   H     0.64413   0.83519   0.86344   0.00000  Uiso   1.00
H117   H     0.48066   0.81522   0.56488   0.00000  Uiso   1.00
H118   H     0.72656   0.02452   0.97997   0.00000  Uiso   1.00
H119   H     0.71214   0.67528   0.04795   0.00000  Uiso   1.00
H120   H     0.32004   0.77830   0.23007   0.00000  Uiso   1.00
H121   H     0.83855   0.21962   0.10537   0.00000  Uiso   1.00
H122   H     0.80815   0.48318   0.24873   0.00000  Uiso   1.00
H123   H     0.80295   0.72110   0.83430   0.00000  Uiso   1.00
H124   H     0.64819   0.69485   0.53412   0.00000  Uiso   1.00
H125   H     0.89409   0.90417   0.94922   0.00000  Uiso   1.00
H126   H     0.87967   0.55493   0.01720   0.00000  Uiso   1.00
H127   H     0.45601   0.68062   0.20510   0.00000  Uiso   1.00
H128   H     0.97453   0.12194   0.08042   0.00000  Uiso   1.00
H129   H     0.94412   0.38550   0.22376   0.00000  Uiso   1.00
O130   O     0.28336   0.71429   0.02064   0.00000  Uiso   1.00
O131   O     0.96364   0.29327   0.16903   0.00000  Uiso   1.00
O132   O     0.92374   0.32709   0.35710   0.00000  Uiso   1.00
N133   N     0.37328   0.75889   0.26539   0.00000  Uiso   1.00
N134   N     0.85804   0.17151   0.08373   0.00000  Uiso   1.00
N135   N     0.82964   0.48302   0.21778   0.00000  Uiso   1.00
N136   N     0.44644   0.70633   0.25196   0.00000  Uiso   1.00
N137   N     0.93121   0.11894   0.07029   0.00000  Uiso   1.00
N138   N     0.90280   0.43045   0.20435   0.00000  Uiso   1.00
C139   C     0.31949   0.30905   0.64324   0.00000  Uiso   1.00
C140   C     0.38628   0.28236   0.80950   0.00000  Uiso   1.00
C141   C     0.48320   0.28922   0.94181   0.00000  Uiso   1.00
C142   C     0.53179   0.26128   0.08318   0.00000  Uiso   1.00
C143   C     0.64261   0.22501   0.34005   0.00000  Uiso   1.00
C144   C     0.25269   0.39609   0.58398   0.00000  Uiso   1.00
C145   C     0.23727   0.49857   0.52666   0.00000  Uiso   1.00
C146   C     0.17339   0.56636   0.47818   0.00000  Uiso   1.00
C147   C     0.07675   0.70662   0.38482   0.00000  Uiso   1.00
C148   C     0.26053   0.20634   0.54706   0.00000  Uiso   1.00
C149   C     0.25168   0.14928   0.45866   0.00000  Uiso   1.00
C150   C     0.19439   0.05732   0.37906   0.00000  Uiso   1.00
C151   C     0.10993   0.90296   0.22837   0.00000  Uiso   1.00
C152   C     0.23344   0.24724   0.65903   0.00000  Uiso   1.00
C153   C     0.33954   0.24879   0.81807   0.00000  Uiso   1.00
C154   C     0.38800   0.22083   0.95928   0.00000  Uiso   1.00
C155   C     0.48497   0.22764   0.09178   0.00000  Uiso   1.00
C156   C     0.20595   0.36252   0.59256   0.00000  Uiso   1.00
C157   C     0.14207   0.43018   0.54413   0.00000  Uiso   1.00
C158   C     0.12657   0.53273   0.48677   0.00000  Uiso   1.00
C159   C     0.21379   0.17276   0.55564   0.00000  Uiso   1.00
C160   C     0.15649   0.08089   0.47614   0.00000  Uiso   1.00
C161   C     0.14756   0.02369   0.38765   0.00000  Uiso   1.00
H162   H     0.35587   0.33519   0.63656   0.00000  Uiso   1.00
H163   H     0.51934   0.31522   0.93512   0.00000  Uiso   1.00
H164   H     0.27344   0.52452   0.52003   0.00000  Uiso   1.00
H165   H     0.28786   0.17528   0.45205   0.00000  Uiso   1.00
H166   H     0.67996   0.27830   0.26993   0.00000  Uiso   1.00
H167   H     0.16145   0.71962   0.39463   0.00000  Uiso   1.00
H168   H     0.19185   0.98318   0.25127   0.00000  Uiso   1.00
H169   H     0.19705   0.22110   0.66570   0.00000  Uiso   1.00
H170   H     0.35181   0.19485   0.96588   0.00000  Uiso   1.00
H171   H     0.10591   0.40417   0.55078   0.00000  Uiso   1.00
H172   H     0.12033   0.05493   0.48280   0.00000  Uiso   1.00
H173   H     0.54399   0.18062   0.29490   0.00000  Uiso   1.00
H174   H     0.02547   0.62194   0.41958   0.00000  Uiso   1.00
H175   H     0.05588   0.88550   0.27624   0.00000  Uiso   1.00
O176   O     0.71664   0.21429   0.47936   0.00000  Uiso   1.00
O177   O     0.03636   0.79327   0.33097   0.00000  Uiso   1.00
O178   O     0.07626   0.82709   0.14290   0.00000  Uiso   1.00
N179   N     0.62672   0.25889   0.23461   0.00000  Uiso   1.00
N180   N     0.14196   0.67151   0.41627   0.00000  Uiso   1.00
N181   N     0.17036   0.98302   0.28222   0.00000  Uiso   1.00
N182   N     0.55356   0.20633   0.24804   0.00000  Uiso   1.00
N183   N     0.06879   0.61894   0.42971   0.00000  Uiso   1.00
N184   N     0.09720   0.93045   0.29565   0.00000  Uiso   1.00
