data_job_03981
_audit_creation_date              2018-12-19
_audit_creation_method            'Materials Studio'
_symmetry_space_group_name_H-M    'P1'
_symmetry_Int_Tables_number       1
_symmetry_cell_setting            triclinic
loop_
_symmetry_equiv_pos_as_xyz
  x,y,z
_cell_length_a                    17.0225
_cell_length_b                    17.0225
_cell_length_c                    14.5563
_cell_angle_alpha                 90.0000
_cell_angle_beta                  90.0000
_cell_angle_gamma                 120.0000
loop_
_atom_site_label
_atom_site_type_symbol
_atom_site_fract_x
_atom_site_fract_y
_atom_site_fract_z
_atom_site_U_iso_or_equiv
_atom_site_adp_type
_atom_site_occupancy
C1     C     0.35854   0.26585   0.89116   0.00000  Uiso   1.00
C2     C     0.34264   0.27008   0.99369   0.00000  Uiso   1.00
C3     C     0.29428   0.19600   0.05100   0.00000  Uiso   1.00
C4     C     0.28743   0.21413   0.14273   0.00000  Uiso   1.00
C5     C     0.25661   0.20716   0.29689   0.00000  Uiso   1.00
C6     C     0.32247   0.32140   0.84389   0.00000  Uiso   1.00
C7     C     0.25716   0.29047   0.77525   0.00000  Uiso   1.00
C8     C     0.23335   0.35180   0.74087   0.00000  Uiso   1.00
C9     C     0.17126   0.42453   0.66242   0.00000  Uiso   1.00
C10    C     0.46110   0.31839   0.87769   0.00000  Uiso   1.00
C11    C     0.51237   0.28493   0.83744   0.00000  Uiso   1.00
C12    C     0.60528   0.34374   0.83150   0.00000  Uiso   1.00
C13    C     0.75844   0.41179   0.80553   0.00000  Uiso   1.00
C14    C     0.43239   0.42978   0.95215   0.00000  Uiso   1.00
C15    C     0.38275   0.35913   0.02682   0.00000  Uiso   1.00
C16    C     0.37598   0.37737   0.11849   0.00000  Uiso   1.00
C17    C     0.32762   0.30333   0.17593   0.00000  Uiso   1.00
C18    C     0.36258   0.41044   0.87702   0.00000  Uiso   1.00
C19    C     0.33886   0.47184   0.84273   0.00000  Uiso   1.00
C20    C     0.27353   0.44100   0.77406   0.00000  Uiso   1.00
C21    C     0.50122   0.40743   0.91082   0.00000  Uiso   1.00
C22    C     0.59407   0.46630   0.90493   0.00000  Uiso   1.00
C23    C     0.64547   0.43294   0.86469   0.00000  Uiso   1.00
H24    H     0.32731   0.19653   0.86536   0.00000  Uiso   1.00
H25    H     0.26324   0.12710   0.02534   0.00000  Uiso   1.00
H26    H     0.22614   0.22156   0.74962   0.00000  Uiso   1.00
H27    H     0.48130   0.21602   0.81181   0.00000  Uiso   1.00
H28    H     0.20987   0.08940   0.21730   0.00000  Uiso   1.00
H29    H     0.13166   0.28858   0.63592   0.00000  Uiso   1.00
H30    H     0.66973   0.27691   0.76706   0.00000  Uiso   1.00
H31    H     0.46361   0.49910   0.97794   0.00000  Uiso   1.00
H32    H     0.40703   0.44628   0.14410   0.00000  Uiso   1.00
H33    H     0.36992   0.54074   0.86838   0.00000  Uiso   1.00
H34    H     0.62509   0.53520   0.93058   0.00000  Uiso   1.00
H35    H     0.32657   0.34846   0.31369   0.00000  Uiso   1.00
H36    H     0.24836   0.54764   0.73230   0.00000  Uiso   1.00
H37    H     0.78643   0.53597   0.86345   0.00000  Uiso   1.00
O38    O     0.22851   0.17873   0.37276   0.00000  Uiso   1.00
O39    O     0.12592   0.44004   0.61000   0.00000  Uiso   1.00
O40    O     0.83185   0.42472   0.78206   0.00000  Uiso   1.00
N41    N     0.24511   0.15762   0.21719   0.00000  Uiso   1.00
N42    N     0.17198   0.34383   0.67364   0.00000  Uiso   1.00
N43    N     0.67503   0.33293   0.79622   0.00000  Uiso   1.00
N44    N     0.30791   0.29702   0.26906   0.00000  Uiso   1.00
N45    N     0.23478   0.48323   0.72551   0.00000  Uiso   1.00
N46    N     0.73783   0.47233   0.84809   0.00000  Uiso   1.00
C47    C     0.73415   0.09269   0.22449   0.00000  Uiso   1.00
C48    C     0.72992   0.07255   0.32702   0.00000  Uiso   1.00
C49    C     0.80400   0.09828   0.38434   0.00000  Uiso   1.00
C50    C     0.78587   0.07331   0.47607   0.00000  Uiso   1.00
C51    C     0.79284   0.04944   0.63022   0.00000  Uiso   1.00
C52    C     0.67860   0.00106   0.17723   0.00000  Uiso   1.00
C53    C     0.70953   0.96669   0.10858   0.00000  Uiso   1.00
C54    C     0.64820   0.88155   0.07421   0.00000  Uiso   1.00
C55    C     0.57547   0.74673   0.99575   0.00000  Uiso   1.00
C56    C     0.68161   0.14271   0.21102   0.00000  Uiso   1.00
C57    C     0.71507   0.22744   0.17078   0.00000  Uiso   1.00
C58    C     0.65626   0.26155   0.16484   0.00000  Uiso   1.00
C59    C     0.58821   0.34666   0.13886   0.00000  Uiso   1.00
C60    C     0.57022   0.00261   0.28548   0.00000  Uiso   1.00
C61    C     0.64087   0.02362   0.36015   0.00000  Uiso   1.00
C62    C     0.62263   0.99861   0.45182   0.00000  Uiso   1.00
C63    C     0.69667   0.02430   0.50926   0.00000  Uiso   1.00
C64    C     0.58956   0.95213   0.21035   0.00000  Uiso   1.00
C65    C     0.52816   0.86703   0.17606   0.00000  Uiso   1.00
C66    C     0.55900   0.83253   0.10739   0.00000  Uiso   1.00
C67    C     0.59257   0.09379   0.24415   0.00000  Uiso   1.00
C68    C     0.53370   0.12777   0.23827   0.00000  Uiso   1.00
C69    C     0.56706   0.21253   0.19802   0.00000  Uiso   1.00
H70    H     0.80347   0.13078   0.19870   0.00000  Uiso   1.00
H71    H     0.87290   0.13613   0.35867   0.00000  Uiso   1.00
H72    H     0.77844   0.00458   0.08295   0.00000  Uiso   1.00
H73    H     0.78398   0.26528   0.14515   0.00000  Uiso   1.00
H74    H     0.91060   0.12046   0.55063   0.00000  Uiso   1.00
H75    H     0.71142   0.84308   0.96925   0.00000  Uiso   1.00
H76    H     0.72309   0.39282   0.10039   0.00000  Uiso   1.00
H77    H     0.50090   0.96451   0.31128   0.00000  Uiso   1.00
H78    H     0.55372   0.96075   0.47744   0.00000  Uiso   1.00
H79    H     0.45926   0.82919   0.20172   0.00000  Uiso   1.00
H80    H     0.46480   0.08989   0.26391   0.00000  Uiso   1.00
H81    H     0.65154   0.97811   0.64703   0.00000  Uiso   1.00
H82    H     0.45236   0.70073   0.06564   0.00000  Uiso   1.00
H83    H     0.46403   0.25047   0.19678   0.00000  Uiso   1.00
O84    O     0.82127   0.04978   0.70610   0.00000  Uiso   1.00
O85    O     0.55996   0.68588   0.94333   0.00000  Uiso   1.00
O86    O     0.57528   0.40712   0.11539   0.00000  Uiso   1.00
N87    N     0.84238   0.08749   0.55052   0.00000  Uiso   1.00
N88    N     0.65617   0.82815   0.00697   0.00000  Uiso   1.00
N89    N     0.66707   0.34210   0.12955   0.00000  Uiso   1.00
N90    N     0.70298   0.01089   0.60239   0.00000  Uiso   1.00
N91    N     0.51677   0.75155   0.05884   0.00000  Uiso   1.00
N92    N     0.52767   0.26550   0.18142   0.00000  Uiso   1.00
C93    C     0.90731   0.64146   0.55783   0.00000  Uiso   1.00
C94    C     0.92745   0.65736   0.66036   0.00000  Uiso   1.00
C95    C     0.90172   0.70572   0.71767   0.00000  Uiso   1.00
C96    C     0.92669   0.71257   0.80940   0.00000  Uiso   1.00
C97    C     0.95056   0.74339   0.96356   0.00000  Uiso   1.00
C98    C     0.99894   0.67753   0.51056   0.00000  Uiso   1.00
C99    C     0.03331   0.74284   0.44192   0.00000  Uiso   1.00
C100   C     0.11845   0.76665   0.40754   0.00000  Uiso   1.00
C101   C     0.25327   0.82874   0.32908   0.00000  Uiso   1.00
C102   C     0.85729   0.53890   0.54436   0.00000  Uiso   1.00
C103   C     0.77256   0.48763   0.50411   0.00000  Uiso   1.00
C104   C     0.73845   0.39472   0.49817   0.00000  Uiso   1.00
C105   C     0.65334   0.24156   0.47219   0.00000  Uiso   1.00
C106   C     0.99739   0.56761   0.61882   0.00000  Uiso   1.00
C107   C     0.97638   0.61725   0.69348   0.00000  Uiso   1.00
C108   C     0.00139   0.62402   0.78515   0.00000  Uiso   1.00
C109   C     0.97570   0.67238   0.84259   0.00000  Uiso   1.00
C110   C     0.04787   0.63742   0.54368   0.00000  Uiso   1.00
C111   C     0.13297   0.66114   0.50940   0.00000  Uiso   1.00
C112   C     0.16747   0.72647   0.44073   0.00000  Uiso   1.00
C113   C     0.90621   0.49878   0.57749   0.00000  Uiso   1.00
C114   C     0.87223   0.40593   0.57160   0.00000  Uiso   1.00
C115   C     0.78747   0.35453   0.53136   0.00000  Uiso   1.00
H116   H     0.86922   0.67269   0.53203   0.00000  Uiso   1.00
H117   H     0.86387   0.73676   0.69200   0.00000  Uiso   1.00
H118   H     0.99542   0.77386   0.41629   0.00000  Uiso   1.00
H119   H     0.73472   0.51870   0.47848   0.00000  Uiso   1.00
H120   H     0.87954   0.79013   0.88397   0.00000  Uiso   1.00
H121   H     0.15692   0.86834   0.30258   0.00000  Uiso   1.00
H122   H     0.60718   0.33027   0.43372   0.00000  Uiso   1.00
H123   H     0.03549   0.53639   0.64461   0.00000  Uiso   1.00
H124   H     0.03925   0.59297   0.81077   0.00000  Uiso   1.00
H125   H     0.17081   0.63008   0.53505   0.00000  Uiso   1.00
H126   H     0.91011   0.37491   0.59724   0.00000  Uiso   1.00
H127   H     0.02189   0.67343   0.98036   0.00000  Uiso   1.00
H128   H     0.29927   0.75164   0.39897   0.00000  Uiso   1.00
H129   H     0.74953   0.21357   0.53012   0.00000  Uiso   1.00
O130   O     0.95022   0.77149   0.03943   0.00000  Uiso   1.00
O131   O     0.31412   0.87408   0.27666   0.00000  Uiso   1.00
O132   O     0.59288   0.16815   0.44872   0.00000  Uiso   1.00
N133   N     0.91251   0.75489   0.88385   0.00000  Uiso   1.00
N134   N     0.17185   0.82802   0.34030   0.00000  Uiso   1.00
N135   N     0.65790   0.32497   0.46289   0.00000  Uiso   1.00
N136   N     0.98911   0.69209   0.93572   0.00000  Uiso   1.00
N137   N     0.24845   0.76522   0.39217   0.00000  Uiso   1.00
N138   N     0.73450   0.26217   0.51476   0.00000  Uiso   1.00
C139   C     0.64146   0.73415   0.39116   0.00000  Uiso   1.00
C140   C     0.65736   0.72992   0.49369   0.00000  Uiso   1.00
C141   C     0.70572   0.80400   0.55100   0.00000  Uiso   1.00
C142   C     0.71257   0.78587   0.64273   0.00000  Uiso   1.00
C143   C     0.74339   0.79284   0.79689   0.00000  Uiso   1.00
C144   C     0.67753   0.67860   0.34389   0.00000  Uiso   1.00
C145   C     0.74284   0.70953   0.27525   0.00000  Uiso   1.00
C146   C     0.76665   0.64820   0.24087   0.00000  Uiso   1.00
C147   C     0.82874   0.57547   0.16242   0.00000  Uiso   1.00
C148   C     0.53890   0.68161   0.37769   0.00000  Uiso   1.00
C149   C     0.48763   0.71507   0.33744   0.00000  Uiso   1.00
C150   C     0.39472   0.65626   0.33150   0.00000  Uiso   1.00
C151   C     0.24156   0.58821   0.30553   0.00000  Uiso   1.00
C152   C     0.56761   0.57022   0.45215   0.00000  Uiso   1.00
C153   C     0.61725   0.64087   0.52682   0.00000  Uiso   1.00
C154   C     0.62402   0.62263   0.61849   0.00000  Uiso   1.00
C155   C     0.67238   0.69667   0.67593   0.00000  Uiso   1.00
C156   C     0.63742   0.58956   0.37702   0.00000  Uiso   1.00
C157   C     0.66114   0.52816   0.34273   0.00000  Uiso   1.00
C158   C     0.72647   0.55900   0.27406   0.00000  Uiso   1.00
C159   C     0.49878   0.59257   0.41082   0.00000  Uiso   1.00
C160   C     0.40593   0.53370   0.40493   0.00000  Uiso   1.00
C161   C     0.35453   0.56706   0.36469   0.00000  Uiso   1.00
H162   H     0.67269   0.80347   0.36536   0.00000  Uiso   1.00
H163   H     0.73676   0.87290   0.52534   0.00000  Uiso   1.00
H164   H     0.77386   0.77844   0.24962   0.00000  Uiso   1.00
H165   H     0.51870   0.78398   0.31181   0.00000  Uiso   1.00
H166   H     0.79013   0.91060   0.71730   0.00000  Uiso   1.00
H167   H     0.86834   0.71142   0.13592   0.00000  Uiso   1.00
H168   H     0.33027   0.72309   0.26706   0.00000  Uiso   1.00
H169   H     0.53639   0.50090   0.47794   0.00000  Uiso   1.00
H170   H     0.59297   0.55372   0.64410   0.00000  Uiso   1.00
H171   H     0.63008   0.45926   0.36838   0.00000  Uiso   1.00
H172   H     0.37491   0.46480   0.43058   0.00000  Uiso   1.00
H173   H     0.67343   0.65154   0.81369   0.00000  Uiso   1.00
H174   H     0.75164   0.45236   0.23230   0.00000  Uiso   1.00
H175   H     0.21357   0.46403   0.36345   0.00000  Uiso   1.00
O176   O     0.77149   0.82127   0.87276   0.00000  Uiso   1.00
O177   O     0.87408   0.55996   0.11000   0.00000  Uiso   1.00
O178   O     0.16815   0.57528   0.28206   0.00000  Uiso   1.00
N179   N     0.75489   0.84238   0.71719   0.00000  Uiso   1.00
N180   N     0.82802   0.65617   0.17364   0.00000  Uiso   1.00
N181   N     0.32497   0.66707   0.29622   0.00000  Uiso   1.00
N182   N     0.69209   0.70298   0.76906   0.00000  Uiso   1.00
N183   N     0.76522   0.51677   0.22551   0.00000  Uiso   1.00
N184   N     0.26217   0.52767   0.34809   0.00000  Uiso   1.00
C185   C     0.26585   0.90731   0.72449   0.00000  Uiso   1.00
C186   C     0.27008   0.92745   0.82702   0.00000  Uiso   1.00
C187   C     0.19600   0.90172   0.88434   0.00000  Uiso   1.00
C188   C     0.21413   0.92669   0.97607   0.00000  Uiso   1.00
C189   C     0.20716   0.95056   0.13022   0.00000  Uiso   1.00
C190   C     0.32140   0.99894   0.67723   0.00000  Uiso   1.00
C191   C     0.29047   0.03331   0.60858   0.00000  Uiso   1.00
C192   C     0.35180   0.11845   0.57421   0.00000  Uiso   1.00
C193   C     0.42453   0.25327   0.49575   0.00000  Uiso   1.00
C194   C     0.31839   0.85729   0.71102   0.00000  Uiso   1.00
C195   C     0.28493   0.77256   0.67078   0.00000  Uiso   1.00
C196   C     0.34374   0.73845   0.66484   0.00000  Uiso   1.00
C197   C     0.41179   0.65334   0.63886   0.00000  Uiso   1.00
C198   C     0.42978   0.99739   0.78548   0.00000  Uiso   1.00
C199   C     0.35913   0.97638   0.86015   0.00000  Uiso   1.00
C200   C     0.37737   0.00139   0.95182   0.00000  Uiso   1.00
C201   C     0.30333   0.97570   0.00926   0.00000  Uiso   1.00
C202   C     0.41044   0.04787   0.71035   0.00000  Uiso   1.00
C203   C     0.47184   0.13297   0.67606   0.00000  Uiso   1.00
C204   C     0.44100   0.16747   0.60739   0.00000  Uiso   1.00
C205   C     0.40743   0.90621   0.74415   0.00000  Uiso   1.00
C206   C     0.46630   0.87223   0.73827   0.00000  Uiso   1.00
C207   C     0.43294   0.78747   0.69802   0.00000  Uiso   1.00
H208   H     0.19653   0.86922   0.69870   0.00000  Uiso   1.00
H209   H     0.12710   0.86387   0.85867   0.00000  Uiso   1.00
H210   H     0.22156   0.99542   0.58295   0.00000  Uiso   1.00
H211   H     0.21602   0.73472   0.64515   0.00000  Uiso   1.00
H212   H     0.08940   0.87954   0.05063   0.00000  Uiso   1.00
H213   H     0.28858   0.15692   0.46925   0.00000  Uiso   1.00
H214   H     0.27691   0.60718   0.60039   0.00000  Uiso   1.00
H215   H     0.49910   0.03549   0.81128   0.00000  Uiso   1.00
H216   H     0.44628   0.03925   0.97744   0.00000  Uiso   1.00
H217   H     0.54074   0.17081   0.70172   0.00000  Uiso   1.00
H218   H     0.53520   0.91011   0.76391   0.00000  Uiso   1.00
H219   H     0.34846   0.02189   0.14703   0.00000  Uiso   1.00
H220   H     0.54764   0.29927   0.56564   0.00000  Uiso   1.00
H221   H     0.53597   0.74953   0.69678   0.00000  Uiso   1.00
O222   O     0.17873   0.95022   0.20610   0.00000  Uiso   1.00
O223   O     0.44004   0.31412   0.44333   0.00000  Uiso   1.00
O224   O     0.42472   0.59288   0.61539   0.00000  Uiso   1.00
N225   N     0.15762   0.91251   0.05052   0.00000  Uiso   1.00
N226   N     0.34383   0.17185   0.50697   0.00000  Uiso   1.00
N227   N     0.33293   0.65790   0.62955   0.00000  Uiso   1.00
N228   N     0.29702   0.98911   0.10239   0.00000  Uiso   1.00
N229   N     0.48323   0.24845   0.55884   0.00000  Uiso   1.00
N230   N     0.47233   0.73450   0.68142   0.00000  Uiso   1.00
C231   C     0.09269   0.35854   0.05783   0.00000  Uiso   1.00
C232   C     0.07255   0.34264   0.16036   0.00000  Uiso   1.00
C233   C     0.09828   0.29428   0.21767   0.00000  Uiso   1.00
C234   C     0.07331   0.28743   0.30940   0.00000  Uiso   1.00
C235   C     0.04944   0.25661   0.46356   0.00000  Uiso   1.00
C236   C     0.00106   0.32247   0.01056   0.00000  Uiso   1.00
C237   C     0.96669   0.25716   0.94192   0.00000  Uiso   1.00
C238   C     0.88155   0.23335   0.90754   0.00000  Uiso   1.00
C239   C     0.74673   0.17126   0.82908   0.00000  Uiso   1.00
C240   C     0.14271   0.46110   0.04436   0.00000  Uiso   1.00
C241   C     0.22744   0.51237   0.00411   0.00000  Uiso   1.00
C242   C     0.26155   0.60528   0.99817   0.00000  Uiso   1.00
C243   C     0.34666   0.75844   0.97219   0.00000  Uiso   1.00
C244   C     0.00261   0.43239   0.11882   0.00000  Uiso   1.00
C245   C     0.02362   0.38275   0.19348   0.00000  Uiso   1.00
C246   C     0.99861   0.37598   0.28515   0.00000  Uiso   1.00
C247   C     0.02430   0.32762   0.34259   0.00000  Uiso   1.00
C248   C     0.95213   0.36258   0.04368   0.00000  Uiso   1.00
C249   C     0.86703   0.33886   0.00940   0.00000  Uiso   1.00
C250   C     0.83253   0.27353   0.94073   0.00000  Uiso   1.00
C251   C     0.09379   0.50122   0.07749   0.00000  Uiso   1.00
C252   C     0.12777   0.59407   0.07160   0.00000  Uiso   1.00
C253   C     0.21253   0.64547   0.03136   0.00000  Uiso   1.00
H254   H     0.13078   0.32731   0.03203   0.00000  Uiso   1.00
H255   H     0.13613   0.26324   0.19200   0.00000  Uiso   1.00
H256   H     0.00458   0.22614   0.91629   0.00000  Uiso   1.00
H257   H     0.26528   0.48130   0.97848   0.00000  Uiso   1.00
H258   H     0.12046   0.20987   0.38397   0.00000  Uiso   1.00
H259   H     0.84308   0.13166   0.80258   0.00000  Uiso   1.00
H260   H     0.39282   0.66973   0.93372   0.00000  Uiso   1.00
H261   H     0.96451   0.46361   0.14461   0.00000  Uiso   1.00
H262   H     0.96075   0.40703   0.31077   0.00000  Uiso   1.00
H263   H     0.82919   0.36992   0.03505   0.00000  Uiso   1.00
H264   H     0.08989   0.62509   0.09724   0.00000  Uiso   1.00
H265   H     0.97811   0.32657   0.48036   0.00000  Uiso   1.00
H266   H     0.70073   0.24836   0.89897   0.00000  Uiso   1.00
H267   H     0.25047   0.78643   0.03012   0.00000  Uiso   1.00
O268   O     0.04978   0.22851   0.53943   0.00000  Uiso   1.00
O269   O     0.68588   0.12592   0.77666   0.00000  Uiso   1.00
O270   O     0.40712   0.83185   0.94872   0.00000  Uiso   1.00
N271   N     0.08749   0.24511   0.38385   0.00000  Uiso   1.00
N272   N     0.82815   0.17198   0.84030   0.00000  Uiso   1.00
N273   N     0.34210   0.67503   0.96289   0.00000  Uiso   1.00
N274   N     0.01089   0.30791   0.43572   0.00000  Uiso   1.00
N275   N     0.75155   0.23478   0.89217   0.00000  Uiso   1.00
N276   N     0.26550   0.73783   0.01476   0.00000  Uiso   1.00
