data_job_03189
_audit_creation_date              2018-12-19
_audit_creation_method            'Materials Studio'
_symmetry_space_group_name_H-M    'P1'
_symmetry_Int_Tables_number       1
_symmetry_cell_setting            triclinic
loop_
_symmetry_equiv_pos_as_xyz
  x,y,z
_cell_length_a                    10.3271
_cell_length_b                    33.0424
_cell_length_c                    14.0679
_cell_angle_alpha                 90.0000
_cell_angle_beta                  90.0000
_cell_angle_gamma                 90.0000
loop_
_atom_site_label
_atom_site_type_symbol
_atom_site_fract_x
_atom_site_fract_y
_atom_site_fract_z
_atom_site_U_iso_or_equiv
_atom_site_adp_type
_atom_site_occupancy
C1     C     0.95178   0.60458   0.09974   0.00000  Uiso   1.00
C2     C     0.86235   0.57719   0.04228   0.00000  Uiso   1.00
C3     C     0.82989   0.53760   0.06494   0.00000  Uiso   1.00
C4     C     0.74662   0.51764   0.00325   0.00000  Uiso   1.00
C5     C     0.61526   0.47222   0.92638   0.00000  Uiso   1.00
C6     C     0.05804   0.61812   0.03152   0.00000  Uiso   1.00
C7     C     0.19010   0.61294   0.04514   0.00000  Uiso   1.00
C8     C     0.27155   0.62744   0.97439   0.00000  Uiso   1.00
C9     C     0.44399   0.64558   0.88084   0.00000  Uiso   1.00
C10    C     0.87317   0.64240   0.12273   0.00000  Uiso   1.00
C11    C     0.84982   0.65764   0.21305   0.00000  Uiso   1.00
C12    C     0.77565   0.69259   0.21909   0.00000  Uiso   1.00
C13    C     0.66106   0.74843   0.26717   0.00000  Uiso   1.00
C14    C     0.86160   0.63956   0.94988   0.00000  Uiso   1.00
C15    C     0.81338   0.59619   0.96088   0.00000  Uiso   1.00
C16    C     0.73012   0.57629   0.89914   0.00000  Uiso   1.00
C17    C     0.69754   0.53667   0.92170   0.00000  Uiso   1.00
C18    C     0.00906   0.63712   0.95012   0.00000  Uiso   1.00
C19    C     0.09033   0.65163   0.87934   0.00000  Uiso   1.00
C20    C     0.22248   0.64647   0.89284   0.00000  Uiso   1.00
C21    C     0.82418   0.66140   0.04134   0.00000  Uiso   1.00
C22    C     0.75004   0.69634   0.04724   0.00000  Uiso   1.00
C23    C     0.72658   0.71163   0.13755   0.00000  Uiso   1.00
H24    H     0.98992   0.58979   0.16311   0.00000  Uiso   1.00
H25    H     0.86783   0.52290   0.12794   0.00000  Uiso   1.00
H26    H     0.22798   0.59824   0.10814   0.00000  Uiso   1.00
H27    H     0.88774   0.64293   0.27602   0.00000  Uiso   1.00
H28    H     0.71090   0.45712   0.05302   0.00000  Uiso   1.00
H29    H     0.47029   0.61597   0.01130   0.00000  Uiso   1.00
H30    H     0.75285   0.71022   0.36531   0.00000  Uiso   1.00
H31    H     0.82347   0.65435   0.88651   0.00000  Uiso   1.00
H32    H     0.69223   0.59100   0.83615   0.00000  Uiso   1.00
H33    H     0.05239   0.66634   0.81636   0.00000  Uiso   1.00
H34    H     0.71216   0.71103   0.98424   0.00000  Uiso   1.00
H35    H     0.56839   0.51239   0.81619   0.00000  Uiso   1.00
H36    H     0.32779   0.67125   0.77447   0.00000  Uiso   1.00
H37    H     0.61034   0.76550   0.12848   0.00000  Uiso   1.00
O38    O     0.55635   0.44191   0.90645   0.00000  Uiso   1.00
O39    O     0.55265   0.65033   0.85173   0.00000  Uiso   1.00
O40    O     0.61137   0.77398   0.31618   0.00000  Uiso   1.00
N41    N     0.69535   0.47882   0.00420   0.00000  Uiso   1.00
N42    N     0.40534   0.62734   0.96519   0.00000  Uiso   1.00
N43    N     0.73462   0.71546   0.29616   0.00000  Uiso   1.00
N44    N     0.61866   0.50856   0.87677   0.00000  Uiso   1.00
N45    N     0.32865   0.65708   0.83775   0.00000  Uiso   1.00
N46    N     0.65793   0.74520   0.16873   0.00000  Uiso   1.00
C47    C     0.54822   0.89542   0.59974   0.00000  Uiso   1.00
C48    C     0.63765   0.92281   0.54228   0.00000  Uiso   1.00
C49    C     0.67011   0.96240   0.56494   0.00000  Uiso   1.00
C50    C     0.75338   0.98236   0.50325   0.00000  Uiso   1.00
C51    C     0.88474   0.02778   0.42638   0.00000  Uiso   1.00
C52    C     0.44196   0.88188   0.53152   0.00000  Uiso   1.00
C53    C     0.30990   0.88706   0.54514   0.00000  Uiso   1.00
C54    C     0.22845   0.87256   0.47439   0.00000  Uiso   1.00
C55    C     0.05601   0.85442   0.38084   0.00000  Uiso   1.00
C56    C     0.62683   0.85760   0.62273   0.00000  Uiso   1.00
C57    C     0.65018   0.84236   0.71305   0.00000  Uiso   1.00
C58    C     0.72435   0.80741   0.71909   0.00000  Uiso   1.00
C59    C     0.83894   0.75157   0.76717   0.00000  Uiso   1.00
C60    C     0.63840   0.86044   0.44988   0.00000  Uiso   1.00
C61    C     0.68662   0.90381   0.46088   0.00000  Uiso   1.00
C62    C     0.76988   0.92371   0.39914   0.00000  Uiso   1.00
C63    C     0.80246   0.96333   0.42170   0.00000  Uiso   1.00
C64    C     0.49094   0.86288   0.45012   0.00000  Uiso   1.00
C65    C     0.40967   0.84837   0.37934   0.00000  Uiso   1.00
C66    C     0.27752   0.85353   0.39284   0.00000  Uiso   1.00
C67    C     0.67582   0.83860   0.54134   0.00000  Uiso   1.00
C68    C     0.74996   0.80366   0.54724   0.00000  Uiso   1.00
C69    C     0.77342   0.78837   0.63755   0.00000  Uiso   1.00
H70    H     0.51008   0.91021   0.66311   0.00000  Uiso   1.00
H71    H     0.63217   0.97710   0.62794   0.00000  Uiso   1.00
H72    H     0.27202   0.90176   0.60814   0.00000  Uiso   1.00
H73    H     0.61226   0.85707   0.77602   0.00000  Uiso   1.00
H74    H     0.78910   0.04288   0.55302   0.00000  Uiso   1.00
H75    H     0.02971   0.88403   0.51130   0.00000  Uiso   1.00
H76    H     0.74715   0.78978   0.86531   0.00000  Uiso   1.00
H77    H     0.67653   0.84565   0.38651   0.00000  Uiso   1.00
H78    H     0.80777   0.90900   0.33615   0.00000  Uiso   1.00
H79    H     0.44761   0.83366   0.31636   0.00000  Uiso   1.00
H80    H     0.78784   0.78897   0.48424   0.00000  Uiso   1.00
H81    H     0.93161   0.98761   0.31619   0.00000  Uiso   1.00
H82    H     0.17221   0.82875   0.27447   0.00000  Uiso   1.00
H83    H     0.88966   0.73450   0.62848   0.00000  Uiso   1.00
O84    O     0.94365   0.05809   0.40645   0.00000  Uiso   1.00
O85    O     0.94735   0.84967   0.35173   0.00000  Uiso   1.00
O86    O     0.88863   0.72602   0.81618   0.00000  Uiso   1.00
N87    N     0.80465   0.02118   0.50420   0.00000  Uiso   1.00
N88    N     0.09466   0.87266   0.46519   0.00000  Uiso   1.00
N89    N     0.76538   0.78454   0.79616   0.00000  Uiso   1.00
N90    N     0.88134   0.99144   0.37677   0.00000  Uiso   1.00
N91    N     0.17135   0.84292   0.33775   0.00000  Uiso   1.00
N92    N     0.84207   0.75480   0.66873   0.00000  Uiso   1.00
C93    C     0.04822   0.60458   0.40026   0.00000  Uiso   1.00
C94    C     0.13765   0.57719   0.45772   0.00000  Uiso   1.00
C95    C     0.17011   0.53760   0.43506   0.00000  Uiso   1.00
C96    C     0.25338   0.51764   0.49675   0.00000  Uiso   1.00
C97    C     0.38474   0.47222   0.57362   0.00000  Uiso   1.00
C98    C     0.94196   0.61812   0.46848   0.00000  Uiso   1.00
C99    C     0.80990   0.61294   0.45486   0.00000  Uiso   1.00
C100   C     0.72845   0.62744   0.52561   0.00000  Uiso   1.00
C101   C     0.55601   0.64558   0.61916   0.00000  Uiso   1.00
C102   C     0.12683   0.64240   0.37727   0.00000  Uiso   1.00
C103   C     0.15018   0.65764   0.28695   0.00000  Uiso   1.00
C104   C     0.22435   0.69259   0.28091   0.00000  Uiso   1.00
C105   C     0.33894   0.74843   0.23283   0.00000  Uiso   1.00
C106   C     0.13840   0.63956   0.55012   0.00000  Uiso   1.00
C107   C     0.18662   0.59619   0.53912   0.00000  Uiso   1.00
C108   C     0.26988   0.57629   0.60086   0.00000  Uiso   1.00
C109   C     0.30246   0.53667   0.57830   0.00000  Uiso   1.00
C110   C     0.99094   0.63712   0.54988   0.00000  Uiso   1.00
C111   C     0.90967   0.65163   0.62066   0.00000  Uiso   1.00
C112   C     0.77752   0.64647   0.60716   0.00000  Uiso   1.00
C113   C     0.17582   0.66140   0.45866   0.00000  Uiso   1.00
C114   C     0.24996   0.69634   0.45276   0.00000  Uiso   1.00
C115   C     0.27342   0.71163   0.36245   0.00000  Uiso   1.00
H116   H     0.01008   0.58979   0.33689   0.00000  Uiso   1.00
H117   H     0.13217   0.52290   0.37206   0.00000  Uiso   1.00
H118   H     0.77202   0.59824   0.39186   0.00000  Uiso   1.00
H119   H     0.11226   0.64293   0.22398   0.00000  Uiso   1.00
H120   H     0.28910   0.45712   0.44698   0.00000  Uiso   1.00
H121   H     0.52971   0.61597   0.48870   0.00000  Uiso   1.00
H122   H     0.24715   0.71022   0.13469   0.00000  Uiso   1.00
H123   H     0.17653   0.65435   0.61349   0.00000  Uiso   1.00
H124   H     0.30777   0.59100   0.66385   0.00000  Uiso   1.00
H125   H     0.94761   0.66634   0.68364   0.00000  Uiso   1.00
H126   H     0.28784   0.71103   0.51576   0.00000  Uiso   1.00
H127   H     0.43161   0.51239   0.68381   0.00000  Uiso   1.00
H128   H     0.67221   0.67125   0.72553   0.00000  Uiso   1.00
H129   H     0.38966   0.76550   0.37152   0.00000  Uiso   1.00
O130   O     0.44365   0.44191   0.59355   0.00000  Uiso   1.00
O131   O     0.44735   0.65033   0.64827   0.00000  Uiso   1.00
O132   O     0.38863   0.77398   0.18382   0.00000  Uiso   1.00
N133   N     0.30465   0.47882   0.49580   0.00000  Uiso   1.00
N134   N     0.59466   0.62734   0.53481   0.00000  Uiso   1.00
N135   N     0.26538   0.71546   0.20384   0.00000  Uiso   1.00
N136   N     0.38134   0.50856   0.62323   0.00000  Uiso   1.00
N137   N     0.67135   0.65708   0.66225   0.00000  Uiso   1.00
N138   N     0.34207   0.74520   0.33127   0.00000  Uiso   1.00
C139   C     0.45178   0.89542   0.90026   0.00000  Uiso   1.00
C140   C     0.36235   0.92281   0.95772   0.00000  Uiso   1.00
C141   C     0.32989   0.96240   0.93506   0.00000  Uiso   1.00
C142   C     0.24662   0.98236   0.99675   0.00000  Uiso   1.00
C143   C     0.11526   0.02778   0.07362   0.00000  Uiso   1.00
C144   C     0.55804   0.88188   0.96848   0.00000  Uiso   1.00
C145   C     0.69010   0.88706   0.95486   0.00000  Uiso   1.00
C146   C     0.77155   0.87256   0.02561   0.00000  Uiso   1.00
C147   C     0.94399   0.85442   0.11916   0.00000  Uiso   1.00
C148   C     0.37317   0.85760   0.87727   0.00000  Uiso   1.00
C149   C     0.34982   0.84236   0.78695   0.00000  Uiso   1.00
C150   C     0.27565   0.80741   0.78091   0.00000  Uiso   1.00
C151   C     0.16106   0.75157   0.73283   0.00000  Uiso   1.00
C152   C     0.36160   0.86044   0.05012   0.00000  Uiso   1.00
C153   C     0.31338   0.90381   0.03912   0.00000  Uiso   1.00
C154   C     0.23012   0.92371   0.10086   0.00000  Uiso   1.00
C155   C     0.19754   0.96333   0.07830   0.00000  Uiso   1.00
C156   C     0.50906   0.86288   0.04988   0.00000  Uiso   1.00
C157   C     0.59033   0.84837   0.12066   0.00000  Uiso   1.00
C158   C     0.72248   0.85353   0.10716   0.00000  Uiso   1.00
C159   C     0.32418   0.83860   0.95866   0.00000  Uiso   1.00
C160   C     0.25004   0.80366   0.95276   0.00000  Uiso   1.00
C161   C     0.22658   0.78837   0.86245   0.00000  Uiso   1.00
H162   H     0.48992   0.91021   0.83689   0.00000  Uiso   1.00
H163   H     0.36783   0.97710   0.87206   0.00000  Uiso   1.00
H164   H     0.72798   0.90176   0.89186   0.00000  Uiso   1.00
H165   H     0.38774   0.85707   0.72398   0.00000  Uiso   1.00
H166   H     0.21090   0.04288   0.94698   0.00000  Uiso   1.00
H167   H     0.97029   0.88403   0.98870   0.00000  Uiso   1.00
H168   H     0.25285   0.78978   0.63469   0.00000  Uiso   1.00
H169   H     0.32347   0.84565   0.11349   0.00000  Uiso   1.00
H170   H     0.19223   0.90900   0.16385   0.00000  Uiso   1.00
H171   H     0.55239   0.83366   0.18364   0.00000  Uiso   1.00
H172   H     0.21216   0.78897   0.01576   0.00000  Uiso   1.00
H173   H     0.06839   0.98761   0.18381   0.00000  Uiso   1.00
H174   H     0.82779   0.82875   0.22553   0.00000  Uiso   1.00
H175   H     0.11034   0.73450   0.87152   0.00000  Uiso   1.00
O176   O     0.05635   0.05809   0.09355   0.00000  Uiso   1.00
O177   O     0.05265   0.84967   0.14827   0.00000  Uiso   1.00
O178   O     0.11137   0.72602   0.68382   0.00000  Uiso   1.00
N179   N     0.19535   0.02118   0.99580   0.00000  Uiso   1.00
N180   N     0.90534   0.87266   0.03481   0.00000  Uiso   1.00
N181   N     0.23462   0.78454   0.70384   0.00000  Uiso   1.00
N182   N     0.11866   0.99144   0.12323   0.00000  Uiso   1.00
N183   N     0.82865   0.84292   0.16225   0.00000  Uiso   1.00
N184   N     0.15793   0.75480   0.83127   0.00000  Uiso   1.00
C185   C     0.04822   0.39542   0.90026   0.00000  Uiso   1.00
C186   C     0.13765   0.42281   0.95772   0.00000  Uiso   1.00
C187   C     0.17011   0.46240   0.93506   0.00000  Uiso   1.00
C188   C     0.25338   0.48236   0.99675   0.00000  Uiso   1.00
C189   C     0.38474   0.52778   0.07362   0.00000  Uiso   1.00
C190   C     0.94196   0.38188   0.96848   0.00000  Uiso   1.00
C191   C     0.80990   0.38706   0.95486   0.00000  Uiso   1.00
C192   C     0.72845   0.37256   0.02561   0.00000  Uiso   1.00
C193   C     0.55601   0.35442   0.11916   0.00000  Uiso   1.00
C194   C     0.12683   0.35760   0.87727   0.00000  Uiso   1.00
C195   C     0.15018   0.34236   0.78695   0.00000  Uiso   1.00
C196   C     0.22435   0.30741   0.78091   0.00000  Uiso   1.00
C197   C     0.33894   0.25157   0.73283   0.00000  Uiso   1.00
C198   C     0.13840   0.36044   0.05012   0.00000  Uiso   1.00
C199   C     0.18662   0.40381   0.03912   0.00000  Uiso   1.00
C200   C     0.26988   0.42371   0.10086   0.00000  Uiso   1.00
C201   C     0.30246   0.46333   0.07830   0.00000  Uiso   1.00
C202   C     0.99094   0.36288   0.04988   0.00000  Uiso   1.00
C203   C     0.90967   0.34837   0.12066   0.00000  Uiso   1.00
C204   C     0.77752   0.35353   0.10716   0.00000  Uiso   1.00
C205   C     0.17582   0.33860   0.95866   0.00000  Uiso   1.00
C206   C     0.24996   0.30366   0.95276   0.00000  Uiso   1.00
C207   C     0.27342   0.28837   0.86245   0.00000  Uiso   1.00
H208   H     0.01008   0.41021   0.83689   0.00000  Uiso   1.00
H209   H     0.13217   0.47710   0.87206   0.00000  Uiso   1.00
H210   H     0.77202   0.40176   0.89186   0.00000  Uiso   1.00
H211   H     0.11226   0.35707   0.72398   0.00000  Uiso   1.00
H212   H     0.28910   0.54288   0.94698   0.00000  Uiso   1.00
H213   H     0.52971   0.38403   0.98870   0.00000  Uiso   1.00
H214   H     0.24715   0.28978   0.63469   0.00000  Uiso   1.00
H215   H     0.17653   0.34565   0.11349   0.00000  Uiso   1.00
H216   H     0.30777   0.40900   0.16385   0.00000  Uiso   1.00
H217   H     0.94761   0.33366   0.18364   0.00000  Uiso   1.00
H218   H     0.28784   0.28897   0.01576   0.00000  Uiso   1.00
H219   H     0.43161   0.48761   0.18381   0.00000  Uiso   1.00
H220   H     0.67221   0.32875   0.22553   0.00000  Uiso   1.00
H221   H     0.38966   0.23450   0.87152   0.00000  Uiso   1.00
O222   O     0.44365   0.55809   0.09355   0.00000  Uiso   1.00
O223   O     0.44735   0.34967   0.14827   0.00000  Uiso   1.00
O224   O     0.38863   0.22602   0.68382   0.00000  Uiso   1.00
N225   N     0.30465   0.52118   0.99580   0.00000  Uiso   1.00
N226   N     0.59466   0.37266   0.03481   0.00000  Uiso   1.00
N227   N     0.26538   0.28454   0.70384   0.00000  Uiso   1.00
N228   N     0.38134   0.49144   0.12323   0.00000  Uiso   1.00
N229   N     0.67135   0.34292   0.16225   0.00000  Uiso   1.00
N230   N     0.34207   0.25480   0.83127   0.00000  Uiso   1.00
C231   C     0.45178   0.10458   0.40026   0.00000  Uiso   1.00
C232   C     0.36235   0.07719   0.45772   0.00000  Uiso   1.00
C233   C     0.32989   0.03760   0.43506   0.00000  Uiso   1.00
C234   C     0.24662   0.01764   0.49675   0.00000  Uiso   1.00
C235   C     0.11526   0.97222   0.57362   0.00000  Uiso   1.00
C236   C     0.55804   0.11812   0.46848   0.00000  Uiso   1.00
C237   C     0.69010   0.11294   0.45486   0.00000  Uiso   1.00
C238   C     0.77155   0.12744   0.52561   0.00000  Uiso   1.00
C239   C     0.94399   0.14558   0.61916   0.00000  Uiso   1.00
C240   C     0.37317   0.14240   0.37727   0.00000  Uiso   1.00
C241   C     0.34982   0.15764   0.28695   0.00000  Uiso   1.00
C242   C     0.27565   0.19259   0.28091   0.00000  Uiso   1.00
C243   C     0.16106   0.24843   0.23283   0.00000  Uiso   1.00
C244   C     0.36160   0.13956   0.55012   0.00000  Uiso   1.00
C245   C     0.31338   0.09619   0.53912   0.00000  Uiso   1.00
C246   C     0.23012   0.07629   0.60086   0.00000  Uiso   1.00
C247   C     0.19754   0.03667   0.57830   0.00000  Uiso   1.00
C248   C     0.50906   0.13712   0.54988   0.00000  Uiso   1.00
C249   C     0.59033   0.15163   0.62066   0.00000  Uiso   1.00
C250   C     0.72248   0.14647   0.60716   0.00000  Uiso   1.00
C251   C     0.32418   0.16140   0.45866   0.00000  Uiso   1.00
C252   C     0.25004   0.19634   0.45276   0.00000  Uiso   1.00
C253   C     0.22658   0.21163   0.36245   0.00000  Uiso   1.00
H254   H     0.48992   0.08979   0.33689   0.00000  Uiso   1.00
H255   H     0.36783   0.02290   0.37206   0.00000  Uiso   1.00
H256   H     0.72798   0.09824   0.39186   0.00000  Uiso   1.00
H257   H     0.38774   0.14293   0.22398   0.00000  Uiso   1.00
H258   H     0.21090   0.95712   0.44698   0.00000  Uiso   1.00
H259   H     0.97029   0.11597   0.48870   0.00000  Uiso   1.00
H260   H     0.25285   0.21022   0.13469   0.00000  Uiso   1.00
H261   H     0.32347   0.15435   0.61349   0.00000  Uiso   1.00
H262   H     0.19223   0.09100   0.66385   0.00000  Uiso   1.00
H263   H     0.55239   0.16634   0.68364   0.00000  Uiso   1.00
H264   H     0.21216   0.21103   0.51576   0.00000  Uiso   1.00
H265   H     0.06839   0.01239   0.68381   0.00000  Uiso   1.00
H266   H     0.82779   0.17125   0.72553   0.00000  Uiso   1.00
H267   H     0.11034   0.26550   0.37152   0.00000  Uiso   1.00
O268   O     0.05635   0.94191   0.59355   0.00000  Uiso   1.00
O269   O     0.05265   0.15033   0.64827   0.00000  Uiso   1.00
O270   O     0.11137   0.27398   0.18382   0.00000  Uiso   1.00
N271   N     0.19535   0.97882   0.49580   0.00000  Uiso   1.00
N272   N     0.90534   0.12734   0.53481   0.00000  Uiso   1.00
N273   N     0.23462   0.21546   0.20384   0.00000  Uiso   1.00
N274   N     0.11866   0.00856   0.62323   0.00000  Uiso   1.00
N275   N     0.82865   0.15708   0.66225   0.00000  Uiso   1.00
N276   N     0.15793   0.24520   0.33127   0.00000  Uiso   1.00
C277   C     0.95178   0.39542   0.59974   0.00000  Uiso   1.00
C278   C     0.86235   0.42281   0.54228   0.00000  Uiso   1.00
C279   C     0.82989   0.46240   0.56494   0.00000  Uiso   1.00
C280   C     0.74662   0.48236   0.50325   0.00000  Uiso   1.00
C281   C     0.61526   0.52778   0.42638   0.00000  Uiso   1.00
C282   C     0.05804   0.38188   0.53152   0.00000  Uiso   1.00
C283   C     0.19010   0.38706   0.54514   0.00000  Uiso   1.00
C284   C     0.27155   0.37256   0.47439   0.00000  Uiso   1.00
C285   C     0.44399   0.35442   0.38084   0.00000  Uiso   1.00
C286   C     0.87317   0.35760   0.62273   0.00000  Uiso   1.00
C287   C     0.84982   0.34236   0.71305   0.00000  Uiso   1.00
C288   C     0.77565   0.30741   0.71909   0.00000  Uiso   1.00
C289   C     0.66106   0.25157   0.76717   0.00000  Uiso   1.00
C290   C     0.86160   0.36044   0.44988   0.00000  Uiso   1.00
C291   C     0.81338   0.40381   0.46088   0.00000  Uiso   1.00
C292   C     0.73012   0.42371   0.39914   0.00000  Uiso   1.00
C293   C     0.69754   0.46333   0.42170   0.00000  Uiso   1.00
C294   C     0.00906   0.36288   0.45012   0.00000  Uiso   1.00
C295   C     0.09033   0.34837   0.37934   0.00000  Uiso   1.00
C296   C     0.22248   0.35353   0.39284   0.00000  Uiso   1.00
C297   C     0.82418   0.33860   0.54134   0.00000  Uiso   1.00
C298   C     0.75004   0.30366   0.54724   0.00000  Uiso   1.00
C299   C     0.72658   0.28837   0.63755   0.00000  Uiso   1.00
H300   H     0.98992   0.41021   0.66311   0.00000  Uiso   1.00
H301   H     0.86783   0.47710   0.62794   0.00000  Uiso   1.00
H302   H     0.22798   0.40176   0.60814   0.00000  Uiso   1.00
H303   H     0.88774   0.35707   0.77602   0.00000  Uiso   1.00
H304   H     0.71090   0.54288   0.55302   0.00000  Uiso   1.00
H305   H     0.47029   0.38403   0.51130   0.00000  Uiso   1.00
H306   H     0.75285   0.28978   0.86531   0.00000  Uiso   1.00
H307   H     0.82347   0.34565   0.38651   0.00000  Uiso   1.00
H308   H     0.69223   0.40900   0.33615   0.00000  Uiso   1.00
H309   H     0.05239   0.33366   0.31636   0.00000  Uiso   1.00
H310   H     0.71216   0.28897   0.48424   0.00000  Uiso   1.00
H311   H     0.56839   0.48761   0.31619   0.00000  Uiso   1.00
H312   H     0.32779   0.32875   0.27447   0.00000  Uiso   1.00
H313   H     0.61034   0.23450   0.62848   0.00000  Uiso   1.00
O314   O     0.55635   0.55809   0.40645   0.00000  Uiso   1.00
O315   O     0.55265   0.34967   0.35173   0.00000  Uiso   1.00
O316   O     0.61137   0.22602   0.81618   0.00000  Uiso   1.00
N317   N     0.69535   0.52118   0.50420   0.00000  Uiso   1.00
N318   N     0.40534   0.37266   0.46519   0.00000  Uiso   1.00
N319   N     0.73462   0.28454   0.79616   0.00000  Uiso   1.00
N320   N     0.61866   0.49144   0.37677   0.00000  Uiso   1.00
N321   N     0.32865   0.34292   0.33775   0.00000  Uiso   1.00
N322   N     0.65793   0.25480   0.66873   0.00000  Uiso   1.00
C323   C     0.54822   0.10458   0.09974   0.00000  Uiso   1.00
C324   C     0.63765   0.07719   0.04228   0.00000  Uiso   1.00
C325   C     0.67011   0.03760   0.06494   0.00000  Uiso   1.00
C326   C     0.75338   0.01764   0.00325   0.00000  Uiso   1.00
C327   C     0.88474   0.97222   0.92638   0.00000  Uiso   1.00
C328   C     0.44196   0.11812   0.03152   0.00000  Uiso   1.00
C329   C     0.30990   0.11294   0.04514   0.00000  Uiso   1.00
C330   C     0.22845   0.12744   0.97439   0.00000  Uiso   1.00
C331   C     0.05601   0.14558   0.88084   0.00000  Uiso   1.00
C332   C     0.62683   0.14240   0.12273   0.00000  Uiso   1.00
C333   C     0.65018   0.15764   0.21305   0.00000  Uiso   1.00
C334   C     0.72435   0.19259   0.21909   0.00000  Uiso   1.00
C335   C     0.83894   0.24843   0.26717   0.00000  Uiso   1.00
C336   C     0.63840   0.13956   0.94988   0.00000  Uiso   1.00
C337   C     0.68662   0.09619   0.96088   0.00000  Uiso   1.00
C338   C     0.76988   0.07629   0.89914   0.00000  Uiso   1.00
C339   C     0.80246   0.03667   0.92170   0.00000  Uiso   1.00
C340   C     0.49094   0.13712   0.95012   0.00000  Uiso   1.00
C341   C     0.40967   0.15163   0.87934   0.00000  Uiso   1.00
C342   C     0.27752   0.14647   0.89284   0.00000  Uiso   1.00
C343   C     0.67582   0.16140   0.04134   0.00000  Uiso   1.00
C344   C     0.74996   0.19634   0.04724   0.00000  Uiso   1.00
C345   C     0.77342   0.21163   0.13755   0.00000  Uiso   1.00
H346   H     0.51008   0.08979   0.16311   0.00000  Uiso   1.00
H347   H     0.63217   0.02290   0.12794   0.00000  Uiso   1.00
H348   H     0.27202   0.09824   0.10814   0.00000  Uiso   1.00
H349   H     0.61226   0.14293   0.27602   0.00000  Uiso   1.00
H350   H     0.78910   0.95712   0.05302   0.00000  Uiso   1.00
H351   H     0.02971   0.11597   0.01130   0.00000  Uiso   1.00
H352   H     0.74715   0.21022   0.36531   0.00000  Uiso   1.00
H353   H     0.67653   0.15435   0.88651   0.00000  Uiso   1.00
H354   H     0.80777   0.09100   0.83615   0.00000  Uiso   1.00
H355   H     0.44761   0.16634   0.81636   0.00000  Uiso   1.00
H356   H     0.78784   0.21103   0.98424   0.00000  Uiso   1.00
H357   H     0.93161   0.01239   0.81619   0.00000  Uiso   1.00
H358   H     0.17221   0.17125   0.77447   0.00000  Uiso   1.00
H359   H     0.88966   0.26550   0.12848   0.00000  Uiso   1.00
O360   O     0.94365   0.94191   0.90645   0.00000  Uiso   1.00
O361   O     0.94735   0.15033   0.85173   0.00000  Uiso   1.00
O362   O     0.88863   0.27398   0.31618   0.00000  Uiso   1.00
N363   N     0.80465   0.97882   0.00420   0.00000  Uiso   1.00
N364   N     0.09466   0.12734   0.96519   0.00000  Uiso   1.00
N365   N     0.76538   0.21546   0.29616   0.00000  Uiso   1.00
N366   N     0.88134   0.00856   0.87677   0.00000  Uiso   1.00
N367   N     0.17135   0.15708   0.83775   0.00000  Uiso   1.00
N368   N     0.84207   0.24520   0.16873   0.00000  Uiso   1.00
