data_job_01330
_audit_creation_date              2018-12-19
_audit_creation_method            'Materials Studio'
_symmetry_space_group_name_H-M    'P1'
_symmetry_Int_Tables_number       1
_symmetry_cell_setting            triclinic
loop_
_symmetry_equiv_pos_as_xyz
  x,y,z
_cell_length_a                    11.7736
_cell_length_b                    26.0732
_cell_length_c                    20.6101
_cell_angle_alpha                 90.0000
_cell_angle_beta                  90.0000
_cell_angle_gamma                 90.0000
loop_
_atom_site_label
_atom_site_type_symbol
_atom_site_fract_x
_atom_site_fract_y
_atom_site_fract_z
_atom_site_U_iso_or_equiv
_atom_site_adp_type
_atom_site_occupancy
C1     C     0.45062   0.37873   0.19417   0.00000  Uiso   1.00
C2     C     0.46880   0.43307   0.16883   0.00000  Uiso   1.00
C3     C     0.41421   0.47678   0.19125   0.00000  Uiso   1.00
C4     C     0.44264   0.52290   0.16173   0.00000  Uiso   1.00
C5     C     0.45872   0.60692   0.13004   0.00000  Uiso   1.00
C6     C     0.56735   0.35943   0.21494   0.00000  Uiso   1.00
C7     C     0.59561   0.34123   0.27613   0.00000  Uiso   1.00
C8     C     0.70699   0.32535   0.28542   0.00000  Uiso   1.00
C9     C     0.87605   0.29502   0.32530   0.00000  Uiso   1.00
C10    C     0.41683   0.34654   0.13549   0.00000  Uiso   1.00
C11    C     0.31854   0.31750   0.12987   0.00000  Uiso   1.00
C12    C     0.30321   0.29076   0.07227   0.00000  Uiso   1.00
C13    C     0.23856   0.24042   0.98879   0.00000  Uiso   1.00
C14    C     0.59817   0.38288   0.10188   0.00000  Uiso   1.00
C15    C     0.54895   0.43532   0.11870   0.00000  Uiso   1.00
C16    C     0.57746   0.48138   0.08914   0.00000  Uiso   1.00
C17    C     0.52292   0.52516   0.11151   0.00000  Uiso   1.00
C18    C     0.64749   0.36168   0.16482   0.00000  Uiso   1.00
C19    C     0.75885   0.34582   0.17402   0.00000  Uiso   1.00
C20    C     0.78728   0.32761   0.23520   0.00000  Uiso   1.00
C21    C     0.49697   0.34880   0.08536   0.00000  Uiso   1.00
C22    C     0.48179   0.32209   0.02776   0.00000  Uiso   1.00
C23    C     0.38350   0.29301   0.02206   0.00000  Uiso   1.00
H24    H     0.38823   0.37697   0.23320   0.00000  Uiso   1.00
H25    H     0.35220   0.47502   0.23005   0.00000  Uiso   1.00
H26    H     0.53357   0.33949   0.31491   0.00000  Uiso   1.00
H27    H     0.25655   0.31576   0.16867   0.00000  Uiso   1.00
H28    H     0.34764   0.58473   0.20447   0.00000  Uiso   1.00
H29    H     0.73004   0.29892   0.38340   0.00000  Uiso   1.00
H30    H     0.14589   0.24889   0.07503   0.00000  Uiso   1.00
H31    H     0.66057   0.38464   0.06285   0.00000  Uiso   1.00
H32    H     0.63948   0.48311   0.05035   0.00000  Uiso   1.00
H33    H     0.82085   0.34757   0.13521   0.00000  Uiso   1.00
H34    H     0.54383   0.32385   0.98898   0.00000  Uiso   1.00
H35    H     0.58081   0.59129   0.05862   0.00000  Uiso   1.00
H36    H     0.96321   0.30548   0.23755   0.00000  Uiso   1.00
H37    H     0.37906   0.25545   0.92918   0.00000  Uiso   1.00
O38    O     0.44547   0.65265   0.12642   0.00000  Uiso   1.00
O39    O     0.94716   0.27768   0.36115   0.00000  Uiso   1.00
O40    O     0.18076   0.21204   0.95659   0.00000  Uiso   1.00
N41    N     0.40539   0.57276   0.17185   0.00000  Uiso   1.00
N42    N     0.76292   0.30555   0.33914   0.00000  Uiso   1.00
N43    N     0.21680   0.25877   0.05085   0.00000  Uiso   1.00
N44    N     0.53086   0.57629   0.09337   0.00000  Uiso   1.00
N45    N     0.88839   0.30908   0.26066   0.00000  Uiso   1.00
N46    N     0.34226   0.26230   0.97237   0.00000  Uiso   1.00
C47    C     0.04938   0.62127   0.19417   0.00000  Uiso   1.00
C48    C     0.03120   0.56693   0.16883   0.00000  Uiso   1.00
C49    C     0.08579   0.52322   0.19125   0.00000  Uiso   1.00
C50    C     0.05736   0.47710   0.16173   0.00000  Uiso   1.00
C51    C     0.04128   0.39308   0.13004   0.00000  Uiso   1.00
C52    C     0.93265   0.64057   0.21494   0.00000  Uiso   1.00
C53    C     0.90439   0.65877   0.27613   0.00000  Uiso   1.00
C54    C     0.79301   0.67465   0.28542   0.00000  Uiso   1.00
C55    C     0.62395   0.70498   0.32530   0.00000  Uiso   1.00
C56    C     0.08317   0.65346   0.13549   0.00000  Uiso   1.00
C57    C     0.18146   0.68250   0.12987   0.00000  Uiso   1.00
C58    C     0.19679   0.70924   0.07227   0.00000  Uiso   1.00
C59    C     0.26144   0.75958   0.98879   0.00000  Uiso   1.00
C60    C     0.90183   0.61712   0.10188   0.00000  Uiso   1.00
C61    C     0.95105   0.56468   0.11870   0.00000  Uiso   1.00
C62    C     0.92254   0.51862   0.08914   0.00000  Uiso   1.00
C63    C     0.97708   0.47484   0.11151   0.00000  Uiso   1.00
C64    C     0.85251   0.63832   0.16482   0.00000  Uiso   1.00
C65    C     0.74115   0.65418   0.17402   0.00000  Uiso   1.00
C66    C     0.71272   0.67239   0.23520   0.00000  Uiso   1.00
C67    C     0.00303   0.65120   0.08536   0.00000  Uiso   1.00
C68    C     0.01821   0.67791   0.02776   0.00000  Uiso   1.00
C69    C     0.11650   0.70699   0.02206   0.00000  Uiso   1.00
H70    H     0.11177   0.62303   0.23320   0.00000  Uiso   1.00
H71    H     0.14780   0.52498   0.23005   0.00000  Uiso   1.00
H72    H     0.96643   0.66051   0.31491   0.00000  Uiso   1.00
H73    H     0.24345   0.68424   0.16867   0.00000  Uiso   1.00
H74    H     0.15236   0.41527   0.20447   0.00000  Uiso   1.00
H75    H     0.76996   0.70108   0.38340   0.00000  Uiso   1.00
H76    H     0.35411   0.75111   0.07503   0.00000  Uiso   1.00
H77    H     0.83943   0.61536   0.06285   0.00000  Uiso   1.00
H78    H     0.86052   0.51689   0.05035   0.00000  Uiso   1.00
H79    H     0.67915   0.65243   0.13521   0.00000  Uiso   1.00
H80    H     0.95617   0.67615   0.98898   0.00000  Uiso   1.00
H81    H     0.91919   0.40871   0.05862   0.00000  Uiso   1.00
H82    H     0.53679   0.69452   0.23755   0.00000  Uiso   1.00
H83    H     0.12094   0.74455   0.92918   0.00000  Uiso   1.00
O84    O     0.05453   0.34735   0.12642   0.00000  Uiso   1.00
O85    O     0.55284   0.72232   0.36115   0.00000  Uiso   1.00
O86    O     0.31924   0.78796   0.95659   0.00000  Uiso   1.00
N87    N     0.09461   0.42724   0.17185   0.00000  Uiso   1.00
N88    N     0.73708   0.69445   0.33914   0.00000  Uiso   1.00
N89    N     0.28320   0.74123   0.05085   0.00000  Uiso   1.00
N90    N     0.96914   0.42371   0.09337   0.00000  Uiso   1.00
N91    N     0.61161   0.69092   0.26066   0.00000  Uiso   1.00
N92    N     0.15774   0.73770   0.97237   0.00000  Uiso   1.00
C93    C     0.04938   0.87873   0.30583   0.00000  Uiso   1.00
C94    C     0.03120   0.93307   0.33117   0.00000  Uiso   1.00
C95    C     0.08579   0.97678   0.30875   0.00000  Uiso   1.00
C96    C     0.05736   0.02290   0.33827   0.00000  Uiso   1.00
C97    C     0.04128   0.10692   0.36996   0.00000  Uiso   1.00
C98    C     0.93265   0.85943   0.28506   0.00000  Uiso   1.00
C99    C     0.90439   0.84123   0.22387   0.00000  Uiso   1.00
C100   C     0.79301   0.82535   0.21458   0.00000  Uiso   1.00
C101   C     0.62395   0.79502   0.17470   0.00000  Uiso   1.00
C102   C     0.08317   0.84654   0.36451   0.00000  Uiso   1.00
C103   C     0.18146   0.81750   0.37013   0.00000  Uiso   1.00
C104   C     0.19679   0.79076   0.42773   0.00000  Uiso   1.00
C105   C     0.26144   0.74042   0.51121   0.00000  Uiso   1.00
C106   C     0.90183   0.88288   0.39812   0.00000  Uiso   1.00
C107   C     0.95105   0.93532   0.38130   0.00000  Uiso   1.00
C108   C     0.92254   0.98138   0.41086   0.00000  Uiso   1.00
C109   C     0.97708   0.02516   0.38849   0.00000  Uiso   1.00
C110   C     0.85251   0.86168   0.33518   0.00000  Uiso   1.00
C111   C     0.74115   0.84582   0.32598   0.00000  Uiso   1.00
C112   C     0.71272   0.82761   0.26480   0.00000  Uiso   1.00
C113   C     0.00303   0.84880   0.41464   0.00000  Uiso   1.00
C114   C     0.01821   0.82209   0.47224   0.00000  Uiso   1.00
C115   C     0.11650   0.79301   0.47794   0.00000  Uiso   1.00
H116   H     0.11177   0.87697   0.26680   0.00000  Uiso   1.00
H117   H     0.14780   0.97502   0.26995   0.00000  Uiso   1.00
H118   H     0.96643   0.83949   0.18509   0.00000  Uiso   1.00
H119   H     0.24345   0.81576   0.33133   0.00000  Uiso   1.00
H120   H     0.15236   0.08473   0.29553   0.00000  Uiso   1.00
H121   H     0.76996   0.79892   0.11660   0.00000  Uiso   1.00
H122   H     0.35411   0.74889   0.42497   0.00000  Uiso   1.00
H123   H     0.83943   0.88464   0.43715   0.00000  Uiso   1.00
H124   H     0.86052   0.98311   0.44965   0.00000  Uiso   1.00
H125   H     0.67915   0.84757   0.36479   0.00000  Uiso   1.00
H126   H     0.95617   0.82385   0.51102   0.00000  Uiso   1.00
H127   H     0.91919   0.09129   0.44138   0.00000  Uiso   1.00
H128   H     0.53679   0.80548   0.26245   0.00000  Uiso   1.00
H129   H     0.12094   0.75545   0.57082   0.00000  Uiso   1.00
O130   O     0.05453   0.15265   0.37358   0.00000  Uiso   1.00
O131   O     0.55284   0.77768   0.13885   0.00000  Uiso   1.00
O132   O     0.31924   0.71204   0.54341   0.00000  Uiso   1.00
N133   N     0.09461   0.07276   0.32815   0.00000  Uiso   1.00
N134   N     0.73708   0.80555   0.16086   0.00000  Uiso   1.00
N135   N     0.28320   0.75877   0.44915   0.00000  Uiso   1.00
N136   N     0.96914   0.07629   0.40663   0.00000  Uiso   1.00
N137   N     0.61161   0.80908   0.23934   0.00000  Uiso   1.00
N138   N     0.15774   0.76230   0.52763   0.00000  Uiso   1.00
C139   C     0.45062   0.12127   0.30583   0.00000  Uiso   1.00
C140   C     0.46880   0.06693   0.33117   0.00000  Uiso   1.00
C141   C     0.41421   0.02322   0.30875   0.00000  Uiso   1.00
C142   C     0.44264   0.97710   0.33827   0.00000  Uiso   1.00
C143   C     0.45872   0.89308   0.36996   0.00000  Uiso   1.00
C144   C     0.56735   0.14057   0.28506   0.00000  Uiso   1.00
C145   C     0.59561   0.15877   0.22387   0.00000  Uiso   1.00
C146   C     0.70699   0.17465   0.21458   0.00000  Uiso   1.00
C147   C     0.87605   0.20498   0.17470   0.00000  Uiso   1.00
C148   C     0.41683   0.15346   0.36451   0.00000  Uiso   1.00
C149   C     0.31854   0.18250   0.37013   0.00000  Uiso   1.00
C150   C     0.30321   0.20924   0.42773   0.00000  Uiso   1.00
C151   C     0.23856   0.25958   0.51121   0.00000  Uiso   1.00
C152   C     0.59817   0.11712   0.39812   0.00000  Uiso   1.00
C153   C     0.54895   0.06468   0.38130   0.00000  Uiso   1.00
C154   C     0.57746   0.01862   0.41086   0.00000  Uiso   1.00
C155   C     0.52292   0.97484   0.38849   0.00000  Uiso   1.00
C156   C     0.64749   0.13832   0.33518   0.00000  Uiso   1.00
C157   C     0.75885   0.15418   0.32598   0.00000  Uiso   1.00
C158   C     0.78728   0.17239   0.26480   0.00000  Uiso   1.00
C159   C     0.49697   0.15120   0.41464   0.00000  Uiso   1.00
C160   C     0.48179   0.17791   0.47224   0.00000  Uiso   1.00
C161   C     0.38350   0.20699   0.47794   0.00000  Uiso   1.00
H162   H     0.38823   0.12303   0.26680   0.00000  Uiso   1.00
H163   H     0.35220   0.02498   0.26995   0.00000  Uiso   1.00
H164   H     0.53357   0.16051   0.18509   0.00000  Uiso   1.00
H165   H     0.25655   0.18424   0.33133   0.00000  Uiso   1.00
H166   H     0.34764   0.91527   0.29553   0.00000  Uiso   1.00
H167   H     0.73004   0.20108   0.11660   0.00000  Uiso   1.00
H168   H     0.14589   0.25111   0.42497   0.00000  Uiso   1.00
H169   H     0.66057   0.11536   0.43715   0.00000  Uiso   1.00
H170   H     0.63948   0.01689   0.44965   0.00000  Uiso   1.00
H171   H     0.82085   0.15243   0.36479   0.00000  Uiso   1.00
H172   H     0.54383   0.17615   0.51102   0.00000  Uiso   1.00
H173   H     0.58081   0.90871   0.44138   0.00000  Uiso   1.00
H174   H     0.96321   0.19452   0.26245   0.00000  Uiso   1.00
H175   H     0.37906   0.24455   0.57082   0.00000  Uiso   1.00
O176   O     0.44547   0.84735   0.37358   0.00000  Uiso   1.00
O177   O     0.94716   0.22232   0.13885   0.00000  Uiso   1.00
O178   O     0.18076   0.28796   0.54341   0.00000  Uiso   1.00
N179   N     0.40539   0.92724   0.32815   0.00000  Uiso   1.00
N180   N     0.76292   0.19445   0.16086   0.00000  Uiso   1.00
N181   N     0.21680   0.24123   0.44915   0.00000  Uiso   1.00
N182   N     0.53086   0.92371   0.40663   0.00000  Uiso   1.00
N183   N     0.88839   0.19092   0.23934   0.00000  Uiso   1.00
N184   N     0.34226   0.23770   0.52763   0.00000  Uiso   1.00
C185   C     0.54938   0.62127   0.80583   0.00000  Uiso   1.00
C186   C     0.53120   0.56693   0.83117   0.00000  Uiso   1.00
C187   C     0.58579   0.52322   0.80875   0.00000  Uiso   1.00
C188   C     0.55736   0.47710   0.83827   0.00000  Uiso   1.00
C189   C     0.54128   0.39308   0.86996   0.00000  Uiso   1.00
C190   C     0.43265   0.64057   0.78506   0.00000  Uiso   1.00
C191   C     0.40439   0.65877   0.72387   0.00000  Uiso   1.00
C192   C     0.29301   0.67465   0.71458   0.00000  Uiso   1.00
C193   C     0.12395   0.70498   0.67470   0.00000  Uiso   1.00
C194   C     0.58317   0.65346   0.86451   0.00000  Uiso   1.00
C195   C     0.68146   0.68250   0.87013   0.00000  Uiso   1.00
C196   C     0.69679   0.70924   0.92773   0.00000  Uiso   1.00
C197   C     0.76144   0.75958   0.01121   0.00000  Uiso   1.00
C198   C     0.40183   0.61712   0.89812   0.00000  Uiso   1.00
C199   C     0.45105   0.56468   0.88130   0.00000  Uiso   1.00
C200   C     0.42254   0.51862   0.91086   0.00000  Uiso   1.00
C201   C     0.47708   0.47484   0.88849   0.00000  Uiso   1.00
C202   C     0.35251   0.63832   0.83518   0.00000  Uiso   1.00
C203   C     0.24115   0.65418   0.82598   0.00000  Uiso   1.00
C204   C     0.21272   0.67239   0.76480   0.00000  Uiso   1.00
C205   C     0.50303   0.65120   0.91464   0.00000  Uiso   1.00
C206   C     0.51821   0.67791   0.97224   0.00000  Uiso   1.00
C207   C     0.61650   0.70699   0.97794   0.00000  Uiso   1.00
H208   H     0.61177   0.62303   0.76680   0.00000  Uiso   1.00
H209   H     0.64780   0.52498   0.76995   0.00000  Uiso   1.00
H210   H     0.46643   0.66051   0.68509   0.00000  Uiso   1.00
H211   H     0.74345   0.68424   0.83133   0.00000  Uiso   1.00
H212   H     0.65236   0.41527   0.79553   0.00000  Uiso   1.00
H213   H     0.26996   0.70108   0.61660   0.00000  Uiso   1.00
H214   H     0.85411   0.75111   0.92497   0.00000  Uiso   1.00
H215   H     0.33943   0.61536   0.93715   0.00000  Uiso   1.00
H216   H     0.36052   0.51689   0.94965   0.00000  Uiso   1.00
H217   H     0.17915   0.65243   0.86479   0.00000  Uiso   1.00
H218   H     0.45617   0.67615   0.01102   0.00000  Uiso   1.00
H219   H     0.41919   0.40871   0.94138   0.00000  Uiso   1.00
H220   H     0.03679   0.69452   0.76245   0.00000  Uiso   1.00
H221   H     0.62094   0.74455   0.07082   0.00000  Uiso   1.00
O222   O     0.55453   0.34735   0.87358   0.00000  Uiso   1.00
O223   O     0.05284   0.72232   0.63885   0.00000  Uiso   1.00
O224   O     0.81924   0.78796   0.04341   0.00000  Uiso   1.00
N225   N     0.59461   0.42724   0.82815   0.00000  Uiso   1.00
N226   N     0.23708   0.69445   0.66086   0.00000  Uiso   1.00
N227   N     0.78320   0.74123   0.94915   0.00000  Uiso   1.00
N228   N     0.46914   0.42371   0.90663   0.00000  Uiso   1.00
N229   N     0.11161   0.69092   0.73934   0.00000  Uiso   1.00
N230   N     0.65774   0.73770   0.02763   0.00000  Uiso   1.00
C231   C     0.95062   0.37873   0.80583   0.00000  Uiso   1.00
C232   C     0.96880   0.43307   0.83117   0.00000  Uiso   1.00
C233   C     0.91421   0.47678   0.80875   0.00000  Uiso   1.00
C234   C     0.94264   0.52290   0.83827   0.00000  Uiso   1.00
C235   C     0.95872   0.60692   0.86996   0.00000  Uiso   1.00
C236   C     0.06735   0.35943   0.78506   0.00000  Uiso   1.00
C237   C     0.09561   0.34123   0.72387   0.00000  Uiso   1.00
C238   C     0.20699   0.32535   0.71458   0.00000  Uiso   1.00
C239   C     0.37605   0.29502   0.67470   0.00000  Uiso   1.00
C240   C     0.91683   0.34654   0.86451   0.00000  Uiso   1.00
C241   C     0.81854   0.31750   0.87013   0.00000  Uiso   1.00
C242   C     0.80321   0.29076   0.92773   0.00000  Uiso   1.00
C243   C     0.73856   0.24042   0.01121   0.00000  Uiso   1.00
C244   C     0.09817   0.38288   0.89812   0.00000  Uiso   1.00
C245   C     0.04895   0.43532   0.88130   0.00000  Uiso   1.00
C246   C     0.07746   0.48138   0.91086   0.00000  Uiso   1.00
C247   C     0.02292   0.52516   0.88849   0.00000  Uiso   1.00
C248   C     0.14749   0.36168   0.83518   0.00000  Uiso   1.00
C249   C     0.25885   0.34582   0.82598   0.00000  Uiso   1.00
C250   C     0.28728   0.32761   0.76480   0.00000  Uiso   1.00
C251   C     0.99697   0.34880   0.91464   0.00000  Uiso   1.00
C252   C     0.98179   0.32209   0.97224   0.00000  Uiso   1.00
C253   C     0.88350   0.29301   0.97794   0.00000  Uiso   1.00
H254   H     0.88823   0.37697   0.76680   0.00000  Uiso   1.00
H255   H     0.85220   0.47502   0.76995   0.00000  Uiso   1.00
H256   H     0.03357   0.33949   0.68509   0.00000  Uiso   1.00
H257   H     0.75655   0.31576   0.83133   0.00000  Uiso   1.00
H258   H     0.84764   0.58473   0.79553   0.00000  Uiso   1.00
H259   H     0.23004   0.29892   0.61660   0.00000  Uiso   1.00
H260   H     0.64589   0.24889   0.92497   0.00000  Uiso   1.00
H261   H     0.16057   0.38464   0.93715   0.00000  Uiso   1.00
H262   H     0.13948   0.48311   0.94965   0.00000  Uiso   1.00
H263   H     0.32085   0.34757   0.86479   0.00000  Uiso   1.00
H264   H     0.04383   0.32385   0.01102   0.00000  Uiso   1.00
H265   H     0.08081   0.59129   0.94138   0.00000  Uiso   1.00
H266   H     0.46321   0.30548   0.76245   0.00000  Uiso   1.00
H267   H     0.87906   0.25545   0.07082   0.00000  Uiso   1.00
O268   O     0.94547   0.65265   0.87358   0.00000  Uiso   1.00
O269   O     0.44716   0.27768   0.63885   0.00000  Uiso   1.00
O270   O     0.68076   0.21204   0.04341   0.00000  Uiso   1.00
N271   N     0.90539   0.57276   0.82815   0.00000  Uiso   1.00
N272   N     0.26292   0.30555   0.66086   0.00000  Uiso   1.00
N273   N     0.71680   0.25877   0.94915   0.00000  Uiso   1.00
N274   N     0.03086   0.57629   0.90663   0.00000  Uiso   1.00
N275   N     0.38839   0.30908   0.73934   0.00000  Uiso   1.00
N276   N     0.84226   0.26230   0.02763   0.00000  Uiso   1.00
C277   C     0.95062   0.12127   0.69417   0.00000  Uiso   1.00
C278   C     0.96880   0.06693   0.66883   0.00000  Uiso   1.00
C279   C     0.91421   0.02322   0.69125   0.00000  Uiso   1.00
C280   C     0.94264   0.97710   0.66173   0.00000  Uiso   1.00
C281   C     0.95872   0.89308   0.63004   0.00000  Uiso   1.00
C282   C     0.06735   0.14057   0.71494   0.00000  Uiso   1.00
C283   C     0.09561   0.15877   0.77613   0.00000  Uiso   1.00
C284   C     0.20699   0.17465   0.78542   0.00000  Uiso   1.00
C285   C     0.37605   0.20498   0.82530   0.00000  Uiso   1.00
C286   C     0.91683   0.15346   0.63549   0.00000  Uiso   1.00
C287   C     0.81854   0.18250   0.62987   0.00000  Uiso   1.00
C288   C     0.80321   0.20924   0.57227   0.00000  Uiso   1.00
C289   C     0.73856   0.25958   0.48879   0.00000  Uiso   1.00
C290   C     0.09817   0.11712   0.60188   0.00000  Uiso   1.00
C291   C     0.04895   0.06468   0.61870   0.00000  Uiso   1.00
C292   C     0.07746   0.01862   0.58914   0.00000  Uiso   1.00
C293   C     0.02292   0.97484   0.61151   0.00000  Uiso   1.00
C294   C     0.14749   0.13832   0.66482   0.00000  Uiso   1.00
C295   C     0.25885   0.15418   0.67402   0.00000  Uiso   1.00
C296   C     0.28728   0.17239   0.73520   0.00000  Uiso   1.00
C297   C     0.99697   0.15120   0.58536   0.00000  Uiso   1.00
C298   C     0.98179   0.17791   0.52776   0.00000  Uiso   1.00
C299   C     0.88350   0.20699   0.52206   0.00000  Uiso   1.00
H300   H     0.88823   0.12303   0.73320   0.00000  Uiso   1.00
H301   H     0.85220   0.02498   0.73005   0.00000  Uiso   1.00
H302   H     0.03357   0.16051   0.81491   0.00000  Uiso   1.00
H303   H     0.75655   0.18424   0.66867   0.00000  Uiso   1.00
H304   H     0.84764   0.91527   0.70447   0.00000  Uiso   1.00
H305   H     0.23004   0.20108   0.88340   0.00000  Uiso   1.00
H306   H     0.64589   0.25111   0.57503   0.00000  Uiso   1.00
H307   H     0.16057   0.11536   0.56285   0.00000  Uiso   1.00
H308   H     0.13948   0.01689   0.55035   0.00000  Uiso   1.00
H309   H     0.32085   0.15243   0.63521   0.00000  Uiso   1.00
H310   H     0.04383   0.17615   0.48898   0.00000  Uiso   1.00
H311   H     0.08081   0.90871   0.55862   0.00000  Uiso   1.00
H312   H     0.46321   0.19452   0.73755   0.00000  Uiso   1.00
H313   H     0.87906   0.24455   0.42918   0.00000  Uiso   1.00
O314   O     0.94547   0.84735   0.62642   0.00000  Uiso   1.00
O315   O     0.44716   0.22232   0.86115   0.00000  Uiso   1.00
O316   O     0.68076   0.28796   0.45659   0.00000  Uiso   1.00
N317   N     0.90539   0.92724   0.67185   0.00000  Uiso   1.00
N318   N     0.26292   0.19445   0.83914   0.00000  Uiso   1.00
N319   N     0.71680   0.24123   0.55085   0.00000  Uiso   1.00
N320   N     0.03086   0.92371   0.59337   0.00000  Uiso   1.00
N321   N     0.38839   0.19092   0.76066   0.00000  Uiso   1.00
N322   N     0.84226   0.23770   0.47237   0.00000  Uiso   1.00
C323   C     0.54938   0.87873   0.69417   0.00000  Uiso   1.00
C324   C     0.53120   0.93307   0.66883   0.00000  Uiso   1.00
C325   C     0.58579   0.97678   0.69125   0.00000  Uiso   1.00
C326   C     0.55736   0.02290   0.66173   0.00000  Uiso   1.00
C327   C     0.54128   0.10692   0.63004   0.00000  Uiso   1.00
C328   C     0.43265   0.85943   0.71494   0.00000  Uiso   1.00
C329   C     0.40439   0.84123   0.77613   0.00000  Uiso   1.00
C330   C     0.29301   0.82535   0.78542   0.00000  Uiso   1.00
C331   C     0.12395   0.79502   0.82530   0.00000  Uiso   1.00
C332   C     0.58317   0.84654   0.63549   0.00000  Uiso   1.00
C333   C     0.68146   0.81750   0.62987   0.00000  Uiso   1.00
C334   C     0.69679   0.79076   0.57227   0.00000  Uiso   1.00
C335   C     0.76144   0.74042   0.48879   0.00000  Uiso   1.00
C336   C     0.40183   0.88288   0.60188   0.00000  Uiso   1.00
C337   C     0.45105   0.93532   0.61870   0.00000  Uiso   1.00
C338   C     0.42254   0.98138   0.58914   0.00000  Uiso   1.00
C339   C     0.47708   0.02516   0.61151   0.00000  Uiso   1.00
C340   C     0.35251   0.86168   0.66482   0.00000  Uiso   1.00
C341   C     0.24115   0.84582   0.67402   0.00000  Uiso   1.00
C342   C     0.21272   0.82761   0.73520   0.00000  Uiso   1.00
C343   C     0.50303   0.84880   0.58536   0.00000  Uiso   1.00
C344   C     0.51821   0.82209   0.52776   0.00000  Uiso   1.00
C345   C     0.61650   0.79301   0.52206   0.00000  Uiso   1.00
H346   H     0.61177   0.87697   0.73320   0.00000  Uiso   1.00
H347   H     0.64780   0.97502   0.73005   0.00000  Uiso   1.00
H348   H     0.46643   0.83949   0.81491   0.00000  Uiso   1.00
H349   H     0.74345   0.81576   0.66867   0.00000  Uiso   1.00
H350   H     0.65236   0.08473   0.70447   0.00000  Uiso   1.00
H351   H     0.26996   0.79892   0.88340   0.00000  Uiso   1.00
H352   H     0.85411   0.74889   0.57503   0.00000  Uiso   1.00
H353   H     0.33943   0.88464   0.56285   0.00000  Uiso   1.00
H354   H     0.36052   0.98311   0.55035   0.00000  Uiso   1.00
H355   H     0.17915   0.84757   0.63521   0.00000  Uiso   1.00
H356   H     0.45617   0.82385   0.48898   0.00000  Uiso   1.00
H357   H     0.41919   0.09129   0.55862   0.00000  Uiso   1.00
H358   H     0.03679   0.80548   0.73755   0.00000  Uiso   1.00
H359   H     0.62094   0.75545   0.42918   0.00000  Uiso   1.00
O360   O     0.55453   0.15265   0.62642   0.00000  Uiso   1.00
O361   O     0.05284   0.77768   0.86115   0.00000  Uiso   1.00
O362   O     0.81924   0.71204   0.45659   0.00000  Uiso   1.00
N363   N     0.59461   0.07276   0.67185   0.00000  Uiso   1.00
N364   N     0.23708   0.80555   0.83914   0.00000  Uiso   1.00
N365   N     0.78320   0.75877   0.55085   0.00000  Uiso   1.00
N366   N     0.46914   0.07629   0.59337   0.00000  Uiso   1.00
N367   N     0.11161   0.80908   0.76066   0.00000  Uiso   1.00
N368   N     0.65774   0.76230   0.47237   0.00000  Uiso   1.00
