data_job_05883
_audit_creation_date              2018-12-19
_audit_creation_method            'Materials Studio'
_symmetry_space_group_name_H-M    'P1'
_symmetry_Int_Tables_number       1
_symmetry_cell_setting            triclinic
loop_
_symmetry_equiv_pos_as_xyz
  x,y,z
_cell_length_a                    18.9963
_cell_length_b                    18.9963
_cell_length_c                    12.9237
_cell_angle_alpha                 90.0000
_cell_angle_beta                  90.0000
_cell_angle_gamma                 90.0000
loop_
_atom_site_label
_atom_site_type_symbol
_atom_site_fract_x
_atom_site_fract_y
_atom_site_fract_z
_atom_site_U_iso_or_equiv
_atom_site_adp_type
_atom_site_occupancy
C1     C     0.94294   0.74955   0.50901   0.00000  Uiso   1.00
C2     C     0.91408   0.67973   0.46910   0.00000  Uiso   1.00
C3     C     0.85608   0.64425   0.50840   0.00000  Uiso   1.00
C4     C     0.83811   0.58112   0.46116   0.00000  Uiso   1.00
C5     C     0.78743   0.47675   0.41193   0.00000  Uiso   1.00
C6     C     0.01989   0.73604   0.53616   0.00000  Uiso   1.00
C7     C     0.05086   0.74791   0.63184   0.00000  Uiso   1.00
C8     C     0.12196   0.73219   0.64104   0.00000  Uiso   1.00
C9     C     0.23557   0.71529   0.69590   0.00000  Uiso   1.00
C10    C     0.94367   0.79926   0.41638   0.00000  Uiso   1.00
C11    C     0.91057   0.86430   0.41135   0.00000  Uiso   1.00
C12    C     0.91751   0.90182   0.31971   0.00000  Uiso   1.00
C13    C     0.91277   0.98308   0.18860   0.00000  Uiso   1.00
C14    C     0.01415   0.70052   0.35521   0.00000  Uiso   1.00
C15    C     0.95276   0.65311   0.38556   0.00000  Uiso   1.00
C16    C     0.93486   0.59001   0.33824   0.00000  Uiso   1.00
C17    C     0.87685   0.55445   0.37747   0.00000  Uiso   1.00
C18    C     0.05857   0.70941   0.45263   0.00000  Uiso   1.00
C19    C     0.12964   0.69367   0.46168   0.00000  Uiso   1.00
C20    C     0.16071   0.70551   0.55735   0.00000  Uiso   1.00
C21    C     0.98234   0.77264   0.33284   0.00000  Uiso   1.00
C22    C     0.98934   0.81006   0.24119   0.00000  Uiso   1.00
C23    C     0.95626   0.87514   0.23603   0.00000  Uiso   1.00
H24    H     0.91284   0.77028   0.57405   0.00000  Uiso   1.00
H25    H     0.82617   0.66488   0.57306   0.00000  Uiso   1.00
H26    H     0.02092   0.76853   0.69647   0.00000  Uiso   1.00
H27    H     0.88064   0.88489   0.47601   0.00000  Uiso   1.00
H28    H     0.74716   0.53626   0.53515   0.00000  Uiso   1.00
H29    H     0.15780   0.75484   0.79536   0.00000  Uiso   1.00
H30    H     0.86200   0.00022   0.33049   0.00000  Uiso   1.00
H31    H     0.04426   0.67979   0.29017   0.00000  Uiso   1.00
H32    H     0.96481   0.56942   0.27360   0.00000  Uiso   1.00
H33    H     0.15955   0.67307   0.39702   0.00000  Uiso   1.00
H34    H     0.01928   0.78944   0.17656   0.00000  Uiso   1.00
H35    H     0.85968   0.45878   0.29210   0.00000  Uiso   1.00
H36    H     0.27032   0.67737   0.55231   0.00000  Uiso   1.00
H37    H     0.97452   0.92274   0.08744   0.00000  Uiso   1.00
O38    O     0.74879   0.42654   0.40787   0.00000  Uiso   1.00
O39    O     0.28754   0.71332   0.74925   0.00000  Uiso   1.00
O40    O     0.89946   0.03525   0.13935   0.00000  Uiso   1.00
N41    N     0.78454   0.53318   0.48020   0.00000  Uiso   1.00
N42    N     0.16846   0.73753   0.72349   0.00000  Uiso   1.00
N43    N     0.89193   0.96695   0.28889   0.00000  Uiso   1.00
N44    N     0.84508   0.49149   0.34942   0.00000  Uiso   1.00
N45    N     0.22901   0.69584   0.59271   0.00000  Uiso   1.00
N46    N     0.95248   0.92526   0.15811   0.00000  Uiso   1.00
C47    C     0.05706   0.25045   0.50901   0.00000  Uiso   1.00
C48    C     0.08592   0.32027   0.46910   0.00000  Uiso   1.00
C49    C     0.14392   0.35575   0.50840   0.00000  Uiso   1.00
C50    C     0.16189   0.41888   0.46116   0.00000  Uiso   1.00
C51    C     0.21257   0.52325   0.41193   0.00000  Uiso   1.00
C52    C     0.98011   0.26396   0.53616   0.00000  Uiso   1.00
C53    C     0.94914   0.25209   0.63184   0.00000  Uiso   1.00
C54    C     0.87804   0.26781   0.64104   0.00000  Uiso   1.00
C55    C     0.76443   0.28471   0.69590   0.00000  Uiso   1.00
C56    C     0.05633   0.20074   0.41638   0.00000  Uiso   1.00
C57    C     0.08943   0.13570   0.41135   0.00000  Uiso   1.00
C58    C     0.08249   0.09818   0.31971   0.00000  Uiso   1.00
C59    C     0.08723   0.01692   0.18860   0.00000  Uiso   1.00
C60    C     0.98585   0.29948   0.35521   0.00000  Uiso   1.00
C61    C     0.04724   0.34689   0.38556   0.00000  Uiso   1.00
C62    C     0.06514   0.40999   0.33824   0.00000  Uiso   1.00
C63    C     0.12315   0.44555   0.37747   0.00000  Uiso   1.00
C64    C     0.94143   0.29059   0.45263   0.00000  Uiso   1.00
C65    C     0.87036   0.30633   0.46168   0.00000  Uiso   1.00
C66    C     0.83929   0.29449   0.55735   0.00000  Uiso   1.00
C67    C     0.01766   0.22736   0.33284   0.00000  Uiso   1.00
C68    C     0.01066   0.18994   0.24119   0.00000  Uiso   1.00
C69    C     0.04374   0.12486   0.23603   0.00000  Uiso   1.00
H70    H     0.08716   0.22972   0.57405   0.00000  Uiso   1.00
H71    H     0.17383   0.33512   0.57306   0.00000  Uiso   1.00
H72    H     0.97908   0.23147   0.69647   0.00000  Uiso   1.00
H73    H     0.11936   0.11511   0.47601   0.00000  Uiso   1.00
H74    H     0.25284   0.46374   0.53515   0.00000  Uiso   1.00
H75    H     0.84220   0.24516   0.79536   0.00000  Uiso   1.00
H76    H     0.13800   0.99978   0.33049   0.00000  Uiso   1.00
H77    H     0.95574   0.32021   0.29017   0.00000  Uiso   1.00
H78    H     0.03519   0.43058   0.27360   0.00000  Uiso   1.00
H79    H     0.84045   0.32693   0.39702   0.00000  Uiso   1.00
H80    H     0.98072   0.21056   0.17656   0.00000  Uiso   1.00
H81    H     0.14032   0.54122   0.29210   0.00000  Uiso   1.00
H82    H     0.72968   0.32263   0.55231   0.00000  Uiso   1.00
H83    H     0.02548   0.07726   0.08744   0.00000  Uiso   1.00
O84    O     0.25121   0.57346   0.40787   0.00000  Uiso   1.00
O85    O     0.71246   0.28668   0.74925   0.00000  Uiso   1.00
O86    O     0.10054   0.96475   0.13935   0.00000  Uiso   1.00
N87    N     0.21546   0.46682   0.48020   0.00000  Uiso   1.00
N88    N     0.83154   0.26247   0.72349   0.00000  Uiso   1.00
N89    N     0.10807   0.03305   0.28889   0.00000  Uiso   1.00
N90    N     0.15492   0.50851   0.34942   0.00000  Uiso   1.00
N91    N     0.77099   0.30416   0.59271   0.00000  Uiso   1.00
N92    N     0.04752   0.07474   0.15811   0.00000  Uiso   1.00
C93    C     0.25045   0.94294   0.00901   0.00000  Uiso   1.00
C94    C     0.32027   0.91408   0.96910   0.00000  Uiso   1.00
C95    C     0.35575   0.85608   0.00840   0.00000  Uiso   1.00
C96    C     0.41888   0.83811   0.96116   0.00000  Uiso   1.00
C97    C     0.52325   0.78743   0.91193   0.00000  Uiso   1.00
C98    C     0.26396   0.01989   0.03616   0.00000  Uiso   1.00
C99    C     0.25209   0.05086   0.13184   0.00000  Uiso   1.00
C100   C     0.26781   0.12196   0.14104   0.00000  Uiso   1.00
C101   C     0.28471   0.23557   0.19590   0.00000  Uiso   1.00
C102   C     0.20074   0.94367   0.91638   0.00000  Uiso   1.00
C103   C     0.13570   0.91057   0.91135   0.00000  Uiso   1.00
C104   C     0.09818   0.91751   0.81971   0.00000  Uiso   1.00
C105   C     0.01692   0.91277   0.68860   0.00000  Uiso   1.00
C106   C     0.29948   0.01415   0.85521   0.00000  Uiso   1.00
C107   C     0.34689   0.95276   0.88556   0.00000  Uiso   1.00
C108   C     0.40999   0.93486   0.83824   0.00000  Uiso   1.00
C109   C     0.44555   0.87685   0.87747   0.00000  Uiso   1.00
C110   C     0.29059   0.05857   0.95263   0.00000  Uiso   1.00
C111   C     0.30633   0.12964   0.96168   0.00000  Uiso   1.00
C112   C     0.29449   0.16071   0.05735   0.00000  Uiso   1.00
C113   C     0.22736   0.98234   0.83284   0.00000  Uiso   1.00
C114   C     0.18994   0.98934   0.74119   0.00000  Uiso   1.00
C115   C     0.12486   0.95626   0.73603   0.00000  Uiso   1.00
H116   H     0.22972   0.91284   0.07405   0.00000  Uiso   1.00
H117   H     0.33512   0.82617   0.07306   0.00000  Uiso   1.00
H118   H     0.23147   0.02092   0.19647   0.00000  Uiso   1.00
H119   H     0.11511   0.88064   0.97601   0.00000  Uiso   1.00
H120   H     0.46374   0.74716   0.03515   0.00000  Uiso   1.00
H121   H     0.24516   0.15780   0.29536   0.00000  Uiso   1.00
H122   H     0.99978   0.86200   0.83049   0.00000  Uiso   1.00
H123   H     0.32021   0.04426   0.79017   0.00000  Uiso   1.00
H124   H     0.43058   0.96481   0.77360   0.00000  Uiso   1.00
H125   H     0.32693   0.15955   0.89702   0.00000  Uiso   1.00
H126   H     0.21056   0.01928   0.67656   0.00000  Uiso   1.00
H127   H     0.54122   0.85968   0.79210   0.00000  Uiso   1.00
H128   H     0.32263   0.27032   0.05231   0.00000  Uiso   1.00
H129   H     0.07726   0.97452   0.58744   0.00000  Uiso   1.00
O130   O     0.57346   0.74879   0.90787   0.00000  Uiso   1.00
O131   O     0.28668   0.28754   0.24925   0.00000  Uiso   1.00
O132   O     0.96475   0.89946   0.63935   0.00000  Uiso   1.00
N133   N     0.46682   0.78454   0.98020   0.00000  Uiso   1.00
N134   N     0.26247   0.16846   0.22349   0.00000  Uiso   1.00
N135   N     0.03305   0.89193   0.78889   0.00000  Uiso   1.00
N136   N     0.50851   0.84508   0.84942   0.00000  Uiso   1.00
N137   N     0.30416   0.22901   0.09271   0.00000  Uiso   1.00
N138   N     0.07474   0.95248   0.65811   0.00000  Uiso   1.00
C139   C     0.74955   0.05706   0.00901   0.00000  Uiso   1.00
C140   C     0.67973   0.08592   0.96910   0.00000  Uiso   1.00
C141   C     0.64425   0.14392   0.00840   0.00000  Uiso   1.00
C142   C     0.58112   0.16189   0.96116   0.00000  Uiso   1.00
C143   C     0.47675   0.21257   0.91193   0.00000  Uiso   1.00
C144   C     0.73604   0.98011   0.03616   0.00000  Uiso   1.00
C145   C     0.74791   0.94914   0.13184   0.00000  Uiso   1.00
C146   C     0.73219   0.87804   0.14104   0.00000  Uiso   1.00
C147   C     0.71529   0.76443   0.19590   0.00000  Uiso   1.00
C148   C     0.79926   0.05633   0.91638   0.00000  Uiso   1.00
C149   C     0.86430   0.08943   0.91135   0.00000  Uiso   1.00
C150   C     0.90182   0.08249   0.81971   0.00000  Uiso   1.00
C151   C     0.98308   0.08723   0.68860   0.00000  Uiso   1.00
C152   C     0.70052   0.98585   0.85521   0.00000  Uiso   1.00
C153   C     0.65311   0.04724   0.88556   0.00000  Uiso   1.00
C154   C     0.59001   0.06514   0.83824   0.00000  Uiso   1.00
C155   C     0.55445   0.12315   0.87747   0.00000  Uiso   1.00
C156   C     0.70941   0.94143   0.95263   0.00000  Uiso   1.00
C157   C     0.69367   0.87036   0.96168   0.00000  Uiso   1.00
C158   C     0.70551   0.83929   0.05735   0.00000  Uiso   1.00
C159   C     0.77264   0.01766   0.83284   0.00000  Uiso   1.00
C160   C     0.81006   0.01066   0.74119   0.00000  Uiso   1.00
C161   C     0.87514   0.04374   0.73603   0.00000  Uiso   1.00
H162   H     0.77028   0.08716   0.07405   0.00000  Uiso   1.00
H163   H     0.66488   0.17383   0.07306   0.00000  Uiso   1.00
H164   H     0.76853   0.97908   0.19647   0.00000  Uiso   1.00
H165   H     0.88489   0.11936   0.97601   0.00000  Uiso   1.00
H166   H     0.53626   0.25284   0.03515   0.00000  Uiso   1.00
H167   H     0.75484   0.84220   0.29536   0.00000  Uiso   1.00
H168   H     0.00022   0.13800   0.83049   0.00000  Uiso   1.00
H169   H     0.67979   0.95574   0.79017   0.00000  Uiso   1.00
H170   H     0.56942   0.03519   0.77360   0.00000  Uiso   1.00
H171   H     0.67307   0.84045   0.89702   0.00000  Uiso   1.00
H172   H     0.78944   0.98072   0.67656   0.00000  Uiso   1.00
H173   H     0.45878   0.14032   0.79210   0.00000  Uiso   1.00
H174   H     0.67737   0.72968   0.05231   0.00000  Uiso   1.00
H175   H     0.92274   0.02548   0.58744   0.00000  Uiso   1.00
O176   O     0.42654   0.25121   0.90787   0.00000  Uiso   1.00
O177   O     0.71332   0.71246   0.24925   0.00000  Uiso   1.00
O178   O     0.03525   0.10054   0.63935   0.00000  Uiso   1.00
N179   N     0.53318   0.21546   0.98020   0.00000  Uiso   1.00
N180   N     0.73753   0.83154   0.22349   0.00000  Uiso   1.00
N181   N     0.96695   0.10807   0.78889   0.00000  Uiso   1.00
N182   N     0.49149   0.15492   0.84942   0.00000  Uiso   1.00
N183   N     0.69584   0.77099   0.09271   0.00000  Uiso   1.00
N184   N     0.92526   0.04752   0.65811   0.00000  Uiso   1.00
C185   C     0.44294   0.75045   0.50901   0.00000  Uiso   1.00
C186   C     0.41408   0.82027   0.46910   0.00000  Uiso   1.00
C187   C     0.35608   0.85575   0.50840   0.00000  Uiso   1.00
C188   C     0.33811   0.91888   0.46116   0.00000  Uiso   1.00
C189   C     0.28743   0.02325   0.41193   0.00000  Uiso   1.00
C190   C     0.51989   0.76396   0.53616   0.00000  Uiso   1.00
C191   C     0.55086   0.75209   0.63184   0.00000  Uiso   1.00
C192   C     0.62196   0.76781   0.64104   0.00000  Uiso   1.00
C193   C     0.73557   0.78471   0.69590   0.00000  Uiso   1.00
C194   C     0.44367   0.70074   0.41638   0.00000  Uiso   1.00
C195   C     0.41057   0.63570   0.41135   0.00000  Uiso   1.00
C196   C     0.41751   0.59818   0.31971   0.00000  Uiso   1.00
C197   C     0.41277   0.51692   0.18860   0.00000  Uiso   1.00
C198   C     0.51415   0.79948   0.35521   0.00000  Uiso   1.00
C199   C     0.45276   0.84689   0.38556   0.00000  Uiso   1.00
C200   C     0.43486   0.90999   0.33824   0.00000  Uiso   1.00
C201   C     0.37685   0.94555   0.37747   0.00000  Uiso   1.00
C202   C     0.55857   0.79059   0.45263   0.00000  Uiso   1.00
C203   C     0.62964   0.80633   0.46168   0.00000  Uiso   1.00
C204   C     0.66071   0.79449   0.55735   0.00000  Uiso   1.00
C205   C     0.48234   0.72736   0.33284   0.00000  Uiso   1.00
C206   C     0.48934   0.68994   0.24119   0.00000  Uiso   1.00
C207   C     0.45626   0.62486   0.23603   0.00000  Uiso   1.00
H208   H     0.41284   0.72972   0.57405   0.00000  Uiso   1.00
H209   H     0.32617   0.83512   0.57306   0.00000  Uiso   1.00
H210   H     0.52092   0.73147   0.69647   0.00000  Uiso   1.00
H211   H     0.38064   0.61511   0.47601   0.00000  Uiso   1.00
H212   H     0.24716   0.96374   0.53515   0.00000  Uiso   1.00
H213   H     0.65780   0.74516   0.79536   0.00000  Uiso   1.00
H214   H     0.36200   0.49978   0.33049   0.00000  Uiso   1.00
H215   H     0.54426   0.82021   0.29017   0.00000  Uiso   1.00
H216   H     0.46481   0.93058   0.27360   0.00000  Uiso   1.00
H217   H     0.65955   0.82693   0.39702   0.00000  Uiso   1.00
H218   H     0.51928   0.71056   0.17656   0.00000  Uiso   1.00
H219   H     0.35968   0.04122   0.29210   0.00000  Uiso   1.00
H220   H     0.77032   0.82263   0.55231   0.00000  Uiso   1.00
H221   H     0.47452   0.57726   0.08744   0.00000  Uiso   1.00
O222   O     0.24879   0.07346   0.40787   0.00000  Uiso   1.00
O223   O     0.78754   0.78668   0.74925   0.00000  Uiso   1.00
O224   O     0.39946   0.46475   0.13935   0.00000  Uiso   1.00
N225   N     0.28454   0.96682   0.48020   0.00000  Uiso   1.00
N226   N     0.66846   0.76247   0.72349   0.00000  Uiso   1.00
N227   N     0.39193   0.53305   0.28889   0.00000  Uiso   1.00
N228   N     0.34508   0.00851   0.34942   0.00000  Uiso   1.00
N229   N     0.72901   0.80416   0.59271   0.00000  Uiso   1.00
N230   N     0.45248   0.57474   0.15811   0.00000  Uiso   1.00
C231   C     0.55706   0.24955   0.50901   0.00000  Uiso   1.00
C232   C     0.58592   0.17973   0.46910   0.00000  Uiso   1.00
C233   C     0.64392   0.14425   0.50840   0.00000  Uiso   1.00
C234   C     0.66189   0.08112   0.46116   0.00000  Uiso   1.00
C235   C     0.71257   0.97675   0.41193   0.00000  Uiso   1.00
C236   C     0.48011   0.23604   0.53616   0.00000  Uiso   1.00
C237   C     0.44914   0.24791   0.63184   0.00000  Uiso   1.00
C238   C     0.37804   0.23219   0.64104   0.00000  Uiso   1.00
C239   C     0.26443   0.21529   0.69590   0.00000  Uiso   1.00
C240   C     0.55633   0.29926   0.41638   0.00000  Uiso   1.00
C241   C     0.58943   0.36430   0.41135   0.00000  Uiso   1.00
C242   C     0.58249   0.40182   0.31971   0.00000  Uiso   1.00
C243   C     0.58723   0.48308   0.18860   0.00000  Uiso   1.00
C244   C     0.48585   0.20052   0.35521   0.00000  Uiso   1.00
C245   C     0.54724   0.15311   0.38556   0.00000  Uiso   1.00
C246   C     0.56514   0.09001   0.33824   0.00000  Uiso   1.00
C247   C     0.62315   0.05445   0.37747   0.00000  Uiso   1.00
C248   C     0.44143   0.20941   0.45263   0.00000  Uiso   1.00
C249   C     0.37036   0.19367   0.46168   0.00000  Uiso   1.00
C250   C     0.33929   0.20551   0.55735   0.00000  Uiso   1.00
C251   C     0.51766   0.27264   0.33284   0.00000  Uiso   1.00
C252   C     0.51066   0.31006   0.24119   0.00000  Uiso   1.00
C253   C     0.54374   0.37514   0.23603   0.00000  Uiso   1.00
H254   H     0.58716   0.27028   0.57405   0.00000  Uiso   1.00
H255   H     0.67383   0.16488   0.57306   0.00000  Uiso   1.00
H256   H     0.47908   0.26853   0.69647   0.00000  Uiso   1.00
H257   H     0.61936   0.38489   0.47601   0.00000  Uiso   1.00
H258   H     0.75284   0.03626   0.53515   0.00000  Uiso   1.00
H259   H     0.34220   0.25484   0.79536   0.00000  Uiso   1.00
H260   H     0.63800   0.50022   0.33049   0.00000  Uiso   1.00
H261   H     0.45574   0.17979   0.29017   0.00000  Uiso   1.00
H262   H     0.53519   0.06942   0.27360   0.00000  Uiso   1.00
H263   H     0.34045   0.17307   0.39702   0.00000  Uiso   1.00
H264   H     0.48072   0.28944   0.17656   0.00000  Uiso   1.00
H265   H     0.64032   0.95878   0.29210   0.00000  Uiso   1.00
H266   H     0.22968   0.17737   0.55231   0.00000  Uiso   1.00
H267   H     0.52548   0.42274   0.08744   0.00000  Uiso   1.00
O268   O     0.75121   0.92654   0.40787   0.00000  Uiso   1.00
O269   O     0.21246   0.21332   0.74925   0.00000  Uiso   1.00
O270   O     0.60054   0.53525   0.13935   0.00000  Uiso   1.00
N271   N     0.71546   0.03318   0.48020   0.00000  Uiso   1.00
N272   N     0.33154   0.23753   0.72349   0.00000  Uiso   1.00
N273   N     0.60807   0.46695   0.28889   0.00000  Uiso   1.00
N274   N     0.65492   0.99149   0.34942   0.00000  Uiso   1.00
N275   N     0.27099   0.19584   0.59271   0.00000  Uiso   1.00
N276   N     0.54752   0.42526   0.15811   0.00000  Uiso   1.00
C277   C     0.75045   0.55706   0.00901   0.00000  Uiso   1.00
C278   C     0.82027   0.58592   0.96910   0.00000  Uiso   1.00
C279   C     0.85575   0.64392   0.00840   0.00000  Uiso   1.00
C280   C     0.91888   0.66189   0.96116   0.00000  Uiso   1.00
C281   C     0.02325   0.71257   0.91193   0.00000  Uiso   1.00
C282   C     0.76396   0.48011   0.03616   0.00000  Uiso   1.00
C283   C     0.75209   0.44914   0.13184   0.00000  Uiso   1.00
C284   C     0.76781   0.37804   0.14104   0.00000  Uiso   1.00
C285   C     0.78471   0.26443   0.19590   0.00000  Uiso   1.00
C286   C     0.70074   0.55633   0.91638   0.00000  Uiso   1.00
C287   C     0.63570   0.58943   0.91135   0.00000  Uiso   1.00
C288   C     0.59818   0.58249   0.81971   0.00000  Uiso   1.00
C289   C     0.51692   0.58723   0.68860   0.00000  Uiso   1.00
C290   C     0.79948   0.48585   0.85521   0.00000  Uiso   1.00
C291   C     0.84689   0.54724   0.88556   0.00000  Uiso   1.00
C292   C     0.90999   0.56514   0.83824   0.00000  Uiso   1.00
C293   C     0.94555   0.62315   0.87747   0.00000  Uiso   1.00
C294   C     0.79059   0.44143   0.95263   0.00000  Uiso   1.00
C295   C     0.80633   0.37036   0.96168   0.00000  Uiso   1.00
C296   C     0.79449   0.33929   0.05735   0.00000  Uiso   1.00
C297   C     0.72736   0.51766   0.83284   0.00000  Uiso   1.00
C298   C     0.68994   0.51066   0.74119   0.00000  Uiso   1.00
C299   C     0.62486   0.54374   0.73603   0.00000  Uiso   1.00
H300   H     0.72972   0.58716   0.07405   0.00000  Uiso   1.00
H301   H     0.83512   0.67383   0.07306   0.00000  Uiso   1.00
H302   H     0.73147   0.47908   0.19647   0.00000  Uiso   1.00
H303   H     0.61511   0.61936   0.97601   0.00000  Uiso   1.00
H304   H     0.96374   0.75284   0.03515   0.00000  Uiso   1.00
H305   H     0.74516   0.34220   0.29536   0.00000  Uiso   1.00
H306   H     0.49978   0.63800   0.83049   0.00000  Uiso   1.00
H307   H     0.82021   0.45574   0.79017   0.00000  Uiso   1.00
H308   H     0.93058   0.53519   0.77360   0.00000  Uiso   1.00
H309   H     0.82693   0.34045   0.89702   0.00000  Uiso   1.00
H310   H     0.71056   0.48072   0.67656   0.00000  Uiso   1.00
H311   H     0.04122   0.64032   0.79210   0.00000  Uiso   1.00
H312   H     0.82263   0.22968   0.05231   0.00000  Uiso   1.00
H313   H     0.57726   0.52548   0.58744   0.00000  Uiso   1.00
O314   O     0.07346   0.75121   0.90787   0.00000  Uiso   1.00
O315   O     0.78668   0.21246   0.24925   0.00000  Uiso   1.00
O316   O     0.46475   0.60054   0.63935   0.00000  Uiso   1.00
N317   N     0.96682   0.71546   0.98020   0.00000  Uiso   1.00
N318   N     0.76247   0.33154   0.22349   0.00000  Uiso   1.00
N319   N     0.53305   0.60807   0.78889   0.00000  Uiso   1.00
N320   N     0.00851   0.65492   0.84942   0.00000  Uiso   1.00
N321   N     0.80416   0.27099   0.09271   0.00000  Uiso   1.00
N322   N     0.57474   0.54752   0.65811   0.00000  Uiso   1.00
C323   C     0.24955   0.44294   0.00901   0.00000  Uiso   1.00
C324   C     0.17973   0.41408   0.96910   0.00000  Uiso   1.00
C325   C     0.14425   0.35608   0.00840   0.00000  Uiso   1.00
C326   C     0.08112   0.33811   0.96116   0.00000  Uiso   1.00
C327   C     0.97675   0.28743   0.91193   0.00000  Uiso   1.00
C328   C     0.23604   0.51989   0.03616   0.00000  Uiso   1.00
C329   C     0.24791   0.55086   0.13184   0.00000  Uiso   1.00
C330   C     0.23219   0.62196   0.14104   0.00000  Uiso   1.00
C331   C     0.21529   0.73557   0.19590   0.00000  Uiso   1.00
C332   C     0.29926   0.44367   0.91638   0.00000  Uiso   1.00
C333   C     0.36430   0.41057   0.91135   0.00000  Uiso   1.00
C334   C     0.40182   0.41751   0.81971   0.00000  Uiso   1.00
C335   C     0.48308   0.41277   0.68860   0.00000  Uiso   1.00
C336   C     0.20052   0.51415   0.85521   0.00000  Uiso   1.00
C337   C     0.15311   0.45276   0.88556   0.00000  Uiso   1.00
C338   C     0.09001   0.43486   0.83824   0.00000  Uiso   1.00
C339   C     0.05445   0.37685   0.87747   0.00000  Uiso   1.00
C340   C     0.20941   0.55857   0.95263   0.00000  Uiso   1.00
C341   C     0.19367   0.62964   0.96168   0.00000  Uiso   1.00
C342   C     0.20551   0.66071   0.05735   0.00000  Uiso   1.00
C343   C     0.27264   0.48234   0.83284   0.00000  Uiso   1.00
C344   C     0.31006   0.48934   0.74119   0.00000  Uiso   1.00
C345   C     0.37514   0.45626   0.73603   0.00000  Uiso   1.00
H346   H     0.27028   0.41284   0.07405   0.00000  Uiso   1.00
H347   H     0.16488   0.32617   0.07306   0.00000  Uiso   1.00
H348   H     0.26853   0.52092   0.19647   0.00000  Uiso   1.00
H349   H     0.38489   0.38064   0.97601   0.00000  Uiso   1.00
H350   H     0.03626   0.24716   0.03515   0.00000  Uiso   1.00
H351   H     0.25484   0.65780   0.29536   0.00000  Uiso   1.00
H352   H     0.50022   0.36200   0.83049   0.00000  Uiso   1.00
H353   H     0.17979   0.54426   0.79017   0.00000  Uiso   1.00
H354   H     0.06942   0.46481   0.77360   0.00000  Uiso   1.00
H355   H     0.17307   0.65955   0.89702   0.00000  Uiso   1.00
H356   H     0.28944   0.51928   0.67656   0.00000  Uiso   1.00
H357   H     0.95878   0.35968   0.79210   0.00000  Uiso   1.00
H358   H     0.17737   0.77032   0.05231   0.00000  Uiso   1.00
H359   H     0.42274   0.47452   0.58744   0.00000  Uiso   1.00
O360   O     0.92654   0.24879   0.90787   0.00000  Uiso   1.00
O361   O     0.21332   0.78754   0.24925   0.00000  Uiso   1.00
O362   O     0.53525   0.39946   0.63935   0.00000  Uiso   1.00
N363   N     0.03318   0.28454   0.98020   0.00000  Uiso   1.00
N364   N     0.23753   0.66846   0.22349   0.00000  Uiso   1.00
N365   N     0.46695   0.39193   0.78889   0.00000  Uiso   1.00
N366   N     0.99149   0.34508   0.84942   0.00000  Uiso   1.00
N367   N     0.19584   0.72901   0.09271   0.00000  Uiso   1.00
N368   N     0.42526   0.45248   0.65811   0.00000  Uiso   1.00
