data_job_00805
_audit_creation_date              2018-12-19
_audit_creation_method            'Materials Studio'
_symmetry_space_group_name_H-M    'P1'
_symmetry_Int_Tables_number       1
_symmetry_cell_setting            triclinic
loop_
_symmetry_equiv_pos_as_xyz
  x,y,z
_cell_length_a                    7.7589
_cell_length_b                    11.1879
_cell_length_c                    14.8734
_cell_angle_alpha                 75.7505
_cell_angle_beta                  83.7581
_cell_angle_gamma                 76.0790
loop_
_atom_site_label
_atom_site_type_symbol
_atom_site_fract_x
_atom_site_fract_y
_atom_site_fract_z
_atom_site_U_iso_or_equiv
_atom_site_adp_type
_atom_site_occupancy
C1     C     0.58064   0.79921   0.32994   0.00000  Uiso   1.00
C2     C     0.53307   0.94338   0.30850   0.00000  Uiso   1.00
C3     C     0.62939   0.01969   0.33230   0.00000  Uiso   1.00
C4     C     0.56378   0.14948   0.30643   0.00000  Uiso   1.00
C5     C     0.51366   0.36550   0.28048   0.00000  Uiso   1.00
C6     C     0.41920   0.75640   0.38403   0.00000  Uiso   1.00
C7     C     0.41980   0.67547   0.47133   0.00000  Uiso   1.00
C8     C     0.25832   0.64785   0.50903   0.00000  Uiso   1.00
C9     C     0.03144   0.57350   0.60031   0.00000  Uiso   1.00
C10    C     0.59239   0.76283   0.23680   0.00000  Uiso   1.00
C11    C     0.73858   0.68729   0.20031   0.00000  Uiso   1.00
C12    C     0.72290   0.66506   0.11406   0.00000  Uiso   1.00
C13    C     0.76492   0.60070   0.97674   0.00000  Uiso   1.00
C14    C     0.29283   0.89402   0.24166   0.00000  Uiso   1.00
C15    C     0.37674   0.99487   0.26056   0.00000  Uiso   1.00
C16    C     0.31097   0.12458   0.23464   0.00000  Uiso   1.00
C17    C     0.40718   0.20107   0.25839   0.00000  Uiso   1.00
C18    C     0.26288   0.80789   0.33609   0.00000  Uiso   1.00
C19    C     0.10137   0.78037   0.37366   0.00000  Uiso   1.00
C20    C     0.10171   0.69943   0.46100   0.00000  Uiso   1.00
C21    C     0.43606   0.81433   0.18885   0.00000  Uiso   1.00
C22    C     0.42015   0.79220   0.10265   0.00000  Uiso   1.00
C23    C     0.56629   0.71665   0.06603   0.00000  Uiso   1.00
H24    H     0.70233   0.75912   0.36727   0.00000  Uiso   1.00
H25    H     0.75036   0.97980   0.36941   0.00000  Uiso   1.00
H26    H     0.54079   0.63563   0.50841   0.00000  Uiso   1.00
H27    H     0.85953   0.64746   0.23743   0.00000  Uiso   1.00
H28    H     0.73462   0.24717   0.35067   0.00000  Uiso   1.00
H29    H     0.29276   0.52144   0.64374   0.00000  Uiso   1.00
H30    H     0.96488   0.54638   0.07234   0.00000  Uiso   1.00
H31    H     0.17111   0.93411   0.20434   0.00000  Uiso   1.00
H32    H     0.18999   0.16440   0.19753   0.00000  Uiso   1.00
H33    H     0.98043   0.82023   0.33654   0.00000  Uiso   1.00
H34    H     0.29916   0.83206   0.06556   0.00000  Uiso   1.00
H35    H     0.27980   0.39700   0.21118   0.00000  Uiso   1.00
H36    H     0.83794   0.67126   0.50425   0.00000  Uiso   1.00
H37    H     0.51006   0.69621   0.93284   0.00000  Uiso   1.00
O38    O     0.52918   0.47042   0.27942   0.00000  Uiso   1.00
O39    O     0.94949   0.51827   0.66391   0.00000  Uiso   1.00
O40    O     0.83129   0.55100   0.91424   0.00000  Uiso   1.00
N41    N     0.62501   0.25083   0.31876   0.00000  Uiso   1.00
N42    N     0.21189   0.57233   0.59277   0.00000  Uiso   1.00
N43    N     0.84025   0.59562   0.05857   0.00000  Uiso   1.00
N44    N     0.38028   0.33146   0.24370   0.00000  Uiso   1.00
N45    N     0.96716   0.65295   0.51771   0.00000  Uiso   1.00
N46    N     0.59551   0.67624   0.98350   0.00000  Uiso   1.00
C47    C     0.41936   0.20079   0.67006   0.00000  Uiso   1.00
C48    C     0.46693   0.05662   0.69150   0.00000  Uiso   1.00
C49    C     0.37061   0.98031   0.66770   0.00000  Uiso   1.00
C50    C     0.43622   0.85052   0.69357   0.00000  Uiso   1.00
C51    C     0.48634   0.63450   0.71952   0.00000  Uiso   1.00
C52    C     0.58080   0.24360   0.61597   0.00000  Uiso   1.00
C53    C     0.58020   0.32453   0.52867   0.00000  Uiso   1.00
C54    C     0.74168   0.35215   0.49097   0.00000  Uiso   1.00
C55    C     0.96856   0.42650   0.39969   0.00000  Uiso   1.00
C56    C     0.40761   0.23717   0.76320   0.00000  Uiso   1.00
C57    C     0.26142   0.31271   0.79969   0.00000  Uiso   1.00
C58    C     0.27710   0.33494   0.88594   0.00000  Uiso   1.00
C59    C     0.23508   0.39930   0.02326   0.00000  Uiso   1.00
C60    C     0.70717   0.10598   0.75834   0.00000  Uiso   1.00
C61    C     0.62326   0.00513   0.73944   0.00000  Uiso   1.00
C62    C     0.68903   0.87542   0.76536   0.00000  Uiso   1.00
C63    C     0.59282   0.79893   0.74161   0.00000  Uiso   1.00
C64    C     0.73712   0.19211   0.66391   0.00000  Uiso   1.00
C65    C     0.89863   0.21963   0.62634   0.00000  Uiso   1.00
C66    C     0.89829   0.30057   0.53900   0.00000  Uiso   1.00
C67    C     0.56394   0.18567   0.81115   0.00000  Uiso   1.00
C68    C     0.57985   0.20780   0.89735   0.00000  Uiso   1.00
C69    C     0.43371   0.28335   0.93397   0.00000  Uiso   1.00
H70    H     0.29767   0.24088   0.63273   0.00000  Uiso   1.00
H71    H     0.24964   0.02020   0.63059   0.00000  Uiso   1.00
H72    H     0.45921   0.36437   0.49159   0.00000  Uiso   1.00
H73    H     0.14047   0.35254   0.76257   0.00000  Uiso   1.00
H74    H     0.26538   0.75283   0.64933   0.00000  Uiso   1.00
H75    H     0.70724   0.47856   0.35626   0.00000  Uiso   1.00
H76    H     0.03512   0.45362   0.92766   0.00000  Uiso   1.00
H77    H     0.82889   0.06589   0.79566   0.00000  Uiso   1.00
H78    H     0.81001   0.83560   0.80247   0.00000  Uiso   1.00
H79    H     0.01957   0.17977   0.66346   0.00000  Uiso   1.00
H80    H     0.70084   0.16794   0.93444   0.00000  Uiso   1.00
H81    H     0.72020   0.60300   0.78882   0.00000  Uiso   1.00
H82    H     0.16206   0.32874   0.49575   0.00000  Uiso   1.00
H83    H     0.48994   0.30379   0.06716   0.00000  Uiso   1.00
O84    O     0.47082   0.52958   0.72058   0.00000  Uiso   1.00
O85    O     0.05051   0.48173   0.33609   0.00000  Uiso   1.00
O86    O     0.16871   0.44900   0.08576   0.00000  Uiso   1.00
N87    N     0.37499   0.74917   0.68124   0.00000  Uiso   1.00
N88    N     0.78811   0.42767   0.40723   0.00000  Uiso   1.00
N89    N     0.15975   0.40438   0.94143   0.00000  Uiso   1.00
N90    N     0.61972   0.66854   0.75630   0.00000  Uiso   1.00
N91    N     0.03284   0.34705   0.48229   0.00000  Uiso   1.00
N92    N     0.40449   0.32376   0.01650   0.00000  Uiso   1.00
