data_job_03409
_audit_creation_date              2018-12-19
_audit_creation_method            'Materials Studio'
_symmetry_space_group_name_H-M    'P1'
_symmetry_Int_Tables_number       1
_symmetry_cell_setting            triclinic
loop_
_symmetry_equiv_pos_as_xyz
  x,y,z
_cell_length_a                    21.7103
_cell_length_b                    9.4118
_cell_length_c                    35.5695
_cell_angle_alpha                 90.0000
_cell_angle_beta                  90.0000
_cell_angle_gamma                 90.0000
loop_
_atom_site_label
_atom_site_type_symbol
_atom_site_fract_x
_atom_site_fract_y
_atom_site_fract_z
_atom_site_U_iso_or_equiv
_atom_site_adp_type
_atom_site_occupancy
C1     C     0.53772   0.66144   0.16525   0.00000  Uiso   1.00
C2     C     0.59956   0.67343   0.18533   0.00000  Uiso   1.00
C3     C     0.61307   0.76569   0.21462   0.00000  Uiso   1.00
C4     C     0.67235   0.76040   0.22919   0.00000  Uiso   1.00
C5     C     0.76167   0.79341   0.26253   0.00000  Uiso   1.00
C6     C     0.55106   0.68565   0.12364   0.00000  Uiso   1.00
C7     C     0.52378   0.78818   0.10108   0.00000  Uiso   1.00
C8     C     0.54223   0.79316   0.06373   0.00000  Uiso   1.00
C9     C     0.55622   0.84506   0.00129   0.00000  Uiso   1.00
C10    C     0.51823   0.50636   0.16880   0.00000  Uiso   1.00
C11    C     0.46333   0.45814   0.18419   0.00000  Uiso   1.00
C12    C     0.45413   0.31217   0.18485   0.00000  Uiso   1.00
C13    C     0.41714   0.08571   0.19253   0.00000  Uiso   1.00
C14    C     0.61898   0.48796   0.13903   0.00000  Uiso   1.00
C15    C     0.64370   0.57921   0.17109   0.00000  Uiso   1.00
C16    C     0.70298   0.57377   0.18562   0.00000  Uiso   1.00
C17    C     0.71657   0.66601   0.21493   0.00000  Uiso   1.00
C18    C     0.59520   0.59143   0.10941   0.00000  Uiso   1.00
C19    C     0.61369   0.59625   0.07208   0.00000  Uiso   1.00
C20    C     0.58645   0.69876   0.04946   0.00000  Uiso   1.00
C21    C     0.56237   0.41214   0.15456   0.00000  Uiso   1.00
C22    C     0.55325   0.26621   0.15519   0.00000  Uiso   1.00
C23    C     0.49835   0.21778   0.17059   0.00000  Uiso   1.00
H24    H     0.50336   0.73480   0.17633   0.00000  Uiso   1.00
H25    H     0.57890   0.83861   0.22563   0.00000  Uiso   1.00
H26    H     0.48962   0.86107   0.11211   0.00000  Uiso   1.00
H27    H     0.42919   0.53109   0.19521   0.00000  Uiso   1.00
H28    H     0.68212   0.91218   0.27400   0.00000  Uiso   1.00
H29    H     0.49386   0.95952   0.03463   0.00000  Uiso   1.00
H30    H     0.36643   0.26369   0.20986   0.00000  Uiso   1.00
H31    H     0.65335   0.41460   0.12795   0.00000  Uiso   1.00
H32    H     0.73712   0.50084   0.17459   0.00000  Uiso   1.00
H33    H     0.64784   0.52331   0.06107   0.00000  Uiso   1.00
H34    H     0.58741   0.19333   0.14417   0.00000  Uiso   1.00
H35    H     0.81055   0.63805   0.23258   0.00000  Uiso   1.00
H36    H     0.62228   0.68538   0.99320   0.00000  Uiso   1.00
H37    H     0.49485   0.98955   0.16844   0.00000  Uiso   1.00
O38    O     0.79874   0.83765   0.28484   0.00000  Uiso   1.00
O39    O     0.55174   0.89974   0.97079   0.00000  Uiso   1.00
O40    O     0.38455   0.98683   0.20070   0.00000  Uiso   1.00
N41    N     0.70085   0.83581   0.25786   0.00000  Uiso   1.00
N42    N     0.52484   0.88008   0.03406   0.00000  Uiso   1.00
N43    N     0.40569   0.22954   0.19788   0.00000  Uiso   1.00
N44    N     0.76995   0.68830   0.23557   0.00000  Uiso   1.00
N45    N     0.59394   0.73257   0.01177   0.00000  Uiso   1.00
N46    N     0.47479   0.08203   0.17559   0.00000  Uiso   1.00
C47    C     0.96228   0.83856   0.66525   0.00000  Uiso   1.00
C48    C     0.90044   0.82657   0.68533   0.00000  Uiso   1.00
C49    C     0.88693   0.73431   0.71462   0.00000  Uiso   1.00
C50    C     0.82765   0.73960   0.72919   0.00000  Uiso   1.00
C51    C     0.73833   0.70659   0.76253   0.00000  Uiso   1.00
C52    C     0.94894   0.81435   0.62364   0.00000  Uiso   1.00
C53    C     0.97622   0.71182   0.60108   0.00000  Uiso   1.00
C54    C     0.95777   0.70684   0.56373   0.00000  Uiso   1.00
C55    C     0.94378   0.65494   0.50129   0.00000  Uiso   1.00
C56    C     0.98177   0.99364   0.66880   0.00000  Uiso   1.00
C57    C     0.03667   0.04186   0.68419   0.00000  Uiso   1.00
C58    C     0.04587   0.18783   0.68485   0.00000  Uiso   1.00
C59    C     0.08286   0.41429   0.69253   0.00000  Uiso   1.00
C60    C     0.88102   0.01204   0.63903   0.00000  Uiso   1.00
C61    C     0.85630   0.92079   0.67109   0.00000  Uiso   1.00
C62    C     0.79702   0.92623   0.68562   0.00000  Uiso   1.00
C63    C     0.78343   0.83399   0.71493   0.00000  Uiso   1.00
C64    C     0.90480   0.90857   0.60941   0.00000  Uiso   1.00
C65    C     0.88631   0.90375   0.57208   0.00000  Uiso   1.00
C66    C     0.91355   0.80124   0.54946   0.00000  Uiso   1.00
C67    C     0.93763   0.08786   0.65456   0.00000  Uiso   1.00
C68    C     0.94675   0.23379   0.65519   0.00000  Uiso   1.00
C69    C     0.00165   0.28222   0.67059   0.00000  Uiso   1.00
H70    H     0.99664   0.76520   0.67633   0.00000  Uiso   1.00
H71    H     0.92110   0.66139   0.72563   0.00000  Uiso   1.00
H72    H     0.01038   0.63893   0.61211   0.00000  Uiso   1.00
H73    H     0.07081   0.96891   0.69521   0.00000  Uiso   1.00
H74    H     0.81788   0.58782   0.77400   0.00000  Uiso   1.00
H75    H     0.00614   0.54048   0.53463   0.00000  Uiso   1.00
H76    H     0.13357   0.23631   0.70986   0.00000  Uiso   1.00
H77    H     0.84665   0.08540   0.62795   0.00000  Uiso   1.00
H78    H     0.76288   0.99916   0.67459   0.00000  Uiso   1.00
H79    H     0.85216   0.97669   0.56107   0.00000  Uiso   1.00
H80    H     0.91259   0.30667   0.64417   0.00000  Uiso   1.00
H81    H     0.68945   0.86195   0.73258   0.00000  Uiso   1.00
H82    H     0.87772   0.81462   0.49320   0.00000  Uiso   1.00
H83    H     0.00515   0.51045   0.66844   0.00000  Uiso   1.00
O84    O     0.70126   0.66235   0.78484   0.00000  Uiso   1.00
O85    O     0.94826   0.60026   0.47079   0.00000  Uiso   1.00
O86    O     0.11545   0.51317   0.70070   0.00000  Uiso   1.00
N87    N     0.79915   0.66419   0.75786   0.00000  Uiso   1.00
N88    N     0.97516   0.61992   0.53406   0.00000  Uiso   1.00
N89    N     0.09431   0.27046   0.69788   0.00000  Uiso   1.00
N90    N     0.73005   0.81170   0.73557   0.00000  Uiso   1.00
N91    N     0.90606   0.76743   0.51177   0.00000  Uiso   1.00
N92    N     0.02521   0.41797   0.67559   0.00000  Uiso   1.00
C93    C     0.46228   0.66144   0.33475   0.00000  Uiso   1.00
C94    C     0.40044   0.67343   0.31467   0.00000  Uiso   1.00
C95    C     0.38693   0.76569   0.28538   0.00000  Uiso   1.00
C96    C     0.32765   0.76040   0.27081   0.00000  Uiso   1.00
C97    C     0.23833   0.79341   0.23747   0.00000  Uiso   1.00
C98    C     0.44894   0.68565   0.37636   0.00000  Uiso   1.00
C99    C     0.47622   0.78818   0.39892   0.00000  Uiso   1.00
C100   C     0.45777   0.79316   0.43627   0.00000  Uiso   1.00
C101   C     0.44378   0.84506   0.49871   0.00000  Uiso   1.00
C102   C     0.48177   0.50636   0.33120   0.00000  Uiso   1.00
C103   C     0.53667   0.45814   0.31581   0.00000  Uiso   1.00
C104   C     0.54587   0.31217   0.31515   0.00000  Uiso   1.00
C105   C     0.58286   0.08571   0.30747   0.00000  Uiso   1.00
C106   C     0.38102   0.48796   0.36097   0.00000  Uiso   1.00
C107   C     0.35630   0.57921   0.32891   0.00000  Uiso   1.00
C108   C     0.29702   0.57377   0.31438   0.00000  Uiso   1.00
C109   C     0.28343   0.66601   0.28507   0.00000  Uiso   1.00
C110   C     0.40480   0.59143   0.39059   0.00000  Uiso   1.00
C111   C     0.38631   0.59625   0.42792   0.00000  Uiso   1.00
C112   C     0.41355   0.69876   0.45054   0.00000  Uiso   1.00
C113   C     0.43763   0.41214   0.34544   0.00000  Uiso   1.00
C114   C     0.44675   0.26621   0.34481   0.00000  Uiso   1.00
C115   C     0.50165   0.21778   0.32941   0.00000  Uiso   1.00
H116   H     0.49664   0.73480   0.32367   0.00000  Uiso   1.00
H117   H     0.42110   0.83861   0.27437   0.00000  Uiso   1.00
H118   H     0.51038   0.86107   0.38789   0.00000  Uiso   1.00
H119   H     0.57081   0.53109   0.30479   0.00000  Uiso   1.00
H120   H     0.31788   0.91218   0.22600   0.00000  Uiso   1.00
H121   H     0.50614   0.95952   0.46537   0.00000  Uiso   1.00
H122   H     0.63357   0.26369   0.29014   0.00000  Uiso   1.00
H123   H     0.34665   0.41460   0.37205   0.00000  Uiso   1.00
H124   H     0.26288   0.50084   0.32541   0.00000  Uiso   1.00
H125   H     0.35216   0.52331   0.43893   0.00000  Uiso   1.00
H126   H     0.41259   0.19333   0.35583   0.00000  Uiso   1.00
H127   H     0.18945   0.63805   0.26742   0.00000  Uiso   1.00
H128   H     0.37772   0.68538   0.50680   0.00000  Uiso   1.00
H129   H     0.50515   0.98955   0.33156   0.00000  Uiso   1.00
O130   O     0.20126   0.83765   0.21516   0.00000  Uiso   1.00
O131   O     0.44826   0.89974   0.52921   0.00000  Uiso   1.00
O132   O     0.61545   0.98683   0.29930   0.00000  Uiso   1.00
N133   N     0.29915   0.83581   0.24214   0.00000  Uiso   1.00
N134   N     0.47516   0.88008   0.46594   0.00000  Uiso   1.00
N135   N     0.59431   0.22954   0.30212   0.00000  Uiso   1.00
N136   N     0.23005   0.68830   0.26443   0.00000  Uiso   1.00
N137   N     0.40606   0.73257   0.48823   0.00000  Uiso   1.00
N138   N     0.52521   0.08203   0.32441   0.00000  Uiso   1.00
C139   C     0.03772   0.83856   0.83475   0.00000  Uiso   1.00
C140   C     0.09956   0.82657   0.81467   0.00000  Uiso   1.00
C141   C     0.11307   0.73431   0.78538   0.00000  Uiso   1.00
C142   C     0.17235   0.73960   0.77081   0.00000  Uiso   1.00
C143   C     0.26167   0.70659   0.73747   0.00000  Uiso   1.00
C144   C     0.05106   0.81435   0.87636   0.00000  Uiso   1.00
C145   C     0.02378   0.71182   0.89892   0.00000  Uiso   1.00
C146   C     0.04223   0.70684   0.93627   0.00000  Uiso   1.00
C147   C     0.05622   0.65494   0.99871   0.00000  Uiso   1.00
C148   C     0.01823   0.99364   0.83120   0.00000  Uiso   1.00
C149   C     0.96333   0.04186   0.81581   0.00000  Uiso   1.00
C150   C     0.95413   0.18783   0.81515   0.00000  Uiso   1.00
C151   C     0.91714   0.41429   0.80747   0.00000  Uiso   1.00
C152   C     0.11898   0.01204   0.86097   0.00000  Uiso   1.00
C153   C     0.14370   0.92079   0.82891   0.00000  Uiso   1.00
C154   C     0.20298   0.92623   0.81438   0.00000  Uiso   1.00
C155   C     0.21657   0.83399   0.78507   0.00000  Uiso   1.00
C156   C     0.09520   0.90857   0.89059   0.00000  Uiso   1.00
C157   C     0.11369   0.90375   0.92792   0.00000  Uiso   1.00
C158   C     0.08645   0.80124   0.95054   0.00000  Uiso   1.00
C159   C     0.06237   0.08786   0.84544   0.00000  Uiso   1.00
C160   C     0.05325   0.23379   0.84481   0.00000  Uiso   1.00
C161   C     0.99835   0.28222   0.82941   0.00000  Uiso   1.00
H162   H     0.00336   0.76520   0.82367   0.00000  Uiso   1.00
H163   H     0.07890   0.66139   0.77437   0.00000  Uiso   1.00
H164   H     0.98962   0.63893   0.88789   0.00000  Uiso   1.00
H165   H     0.92919   0.96891   0.80479   0.00000  Uiso   1.00
H166   H     0.18212   0.58782   0.72600   0.00000  Uiso   1.00
H167   H     0.99386   0.54048   0.96537   0.00000  Uiso   1.00
H168   H     0.86643   0.23631   0.79014   0.00000  Uiso   1.00
H169   H     0.15335   0.08540   0.87205   0.00000  Uiso   1.00
H170   H     0.23712   0.99916   0.82541   0.00000  Uiso   1.00
H171   H     0.14784   0.97669   0.93893   0.00000  Uiso   1.00
H172   H     0.08741   0.30667   0.85583   0.00000  Uiso   1.00
H173   H     0.31055   0.86195   0.76742   0.00000  Uiso   1.00
H174   H     0.12228   0.81462   0.00680   0.00000  Uiso   1.00
H175   H     0.99485   0.51045   0.83156   0.00000  Uiso   1.00
O176   O     0.29874   0.66235   0.71516   0.00000  Uiso   1.00
O177   O     0.05174   0.60026   0.02921   0.00000  Uiso   1.00
O178   O     0.88455   0.51317   0.79930   0.00000  Uiso   1.00
N179   N     0.20085   0.66419   0.74214   0.00000  Uiso   1.00
N180   N     0.02484   0.61992   0.96594   0.00000  Uiso   1.00
N181   N     0.90569   0.27046   0.80212   0.00000  Uiso   1.00
N182   N     0.26995   0.81170   0.76443   0.00000  Uiso   1.00
N183   N     0.09394   0.76743   0.98823   0.00000  Uiso   1.00
N184   N     0.97479   0.41797   0.82441   0.00000  Uiso   1.00
C185   C     0.46228   0.33856   0.83475   0.00000  Uiso   1.00
C186   C     0.40044   0.32657   0.81467   0.00000  Uiso   1.00
C187   C     0.38693   0.23431   0.78538   0.00000  Uiso   1.00
C188   C     0.32765   0.23960   0.77081   0.00000  Uiso   1.00
C189   C     0.23833   0.20659   0.73747   0.00000  Uiso   1.00
C190   C     0.44894   0.31435   0.87636   0.00000  Uiso   1.00
C191   C     0.47622   0.21182   0.89892   0.00000  Uiso   1.00
C192   C     0.45777   0.20684   0.93627   0.00000  Uiso   1.00
C193   C     0.44378   0.15494   0.99871   0.00000  Uiso   1.00
C194   C     0.48177   0.49364   0.83120   0.00000  Uiso   1.00
C195   C     0.53667   0.54186   0.81581   0.00000  Uiso   1.00
C196   C     0.54587   0.68783   0.81515   0.00000  Uiso   1.00
C197   C     0.58286   0.91429   0.80747   0.00000  Uiso   1.00
C198   C     0.38102   0.51204   0.86097   0.00000  Uiso   1.00
C199   C     0.35630   0.42079   0.82891   0.00000  Uiso   1.00
C200   C     0.29702   0.42623   0.81438   0.00000  Uiso   1.00
C201   C     0.28343   0.33399   0.78507   0.00000  Uiso   1.00
C202   C     0.40480   0.40857   0.89059   0.00000  Uiso   1.00
C203   C     0.38631   0.40375   0.92792   0.00000  Uiso   1.00
C204   C     0.41355   0.30124   0.95054   0.00000  Uiso   1.00
C205   C     0.43763   0.58786   0.84544   0.00000  Uiso   1.00
C206   C     0.44675   0.73379   0.84481   0.00000  Uiso   1.00
C207   C     0.50165   0.78222   0.82941   0.00000  Uiso   1.00
H208   H     0.49664   0.26520   0.82367   0.00000  Uiso   1.00
H209   H     0.42110   0.16139   0.77437   0.00000  Uiso   1.00
H210   H     0.51038   0.13893   0.88789   0.00000  Uiso   1.00
H211   H     0.57081   0.46891   0.80479   0.00000  Uiso   1.00
H212   H     0.31788   0.08782   0.72600   0.00000  Uiso   1.00
H213   H     0.50614   0.04048   0.96537   0.00000  Uiso   1.00
H214   H     0.63357   0.73631   0.79014   0.00000  Uiso   1.00
H215   H     0.34665   0.58540   0.87205   0.00000  Uiso   1.00
H216   H     0.26288   0.49916   0.82541   0.00000  Uiso   1.00
H217   H     0.35216   0.47669   0.93893   0.00000  Uiso   1.00
H218   H     0.41259   0.80667   0.85583   0.00000  Uiso   1.00
H219   H     0.18945   0.36195   0.76742   0.00000  Uiso   1.00
H220   H     0.37772   0.31462   0.00680   0.00000  Uiso   1.00
H221   H     0.50515   0.01045   0.83156   0.00000  Uiso   1.00
O222   O     0.20126   0.16235   0.71516   0.00000  Uiso   1.00
O223   O     0.44826   0.10026   0.02921   0.00000  Uiso   1.00
O224   O     0.61545   0.01317   0.79930   0.00000  Uiso   1.00
N225   N     0.29915   0.16419   0.74214   0.00000  Uiso   1.00
N226   N     0.47516   0.11992   0.96594   0.00000  Uiso   1.00
N227   N     0.59431   0.77046   0.80212   0.00000  Uiso   1.00
N228   N     0.23005   0.31170   0.76443   0.00000  Uiso   1.00
N229   N     0.40606   0.26743   0.98823   0.00000  Uiso   1.00
N230   N     0.52521   0.91797   0.82441   0.00000  Uiso   1.00
C231   C     0.03772   0.16144   0.33475   0.00000  Uiso   1.00
C232   C     0.09956   0.17343   0.31467   0.00000  Uiso   1.00
C233   C     0.11307   0.26569   0.28538   0.00000  Uiso   1.00
C234   C     0.17235   0.26040   0.27081   0.00000  Uiso   1.00
C235   C     0.26167   0.29341   0.23747   0.00000  Uiso   1.00
C236   C     0.05106   0.18565   0.37636   0.00000  Uiso   1.00
C237   C     0.02378   0.28818   0.39892   0.00000  Uiso   1.00
C238   C     0.04223   0.29316   0.43627   0.00000  Uiso   1.00
C239   C     0.05622   0.34506   0.49871   0.00000  Uiso   1.00
C240   C     0.01823   0.00636   0.33120   0.00000  Uiso   1.00
C241   C     0.96333   0.95814   0.31581   0.00000  Uiso   1.00
C242   C     0.95413   0.81217   0.31515   0.00000  Uiso   1.00
C243   C     0.91714   0.58571   0.30747   0.00000  Uiso   1.00
C244   C     0.11898   0.98796   0.36097   0.00000  Uiso   1.00
C245   C     0.14370   0.07921   0.32891   0.00000  Uiso   1.00
C246   C     0.20298   0.07377   0.31438   0.00000  Uiso   1.00
C247   C     0.21657   0.16601   0.28507   0.00000  Uiso   1.00
C248   C     0.09520   0.09143   0.39059   0.00000  Uiso   1.00
C249   C     0.11369   0.09625   0.42792   0.00000  Uiso   1.00
C250   C     0.08645   0.19876   0.45054   0.00000  Uiso   1.00
C251   C     0.06237   0.91214   0.34544   0.00000  Uiso   1.00
C252   C     0.05325   0.76621   0.34481   0.00000  Uiso   1.00
C253   C     0.99835   0.71778   0.32941   0.00000  Uiso   1.00
H254   H     0.00336   0.23480   0.32367   0.00000  Uiso   1.00
H255   H     0.07890   0.33861   0.27437   0.00000  Uiso   1.00
H256   H     0.98962   0.36107   0.38789   0.00000  Uiso   1.00
H257   H     0.92919   0.03109   0.30479   0.00000  Uiso   1.00
H258   H     0.18212   0.41218   0.22600   0.00000  Uiso   1.00
H259   H     0.99386   0.45952   0.46537   0.00000  Uiso   1.00
H260   H     0.86643   0.76369   0.29014   0.00000  Uiso   1.00
H261   H     0.15335   0.91460   0.37205   0.00000  Uiso   1.00
H262   H     0.23712   0.00084   0.32541   0.00000  Uiso   1.00
H263   H     0.14784   0.02331   0.43893   0.00000  Uiso   1.00
H264   H     0.08741   0.69333   0.35583   0.00000  Uiso   1.00
H265   H     0.31055   0.13805   0.26742   0.00000  Uiso   1.00
H266   H     0.12228   0.18538   0.50680   0.00000  Uiso   1.00
H267   H     0.99485   0.48955   0.33156   0.00000  Uiso   1.00
O268   O     0.29874   0.33765   0.21516   0.00000  Uiso   1.00
O269   O     0.05174   0.39974   0.52921   0.00000  Uiso   1.00
O270   O     0.88455   0.48683   0.29930   0.00000  Uiso   1.00
N271   N     0.20085   0.33581   0.24214   0.00000  Uiso   1.00
N272   N     0.02484   0.38008   0.46594   0.00000  Uiso   1.00
N273   N     0.90569   0.72954   0.30212   0.00000  Uiso   1.00
N274   N     0.26995   0.18830   0.26443   0.00000  Uiso   1.00
N275   N     0.09394   0.23257   0.48823   0.00000  Uiso   1.00
N276   N     0.97479   0.58203   0.32441   0.00000  Uiso   1.00
C277   C     0.53772   0.33856   0.66525   0.00000  Uiso   1.00
C278   C     0.59956   0.32657   0.68533   0.00000  Uiso   1.00
C279   C     0.61307   0.23431   0.71462   0.00000  Uiso   1.00
C280   C     0.67235   0.23960   0.72919   0.00000  Uiso   1.00
C281   C     0.76167   0.20659   0.76253   0.00000  Uiso   1.00
C282   C     0.55106   0.31435   0.62364   0.00000  Uiso   1.00
C283   C     0.52378   0.21182   0.60108   0.00000  Uiso   1.00
C284   C     0.54223   0.20684   0.56373   0.00000  Uiso   1.00
C285   C     0.55622   0.15494   0.50129   0.00000  Uiso   1.00
C286   C     0.51823   0.49364   0.66880   0.00000  Uiso   1.00
C287   C     0.46333   0.54186   0.68419   0.00000  Uiso   1.00
C288   C     0.45413   0.68783   0.68485   0.00000  Uiso   1.00
C289   C     0.41714   0.91429   0.69253   0.00000  Uiso   1.00
C290   C     0.61898   0.51204   0.63903   0.00000  Uiso   1.00
C291   C     0.64370   0.42079   0.67109   0.00000  Uiso   1.00
C292   C     0.70298   0.42623   0.68562   0.00000  Uiso   1.00
C293   C     0.71657   0.33399   0.71493   0.00000  Uiso   1.00
C294   C     0.59520   0.40857   0.60941   0.00000  Uiso   1.00
C295   C     0.61369   0.40375   0.57208   0.00000  Uiso   1.00
C296   C     0.58645   0.30124   0.54946   0.00000  Uiso   1.00
C297   C     0.56237   0.58786   0.65456   0.00000  Uiso   1.00
C298   C     0.55325   0.73379   0.65519   0.00000  Uiso   1.00
C299   C     0.49835   0.78222   0.67059   0.00000  Uiso   1.00
H300   H     0.50336   0.26520   0.67633   0.00000  Uiso   1.00
H301   H     0.57890   0.16139   0.72563   0.00000  Uiso   1.00
H302   H     0.48962   0.13893   0.61211   0.00000  Uiso   1.00
H303   H     0.42919   0.46891   0.69521   0.00000  Uiso   1.00
H304   H     0.68212   0.08782   0.77400   0.00000  Uiso   1.00
H305   H     0.49386   0.04048   0.53463   0.00000  Uiso   1.00
H306   H     0.36643   0.73631   0.70986   0.00000  Uiso   1.00
H307   H     0.65335   0.58540   0.62795   0.00000  Uiso   1.00
H308   H     0.73712   0.49916   0.67459   0.00000  Uiso   1.00
H309   H     0.64784   0.47669   0.56107   0.00000  Uiso   1.00
H310   H     0.58741   0.80667   0.64417   0.00000  Uiso   1.00
H311   H     0.81055   0.36195   0.73258   0.00000  Uiso   1.00
H312   H     0.62228   0.31462   0.49320   0.00000  Uiso   1.00
H313   H     0.49485   0.01045   0.66844   0.00000  Uiso   1.00
O314   O     0.79874   0.16235   0.78484   0.00000  Uiso   1.00
O315   O     0.55174   0.10026   0.47079   0.00000  Uiso   1.00
O316   O     0.38455   0.01317   0.70070   0.00000  Uiso   1.00
N317   N     0.70085   0.16419   0.75786   0.00000  Uiso   1.00
N318   N     0.52484   0.11992   0.53406   0.00000  Uiso   1.00
N319   N     0.40569   0.77046   0.69788   0.00000  Uiso   1.00
N320   N     0.76995   0.31170   0.73557   0.00000  Uiso   1.00
N321   N     0.59394   0.26743   0.51177   0.00000  Uiso   1.00
N322   N     0.47479   0.91797   0.67559   0.00000  Uiso   1.00
C323   C     0.96228   0.16144   0.16525   0.00000  Uiso   1.00
C324   C     0.90044   0.17343   0.18533   0.00000  Uiso   1.00
C325   C     0.88693   0.26569   0.21462   0.00000  Uiso   1.00
C326   C     0.82765   0.26040   0.22919   0.00000  Uiso   1.00
C327   C     0.73833   0.29341   0.26253   0.00000  Uiso   1.00
C328   C     0.94894   0.18565   0.12364   0.00000  Uiso   1.00
C329   C     0.97622   0.28818   0.10108   0.00000  Uiso   1.00
C330   C     0.95777   0.29316   0.06373   0.00000  Uiso   1.00
C331   C     0.94378   0.34506   0.00129   0.00000  Uiso   1.00
C332   C     0.98177   0.00636   0.16880   0.00000  Uiso   1.00
C333   C     0.03667   0.95814   0.18419   0.00000  Uiso   1.00
C334   C     0.04587   0.81217   0.18485   0.00000  Uiso   1.00
C335   C     0.08286   0.58571   0.19253   0.00000  Uiso   1.00
C336   C     0.88102   0.98796   0.13903   0.00000  Uiso   1.00
C337   C     0.85630   0.07921   0.17109   0.00000  Uiso   1.00
C338   C     0.79702   0.07377   0.18562   0.00000  Uiso   1.00
C339   C     0.78343   0.16601   0.21493   0.00000  Uiso   1.00
C340   C     0.90480   0.09143   0.10941   0.00000  Uiso   1.00
C341   C     0.88631   0.09625   0.07208   0.00000  Uiso   1.00
C342   C     0.91355   0.19876   0.04946   0.00000  Uiso   1.00
C343   C     0.93763   0.91214   0.15456   0.00000  Uiso   1.00
C344   C     0.94675   0.76621   0.15519   0.00000  Uiso   1.00
C345   C     0.00165   0.71778   0.17059   0.00000  Uiso   1.00
H346   H     0.99664   0.23480   0.17633   0.00000  Uiso   1.00
H347   H     0.92110   0.33861   0.22563   0.00000  Uiso   1.00
H348   H     0.01038   0.36107   0.11211   0.00000  Uiso   1.00
H349   H     0.07081   0.03109   0.19521   0.00000  Uiso   1.00
H350   H     0.81788   0.41218   0.27400   0.00000  Uiso   1.00
H351   H     0.00614   0.45952   0.03463   0.00000  Uiso   1.00
H352   H     0.13357   0.76369   0.20986   0.00000  Uiso   1.00
H353   H     0.84665   0.91460   0.12795   0.00000  Uiso   1.00
H354   H     0.76288   0.00084   0.17459   0.00000  Uiso   1.00
H355   H     0.85216   0.02331   0.06107   0.00000  Uiso   1.00
H356   H     0.91259   0.69333   0.14417   0.00000  Uiso   1.00
H357   H     0.68945   0.13805   0.23258   0.00000  Uiso   1.00
H358   H     0.87772   0.18538   0.99320   0.00000  Uiso   1.00
H359   H     0.00515   0.48955   0.16844   0.00000  Uiso   1.00
O360   O     0.70126   0.33765   0.28484   0.00000  Uiso   1.00
O361   O     0.94826   0.39974   0.97079   0.00000  Uiso   1.00
O362   O     0.11545   0.48683   0.20070   0.00000  Uiso   1.00
N363   N     0.79915   0.33581   0.25786   0.00000  Uiso   1.00
N364   N     0.97516   0.38008   0.03406   0.00000  Uiso   1.00
N365   N     0.09431   0.72954   0.19788   0.00000  Uiso   1.00
N366   N     0.73005   0.18830   0.23557   0.00000  Uiso   1.00
N367   N     0.90606   0.23257   0.01177   0.00000  Uiso   1.00
N368   N     0.02521   0.58203   0.17559   0.00000  Uiso   1.00
