data_job_01458
_audit_creation_date              2018-12-19
_audit_creation_method            'Materials Studio'
_symmetry_space_group_name_H-M    'P1'
_symmetry_Int_Tables_number       1
_symmetry_cell_setting            triclinic
loop_
_symmetry_equiv_pos_as_xyz
  x,y,z
_cell_length_a                    11.8553
_cell_length_b                    19.6762
_cell_length_c                    29.2323
_cell_angle_alpha                 90.0000
_cell_angle_beta                  90.0000
_cell_angle_gamma                 90.0000
loop_
_atom_site_label
_atom_site_type_symbol
_atom_site_fract_x
_atom_site_fract_y
_atom_site_fract_z
_atom_site_U_iso_or_equiv
_atom_site_adp_type
_atom_site_occupancy
C1     C     0.50833   0.37273   0.90660   0.00000  Uiso   1.00
C2     C     0.46624   0.33162   0.86580   0.00000  Uiso   1.00
C3     C     0.46178   0.26124   0.86323   0.00000  Uiso   1.00
C4     C     0.42056   0.23335   0.82294   0.00000  Uiso   1.00
C5     C     0.36065   0.16328   0.76512   0.00000  Uiso   1.00
C6     C     0.60215   0.41826   0.88832   0.00000  Uiso   1.00
C7     C     0.71197   0.42073   0.90468   0.00000  Uiso   1.00
C8     C     0.78516   0.46578   0.88334   0.00000  Uiso   1.00
C9     C     0.93623   0.53024   0.86049   0.00000  Uiso   1.00
C10    C     0.41188   0.42012   0.91977   0.00000  Uiso   1.00
C11    C     0.36173   0.42417   0.96258   0.00000  Uiso   1.00
C12    C     0.27474   0.47079   0.96772   0.00000  Uiso   1.00
C13    C     0.13038   0.53815   0.99371   0.00000  Uiso   1.00
C14    C     0.44305   0.44834   0.83961   0.00000  Uiso   1.00
C15    C     0.43078   0.37269   0.82942   0.00000  Uiso   1.00
C16    C     0.38955   0.34490   0.78911   0.00000  Uiso   1.00
C17    C     0.38503   0.27449   0.78648   0.00000  Uiso   1.00
C18    C     0.56670   0.45933   0.85193   0.00000  Uiso   1.00
C19    C     0.63974   0.50438   0.83056   0.00000  Uiso   1.00
C20    C     0.74964   0.50692   0.84688   0.00000  Uiso   1.00
C21    C     0.37642   0.46119   0.88338   0.00000  Uiso   1.00
C22    C     0.28949   0.50782   0.88846   0.00000  Uiso   1.00
C23    C     0.23922   0.51194   0.93127   0.00000  Uiso   1.00
H24    H     0.53595   0.34075   0.93493   0.00000  Uiso   1.00
H25    H     0.48924   0.22948   0.89140   0.00000  Uiso   1.00
H26    H     0.73939   0.38894   0.93284   0.00000  Uiso   1.00
H27    H     0.38920   0.39238   0.99073   0.00000  Uiso   1.00
H28    H     0.42186   0.12422   0.82708   0.00000  Uiso   1.00
H29    H     0.94929   0.46048   0.91448   0.00000  Uiso   1.00
H30    H     0.21085   0.46772   0.03655   0.00000  Uiso   1.00
H31    H     0.41544   0.48032   0.81128   0.00000  Uiso   1.00
H32    H     0.36211   0.37670   0.76096   0.00000  Uiso   1.00
H33    H     0.61226   0.53616   0.80240   0.00000  Uiso   1.00
H34    H     0.26207   0.53959   0.86029   0.00000  Uiso   1.00
H35    H     0.31869   0.24371   0.72121   0.00000  Uiso   1.00
H36    H     0.84612   0.57997   0.80861   0.00000  Uiso   1.00
H37    H     0.10767   0.58721   0.93068   0.00000  Uiso   1.00
O38    O     0.33741   0.11328   0.74327   0.00000  Uiso   1.00
O39    O     0.02937   0.55445   0.85794   0.00000  Uiso   1.00
O40    O     0.06055   0.56394   0.01809   0.00000  Uiso   1.00
N41    N     0.40488   0.16656   0.80908   0.00000  Uiso   1.00
N42    N     0.89800   0.48094   0.89078   0.00000  Uiso   1.00
N43    N     0.20764   0.48772   0.00491   0.00000  Uiso   1.00
N44    N     0.34936   0.23086   0.75211   0.00000  Uiso   1.00
N45    N     0.84248   0.54523   0.83381   0.00000  Uiso   1.00
N46    N     0.15212   0.55201   0.94794   0.00000  Uiso   1.00
C47    C     0.99167   0.12727   0.40660   0.00000  Uiso   1.00
C48    C     0.03376   0.16838   0.36580   0.00000  Uiso   1.00
C49    C     0.03822   0.23876   0.36323   0.00000  Uiso   1.00
C50    C     0.07944   0.26665   0.32294   0.00000  Uiso   1.00
C51    C     0.13935   0.33672   0.26512   0.00000  Uiso   1.00
C52    C     0.89785   0.08174   0.38832   0.00000  Uiso   1.00
C53    C     0.78803   0.07927   0.40468   0.00000  Uiso   1.00
C54    C     0.71484   0.03422   0.38334   0.00000  Uiso   1.00
C55    C     0.56377   0.96976   0.36049   0.00000  Uiso   1.00
C56    C     0.08812   0.07988   0.41977   0.00000  Uiso   1.00
C57    C     0.13827   0.07583   0.46258   0.00000  Uiso   1.00
C58    C     0.22526   0.02921   0.46772   0.00000  Uiso   1.00
C59    C     0.36962   0.96185   0.49371   0.00000  Uiso   1.00
C60    C     0.05695   0.05166   0.33961   0.00000  Uiso   1.00
C61    C     0.06922   0.12731   0.32942   0.00000  Uiso   1.00
C62    C     0.11045   0.15510   0.28911   0.00000  Uiso   1.00
C63    C     0.11497   0.22551   0.28648   0.00000  Uiso   1.00
C64    C     0.93330   0.04067   0.35193   0.00000  Uiso   1.00
C65    C     0.86026   0.99562   0.33056   0.00000  Uiso   1.00
C66    C     0.75036   0.99308   0.34688   0.00000  Uiso   1.00
C67    C     0.12358   0.03881   0.38338   0.00000  Uiso   1.00
C68    C     0.21051   0.99218   0.38846   0.00000  Uiso   1.00
C69    C     0.26078   0.98806   0.43127   0.00000  Uiso   1.00
H70    H     0.96405   0.15925   0.43493   0.00000  Uiso   1.00
H71    H     0.01076   0.27052   0.39140   0.00000  Uiso   1.00
H72    H     0.76061   0.11106   0.43284   0.00000  Uiso   1.00
H73    H     0.11080   0.10762   0.49073   0.00000  Uiso   1.00
H74    H     0.07814   0.37578   0.32708   0.00000  Uiso   1.00
H75    H     0.55071   0.03952   0.41448   0.00000  Uiso   1.00
H76    H     0.28915   0.03228   0.53655   0.00000  Uiso   1.00
H77    H     0.08456   0.01968   0.31128   0.00000  Uiso   1.00
H78    H     0.13789   0.12330   0.26096   0.00000  Uiso   1.00
H79    H     0.88774   0.96384   0.30240   0.00000  Uiso   1.00
H80    H     0.23793   0.96041   0.36029   0.00000  Uiso   1.00
H81    H     0.18131   0.25629   0.22121   0.00000  Uiso   1.00
H82    H     0.65388   0.92003   0.30861   0.00000  Uiso   1.00
H83    H     0.39233   0.91279   0.43068   0.00000  Uiso   1.00
O84    O     0.16259   0.38672   0.24327   0.00000  Uiso   1.00
O85    O     0.47063   0.94555   0.35794   0.00000  Uiso   1.00
O86    O     0.43945   0.93606   0.51809   0.00000  Uiso   1.00
N87    N     0.09512   0.33344   0.30908   0.00000  Uiso   1.00
N88    N     0.60200   0.01906   0.39078   0.00000  Uiso   1.00
N89    N     0.29236   0.01228   0.50491   0.00000  Uiso   1.00
N90    N     0.15064   0.26914   0.25211   0.00000  Uiso   1.00
N91    N     0.65752   0.95477   0.33381   0.00000  Uiso   1.00
N92    N     0.34788   0.94799   0.44794   0.00000  Uiso   1.00
C93    C     0.49167   0.37273   0.59340   0.00000  Uiso   1.00
C94    C     0.53376   0.33162   0.63420   0.00000  Uiso   1.00
C95    C     0.53822   0.26124   0.63677   0.00000  Uiso   1.00
C96    C     0.57944   0.23335   0.67706   0.00000  Uiso   1.00
C97    C     0.63935   0.16328   0.73488   0.00000  Uiso   1.00
C98    C     0.39785   0.41826   0.61168   0.00000  Uiso   1.00
C99    C     0.28803   0.42073   0.59532   0.00000  Uiso   1.00
C100   C     0.21484   0.46578   0.61666   0.00000  Uiso   1.00
C101   C     0.06377   0.53024   0.63951   0.00000  Uiso   1.00
C102   C     0.58812   0.42012   0.58023   0.00000  Uiso   1.00
C103   C     0.63827   0.42417   0.53742   0.00000  Uiso   1.00
C104   C     0.72526   0.47079   0.53228   0.00000  Uiso   1.00
C105   C     0.86962   0.53815   0.50629   0.00000  Uiso   1.00
C106   C     0.55695   0.44834   0.66039   0.00000  Uiso   1.00
C107   C     0.56922   0.37269   0.67058   0.00000  Uiso   1.00
C108   C     0.61045   0.34490   0.71089   0.00000  Uiso   1.00
C109   C     0.61497   0.27449   0.71352   0.00000  Uiso   1.00
C110   C     0.43330   0.45933   0.64807   0.00000  Uiso   1.00
C111   C     0.36026   0.50438   0.66944   0.00000  Uiso   1.00
C112   C     0.25036   0.50692   0.65312   0.00000  Uiso   1.00
C113   C     0.62358   0.46119   0.61662   0.00000  Uiso   1.00
C114   C     0.71051   0.50782   0.61154   0.00000  Uiso   1.00
C115   C     0.76078   0.51194   0.56873   0.00000  Uiso   1.00
H116   H     0.46405   0.34075   0.56507   0.00000  Uiso   1.00
H117   H     0.51076   0.22948   0.60860   0.00000  Uiso   1.00
H118   H     0.26061   0.38894   0.56716   0.00000  Uiso   1.00
H119   H     0.61080   0.39238   0.50927   0.00000  Uiso   1.00
H120   H     0.57814   0.12422   0.67292   0.00000  Uiso   1.00
H121   H     0.05071   0.46048   0.58552   0.00000  Uiso   1.00
H122   H     0.78915   0.46772   0.46345   0.00000  Uiso   1.00
H123   H     0.58456   0.48032   0.68872   0.00000  Uiso   1.00
H124   H     0.63789   0.37670   0.73904   0.00000  Uiso   1.00
H125   H     0.38774   0.53616   0.69760   0.00000  Uiso   1.00
H126   H     0.73793   0.53959   0.63971   0.00000  Uiso   1.00
H127   H     0.68131   0.24371   0.77879   0.00000  Uiso   1.00
H128   H     0.15388   0.57997   0.69139   0.00000  Uiso   1.00
H129   H     0.89233   0.58721   0.56932   0.00000  Uiso   1.00
O130   O     0.66259   0.11328   0.75673   0.00000  Uiso   1.00
O131   O     0.97063   0.55445   0.64206   0.00000  Uiso   1.00
O132   O     0.93945   0.56394   0.48191   0.00000  Uiso   1.00
N133   N     0.59512   0.16656   0.69092   0.00000  Uiso   1.00
N134   N     0.10200   0.48094   0.60922   0.00000  Uiso   1.00
N135   N     0.79236   0.48772   0.49509   0.00000  Uiso   1.00
N136   N     0.65064   0.23086   0.74789   0.00000  Uiso   1.00
N137   N     0.15752   0.54523   0.66619   0.00000  Uiso   1.00
N138   N     0.84788   0.55201   0.55206   0.00000  Uiso   1.00
C139   C     0.00833   0.12727   0.09340   0.00000  Uiso   1.00
C140   C     0.96624   0.16838   0.13420   0.00000  Uiso   1.00
C141   C     0.96178   0.23876   0.13677   0.00000  Uiso   1.00
C142   C     0.92056   0.26665   0.17706   0.00000  Uiso   1.00
C143   C     0.86065   0.33672   0.23488   0.00000  Uiso   1.00
C144   C     0.10215   0.08174   0.11168   0.00000  Uiso   1.00
C145   C     0.21197   0.07927   0.09532   0.00000  Uiso   1.00
C146   C     0.28516   0.03422   0.11666   0.00000  Uiso   1.00
C147   C     0.43623   0.96976   0.13951   0.00000  Uiso   1.00
C148   C     0.91188   0.07988   0.08023   0.00000  Uiso   1.00
C149   C     0.86173   0.07583   0.03742   0.00000  Uiso   1.00
C150   C     0.77474   0.02921   0.03228   0.00000  Uiso   1.00
C151   C     0.63038   0.96185   0.00629   0.00000  Uiso   1.00
C152   C     0.94305   0.05166   0.16039   0.00000  Uiso   1.00
C153   C     0.93078   0.12731   0.17058   0.00000  Uiso   1.00
C154   C     0.88955   0.15510   0.21089   0.00000  Uiso   1.00
C155   C     0.88503   0.22551   0.21352   0.00000  Uiso   1.00
C156   C     0.06670   0.04067   0.14807   0.00000  Uiso   1.00
C157   C     0.13974   0.99562   0.16944   0.00000  Uiso   1.00
C158   C     0.24964   0.99308   0.15312   0.00000  Uiso   1.00
C159   C     0.87642   0.03881   0.11662   0.00000  Uiso   1.00
C160   C     0.78949   0.99218   0.11154   0.00000  Uiso   1.00
C161   C     0.73922   0.98806   0.06873   0.00000  Uiso   1.00
H162   H     0.03595   0.15925   0.06507   0.00000  Uiso   1.00
H163   H     0.98924   0.27052   0.10860   0.00000  Uiso   1.00
H164   H     0.23939   0.11106   0.06716   0.00000  Uiso   1.00
H165   H     0.88920   0.10762   0.00927   0.00000  Uiso   1.00
H166   H     0.92186   0.37578   0.17292   0.00000  Uiso   1.00
H167   H     0.44929   0.03952   0.08552   0.00000  Uiso   1.00
H168   H     0.71085   0.03228   0.96345   0.00000  Uiso   1.00
H169   H     0.91544   0.01968   0.18872   0.00000  Uiso   1.00
H170   H     0.86211   0.12330   0.23904   0.00000  Uiso   1.00
H171   H     0.11226   0.96384   0.19760   0.00000  Uiso   1.00
H172   H     0.76207   0.96041   0.13971   0.00000  Uiso   1.00
H173   H     0.81869   0.25629   0.27879   0.00000  Uiso   1.00
H174   H     0.34612   0.92003   0.19139   0.00000  Uiso   1.00
H175   H     0.60767   0.91279   0.06932   0.00000  Uiso   1.00
O176   O     0.83741   0.38672   0.25673   0.00000  Uiso   1.00
O177   O     0.52937   0.94555   0.14206   0.00000  Uiso   1.00
O178   O     0.56055   0.93606   0.98191   0.00000  Uiso   1.00
N179   N     0.90488   0.33344   0.19092   0.00000  Uiso   1.00
N180   N     0.39800   0.01906   0.10922   0.00000  Uiso   1.00
N181   N     0.70764   0.01228   0.99509   0.00000  Uiso   1.00
N182   N     0.84936   0.26914   0.24789   0.00000  Uiso   1.00
N183   N     0.34248   0.95477   0.16619   0.00000  Uiso   1.00
N184   N     0.65212   0.94799   0.05206   0.00000  Uiso   1.00
C185   C     0.49167   0.62727   0.09340   0.00000  Uiso   1.00
C186   C     0.53376   0.66838   0.13420   0.00000  Uiso   1.00
C187   C     0.53822   0.73876   0.13677   0.00000  Uiso   1.00
C188   C     0.57944   0.76665   0.17706   0.00000  Uiso   1.00
C189   C     0.63935   0.83672   0.23488   0.00000  Uiso   1.00
C190   C     0.39785   0.58174   0.11168   0.00000  Uiso   1.00
C191   C     0.28803   0.57927   0.09532   0.00000  Uiso   1.00
C192   C     0.21484   0.53422   0.11666   0.00000  Uiso   1.00
C193   C     0.06377   0.46976   0.13951   0.00000  Uiso   1.00
C194   C     0.58812   0.57988   0.08023   0.00000  Uiso   1.00
C195   C     0.63827   0.57583   0.03742   0.00000  Uiso   1.00
C196   C     0.72526   0.52921   0.03228   0.00000  Uiso   1.00
C197   C     0.86962   0.46185   0.00629   0.00000  Uiso   1.00
C198   C     0.55695   0.55166   0.16039   0.00000  Uiso   1.00
C199   C     0.56922   0.62731   0.17058   0.00000  Uiso   1.00
C200   C     0.61045   0.65510   0.21089   0.00000  Uiso   1.00
C201   C     0.61497   0.72551   0.21352   0.00000  Uiso   1.00
C202   C     0.43330   0.54067   0.14807   0.00000  Uiso   1.00
C203   C     0.36026   0.49562   0.16944   0.00000  Uiso   1.00
C204   C     0.25036   0.49308   0.15312   0.00000  Uiso   1.00
C205   C     0.62358   0.53881   0.11662   0.00000  Uiso   1.00
C206   C     0.71051   0.49218   0.11154   0.00000  Uiso   1.00
C207   C     0.76078   0.48806   0.06873   0.00000  Uiso   1.00
H208   H     0.46405   0.65925   0.06507   0.00000  Uiso   1.00
H209   H     0.51076   0.77052   0.10860   0.00000  Uiso   1.00
H210   H     0.26061   0.61106   0.06716   0.00000  Uiso   1.00
H211   H     0.61080   0.60762   0.00927   0.00000  Uiso   1.00
H212   H     0.57814   0.87578   0.17292   0.00000  Uiso   1.00
H213   H     0.05071   0.53952   0.08552   0.00000  Uiso   1.00
H214   H     0.78915   0.53228   0.96345   0.00000  Uiso   1.00
H215   H     0.58456   0.51968   0.18872   0.00000  Uiso   1.00
H216   H     0.63789   0.62330   0.23904   0.00000  Uiso   1.00
H217   H     0.38774   0.46384   0.19760   0.00000  Uiso   1.00
H218   H     0.73793   0.46041   0.13971   0.00000  Uiso   1.00
H219   H     0.68131   0.75629   0.27879   0.00000  Uiso   1.00
H220   H     0.15388   0.42003   0.19139   0.00000  Uiso   1.00
H221   H     0.89233   0.41279   0.06932   0.00000  Uiso   1.00
O222   O     0.66259   0.88672   0.25673   0.00000  Uiso   1.00
O223   O     0.97063   0.44555   0.14206   0.00000  Uiso   1.00
O224   O     0.93945   0.43606   0.98191   0.00000  Uiso   1.00
N225   N     0.59512   0.83344   0.19092   0.00000  Uiso   1.00
N226   N     0.10200   0.51906   0.10922   0.00000  Uiso   1.00
N227   N     0.79236   0.51228   0.99509   0.00000  Uiso   1.00
N228   N     0.65064   0.76914   0.24789   0.00000  Uiso   1.00
N229   N     0.15752   0.45477   0.16619   0.00000  Uiso   1.00
N230   N     0.84788   0.44799   0.05206   0.00000  Uiso   1.00
C231   C     0.00833   0.87273   0.59340   0.00000  Uiso   1.00
C232   C     0.96624   0.83162   0.63420   0.00000  Uiso   1.00
C233   C     0.96178   0.76124   0.63677   0.00000  Uiso   1.00
C234   C     0.92056   0.73335   0.67706   0.00000  Uiso   1.00
C235   C     0.86065   0.66328   0.73488   0.00000  Uiso   1.00
C236   C     0.10215   0.91826   0.61168   0.00000  Uiso   1.00
C237   C     0.21197   0.92073   0.59532   0.00000  Uiso   1.00
C238   C     0.28516   0.96578   0.61666   0.00000  Uiso   1.00
C239   C     0.43623   0.03024   0.63951   0.00000  Uiso   1.00
C240   C     0.91188   0.92012   0.58023   0.00000  Uiso   1.00
C241   C     0.86173   0.92417   0.53742   0.00000  Uiso   1.00
C242   C     0.77474   0.97079   0.53228   0.00000  Uiso   1.00
C243   C     0.63038   0.03815   0.50629   0.00000  Uiso   1.00
C244   C     0.94305   0.94834   0.66039   0.00000  Uiso   1.00
C245   C     0.93078   0.87269   0.67058   0.00000  Uiso   1.00
C246   C     0.88955   0.84490   0.71089   0.00000  Uiso   1.00
C247   C     0.88503   0.77449   0.71352   0.00000  Uiso   1.00
C248   C     0.06670   0.95933   0.64807   0.00000  Uiso   1.00
C249   C     0.13974   0.00438   0.66944   0.00000  Uiso   1.00
C250   C     0.24964   0.00692   0.65312   0.00000  Uiso   1.00
C251   C     0.87642   0.96119   0.61662   0.00000  Uiso   1.00
C252   C     0.78949   0.00782   0.61154   0.00000  Uiso   1.00
C253   C     0.73922   0.01194   0.56873   0.00000  Uiso   1.00
H254   H     0.03595   0.84075   0.56507   0.00000  Uiso   1.00
H255   H     0.98924   0.72948   0.60860   0.00000  Uiso   1.00
H256   H     0.23939   0.88894   0.56716   0.00000  Uiso   1.00
H257   H     0.88920   0.89238   0.50927   0.00000  Uiso   1.00
H258   H     0.92186   0.62422   0.67292   0.00000  Uiso   1.00
H259   H     0.44929   0.96048   0.58552   0.00000  Uiso   1.00
H260   H     0.71085   0.96772   0.46345   0.00000  Uiso   1.00
H261   H     0.91544   0.98032   0.68872   0.00000  Uiso   1.00
H262   H     0.86211   0.87670   0.73904   0.00000  Uiso   1.00
H263   H     0.11226   0.03616   0.69760   0.00000  Uiso   1.00
H264   H     0.76207   0.03959   0.63971   0.00000  Uiso   1.00
H265   H     0.81869   0.74371   0.77879   0.00000  Uiso   1.00
H266   H     0.34612   0.07997   0.69139   0.00000  Uiso   1.00
H267   H     0.60767   0.08721   0.56932   0.00000  Uiso   1.00
O268   O     0.83741   0.61328   0.75673   0.00000  Uiso   1.00
O269   O     0.52937   0.05445   0.64206   0.00000  Uiso   1.00
O270   O     0.56055   0.06394   0.48191   0.00000  Uiso   1.00
N271   N     0.90488   0.66656   0.69092   0.00000  Uiso   1.00
N272   N     0.39800   0.98094   0.60922   0.00000  Uiso   1.00
N273   N     0.70764   0.98772   0.49509   0.00000  Uiso   1.00
N274   N     0.84936   0.73086   0.74789   0.00000  Uiso   1.00
N275   N     0.34248   0.04523   0.66619   0.00000  Uiso   1.00
N276   N     0.65212   0.05201   0.55206   0.00000  Uiso   1.00
C277   C     0.50833   0.62727   0.40660   0.00000  Uiso   1.00
C278   C     0.46624   0.66838   0.36580   0.00000  Uiso   1.00
C279   C     0.46178   0.73876   0.36323   0.00000  Uiso   1.00
C280   C     0.42056   0.76665   0.32294   0.00000  Uiso   1.00
C281   C     0.36065   0.83672   0.26512   0.00000  Uiso   1.00
C282   C     0.60215   0.58174   0.38832   0.00000  Uiso   1.00
C283   C     0.71197   0.57927   0.40468   0.00000  Uiso   1.00
C284   C     0.78516   0.53422   0.38334   0.00000  Uiso   1.00
C285   C     0.93623   0.46976   0.36049   0.00000  Uiso   1.00
C286   C     0.41188   0.57988   0.41977   0.00000  Uiso   1.00
C287   C     0.36173   0.57583   0.46258   0.00000  Uiso   1.00
C288   C     0.27474   0.52921   0.46772   0.00000  Uiso   1.00
C289   C     0.13038   0.46185   0.49371   0.00000  Uiso   1.00
C290   C     0.44305   0.55166   0.33961   0.00000  Uiso   1.00
C291   C     0.43078   0.62731   0.32942   0.00000  Uiso   1.00
C292   C     0.38955   0.65510   0.28911   0.00000  Uiso   1.00
C293   C     0.38503   0.72551   0.28648   0.00000  Uiso   1.00
C294   C     0.56670   0.54067   0.35193   0.00000  Uiso   1.00
C295   C     0.63974   0.49562   0.33056   0.00000  Uiso   1.00
C296   C     0.74964   0.49308   0.34688   0.00000  Uiso   1.00
C297   C     0.37642   0.53881   0.38338   0.00000  Uiso   1.00
C298   C     0.28949   0.49218   0.38846   0.00000  Uiso   1.00
C299   C     0.23922   0.48806   0.43127   0.00000  Uiso   1.00
H300   H     0.53595   0.65925   0.43493   0.00000  Uiso   1.00
H301   H     0.48924   0.77052   0.39140   0.00000  Uiso   1.00
H302   H     0.73939   0.61106   0.43284   0.00000  Uiso   1.00
H303   H     0.38920   0.60762   0.49073   0.00000  Uiso   1.00
H304   H     0.42186   0.87578   0.32708   0.00000  Uiso   1.00
H305   H     0.94929   0.53952   0.41448   0.00000  Uiso   1.00
H306   H     0.21085   0.53228   0.53655   0.00000  Uiso   1.00
H307   H     0.41544   0.51968   0.31128   0.00000  Uiso   1.00
H308   H     0.36211   0.62330   0.26096   0.00000  Uiso   1.00
H309   H     0.61226   0.46384   0.30240   0.00000  Uiso   1.00
H310   H     0.26207   0.46041   0.36029   0.00000  Uiso   1.00
H311   H     0.31869   0.75629   0.22121   0.00000  Uiso   1.00
H312   H     0.84612   0.42003   0.30861   0.00000  Uiso   1.00
H313   H     0.10767   0.41279   0.43068   0.00000  Uiso   1.00
O314   O     0.33741   0.88672   0.24327   0.00000  Uiso   1.00
O315   O     0.02937   0.44555   0.35794   0.00000  Uiso   1.00
O316   O     0.06055   0.43606   0.51809   0.00000  Uiso   1.00
N317   N     0.40488   0.83344   0.30908   0.00000  Uiso   1.00
N318   N     0.89800   0.51906   0.39078   0.00000  Uiso   1.00
N319   N     0.20764   0.51228   0.50491   0.00000  Uiso   1.00
N320   N     0.34936   0.76914   0.25211   0.00000  Uiso   1.00
N321   N     0.84248   0.45477   0.33381   0.00000  Uiso   1.00
N322   N     0.15212   0.44799   0.44794   0.00000  Uiso   1.00
C323   C     0.99167   0.87273   0.90660   0.00000  Uiso   1.00
C324   C     0.03376   0.83162   0.86580   0.00000  Uiso   1.00
C325   C     0.03822   0.76124   0.86323   0.00000  Uiso   1.00
C326   C     0.07944   0.73335   0.82294   0.00000  Uiso   1.00
C327   C     0.13935   0.66328   0.76512   0.00000  Uiso   1.00
C328   C     0.89785   0.91826   0.88832   0.00000  Uiso   1.00
C329   C     0.78803   0.92073   0.90468   0.00000  Uiso   1.00
C330   C     0.71484   0.96578   0.88334   0.00000  Uiso   1.00
C331   C     0.56377   0.03024   0.86049   0.00000  Uiso   1.00
C332   C     0.08812   0.92012   0.91977   0.00000  Uiso   1.00
C333   C     0.13827   0.92417   0.96258   0.00000  Uiso   1.00
C334   C     0.22526   0.97079   0.96772   0.00000  Uiso   1.00
C335   C     0.36962   0.03815   0.99371   0.00000  Uiso   1.00
C336   C     0.05695   0.94834   0.83961   0.00000  Uiso   1.00
C337   C     0.06922   0.87269   0.82942   0.00000  Uiso   1.00
C338   C     0.11045   0.84490   0.78911   0.00000  Uiso   1.00
C339   C     0.11497   0.77449   0.78648   0.00000  Uiso   1.00
C340   C     0.93330   0.95933   0.85193   0.00000  Uiso   1.00
C341   C     0.86026   0.00438   0.83056   0.00000  Uiso   1.00
C342   C     0.75036   0.00692   0.84688   0.00000  Uiso   1.00
C343   C     0.12358   0.96119   0.88338   0.00000  Uiso   1.00
C344   C     0.21051   0.00782   0.88846   0.00000  Uiso   1.00
C345   C     0.26078   0.01194   0.93127   0.00000  Uiso   1.00
H346   H     0.96405   0.84075   0.93493   0.00000  Uiso   1.00
H347   H     0.01076   0.72948   0.89140   0.00000  Uiso   1.00
H348   H     0.76061   0.88894   0.93284   0.00000  Uiso   1.00
H349   H     0.11080   0.89238   0.99073   0.00000  Uiso   1.00
H350   H     0.07814   0.62422   0.82708   0.00000  Uiso   1.00
H351   H     0.55071   0.96048   0.91448   0.00000  Uiso   1.00
H352   H     0.28915   0.96772   0.03655   0.00000  Uiso   1.00
H353   H     0.08456   0.98032   0.81128   0.00000  Uiso   1.00
H354   H     0.13789   0.87670   0.76096   0.00000  Uiso   1.00
H355   H     0.88774   0.03616   0.80240   0.00000  Uiso   1.00
H356   H     0.23793   0.03959   0.86029   0.00000  Uiso   1.00
H357   H     0.18131   0.74371   0.72121   0.00000  Uiso   1.00
H358   H     0.65388   0.07997   0.80861   0.00000  Uiso   1.00
H359   H     0.39233   0.08721   0.93068   0.00000  Uiso   1.00
O360   O     0.16259   0.61328   0.74327   0.00000  Uiso   1.00
O361   O     0.47063   0.05445   0.85794   0.00000  Uiso   1.00
O362   O     0.43945   0.06394   0.01809   0.00000  Uiso   1.00
N363   N     0.09512   0.66656   0.80908   0.00000  Uiso   1.00
N364   N     0.60200   0.98094   0.89078   0.00000  Uiso   1.00
N365   N     0.29236   0.98772   0.00491   0.00000  Uiso   1.00
N366   N     0.15064   0.73086   0.75211   0.00000  Uiso   1.00
N367   N     0.65752   0.04523   0.83381   0.00000  Uiso   1.00
N368   N     0.34788   0.05201   0.94794   0.00000  Uiso   1.00
