data_job_01532
_audit_creation_date              2018-12-19
_audit_creation_method            'Materials Studio'
_symmetry_space_group_name_H-M    'P1'
_symmetry_Int_Tables_number       1
_symmetry_cell_setting            triclinic
loop_
_symmetry_equiv_pos_as_xyz
  x,y,z
_cell_length_a                    13.3875
_cell_length_b                    16.8722
_cell_length_c                    10.1279
_cell_angle_alpha                 90.0000
_cell_angle_beta                  90.0000
_cell_angle_gamma                 90.0000
loop_
_atom_site_label
_atom_site_type_symbol
_atom_site_fract_x
_atom_site_fract_y
_atom_site_fract_z
_atom_site_U_iso_or_equiv
_atom_site_adp_type
_atom_site_occupancy
C1     C     0.75675   0.17992   0.55253   0.00000  Uiso   1.00
C2     C     0.74946   0.10666   0.46488   0.00000  Uiso   1.00
C3     C     0.66318   0.06365   0.43973   0.00000  Uiso   1.00
C4     C     0.67207   0.99848   0.35686   0.00000  Uiso   1.00
C5     C     0.64678   0.88794   0.22928   0.00000  Uiso   1.00
C6     C     0.83582   0.16105   0.65625   0.00000  Uiso   1.00
C7     C     0.82214   0.16377   0.79201   0.00000  Uiso   1.00
C8     C     0.90373   0.14440   0.87024   0.00000  Uiso   1.00
C9     C     0.01253   0.11836   0.03978   0.00000  Uiso   1.00
C10    C     0.80095   0.24516   0.46625   0.00000  Uiso   1.00
C11    C     0.75797   0.31862   0.44227   0.00000  Uiso   1.00
C12    C     0.81023   0.37007   0.36055   0.00000  Uiso   1.00
C13    C     0.86488   0.47462   0.23507   0.00000  Uiso   1.00
C14    C     0.92598   0.14068   0.45007   0.00000  Uiso   1.00
C15    C     0.84138   0.08535   0.40923   0.00000  Uiso   1.00
C16    C     0.85041   0.02023   0.32637   0.00000  Uiso   1.00
C17    C     0.76415   0.97713   0.30110   0.00000  Uiso   1.00
C18    C     0.92773   0.13974   0.60061   0.00000  Uiso   1.00
C19    C     0.00937   0.12036   0.67865   0.00000  Uiso   1.00
C20    C     0.99582   0.12304   0.81449   0.00000  Uiso   1.00
C21    C     0.89287   0.22385   0.41059   0.00000  Uiso   1.00
C22    C     0.94520   0.27520   0.32890   0.00000  Uiso   1.00
C23    C     0.90231   0.34871   0.30480   0.00000  Uiso   1.00
H24    H     0.68520   0.19652   0.59586   0.00000  Uiso   1.00
H25    H     0.59206   0.08016   0.48283   0.00000  Uiso   1.00
H26    H     0.75101   0.18028   0.83505   0.00000  Uiso   1.00
H27    H     0.68685   0.33509   0.48535   0.00000  Uiso   1.00
H28    H     0.52935   0.94173   0.33300   0.00000  Uiso   1.00
H29    H     0.86450   0.15287   0.07569   0.00000  Uiso   1.00
H30    H     0.72920   0.47933   0.33829   0.00000  Uiso   1.00
H31    H     0.99754   0.12409   0.40674   0.00000  Uiso   1.00
H32    H     0.92155   0.00375   0.28332   0.00000  Uiso   1.00
H33    H     0.08049   0.10387   0.63555   0.00000  Uiso   1.00
H34    H     0.01633   0.25868   0.28585   0.00000  Uiso   1.00
H35    H     0.79677   0.87972   0.17108   0.00000  Uiso   1.00
H36    H     0.13192   0.09085   0.91377   0.00000  Uiso   1.00
H37    H     0.99662   0.41731   0.17636   0.00000  Uiso   1.00
O38    O     0.60744   0.83286   0.17430   0.00000  Uiso   1.00
O39    O     0.04714   0.10987   0.14867   0.00000  Uiso   1.00
O40    O     0.86963   0.53817   0.18122   0.00000  Uiso   1.00
N41    N     0.60271   0.94366   0.31181   0.00000  Uiso   1.00
N42    N     0.91605   0.14105   0.00618   0.00000  Uiso   1.00
N43    N     0.78957   0.44627   0.31680   0.00000  Uiso   1.00
N44    N     0.74661   0.91029   0.22468   0.00000  Uiso   1.00
N45    N     0.05995   0.10768   0.91905   0.00000  Uiso   1.00
N46    N     0.93347   0.41290   0.22967   0.00000  Uiso   1.00
C47    C     0.24325   0.82008   0.55253   0.00000  Uiso   1.00
C48    C     0.25054   0.89334   0.46488   0.00000  Uiso   1.00
C49    C     0.33682   0.93635   0.43973   0.00000  Uiso   1.00
C50    C     0.32793   0.00152   0.35686   0.00000  Uiso   1.00
C51    C     0.35322   0.11206   0.22928   0.00000  Uiso   1.00
C52    C     0.16418   0.83895   0.65625   0.00000  Uiso   1.00
C53    C     0.17786   0.83623   0.79201   0.00000  Uiso   1.00
C54    C     0.09627   0.85560   0.87024   0.00000  Uiso   1.00
C55    C     0.98747   0.88164   0.03978   0.00000  Uiso   1.00
C56    C     0.19905   0.75484   0.46625   0.00000  Uiso   1.00
C57    C     0.24203   0.68138   0.44227   0.00000  Uiso   1.00
C58    C     0.18977   0.62993   0.36055   0.00000  Uiso   1.00
C59    C     0.13512   0.52538   0.23507   0.00000  Uiso   1.00
C60    C     0.07402   0.85932   0.45007   0.00000  Uiso   1.00
C61    C     0.15862   0.91465   0.40923   0.00000  Uiso   1.00
C62    C     0.14959   0.97977   0.32637   0.00000  Uiso   1.00
C63    C     0.23585   0.02287   0.30110   0.00000  Uiso   1.00
C64    C     0.07227   0.86026   0.60061   0.00000  Uiso   1.00
C65    C     0.99063   0.87964   0.67865   0.00000  Uiso   1.00
C66    C     0.00418   0.87696   0.81449   0.00000  Uiso   1.00
C67    C     0.10713   0.77615   0.41059   0.00000  Uiso   1.00
C68    C     0.05480   0.72480   0.32890   0.00000  Uiso   1.00
C69    C     0.09769   0.65129   0.30480   0.00000  Uiso   1.00
H70    H     0.31480   0.80348   0.59586   0.00000  Uiso   1.00
H71    H     0.40794   0.91984   0.48283   0.00000  Uiso   1.00
H72    H     0.24899   0.81972   0.83505   0.00000  Uiso   1.00
H73    H     0.31315   0.66491   0.48535   0.00000  Uiso   1.00
H74    H     0.47065   0.05827   0.33300   0.00000  Uiso   1.00
H75    H     0.13550   0.84713   0.07569   0.00000  Uiso   1.00
H76    H     0.27080   0.52067   0.33829   0.00000  Uiso   1.00
H77    H     0.00246   0.87591   0.40674   0.00000  Uiso   1.00
H78    H     0.07845   0.99625   0.28332   0.00000  Uiso   1.00
H79    H     0.91951   0.89613   0.63555   0.00000  Uiso   1.00
H80    H     0.98367   0.74132   0.28585   0.00000  Uiso   1.00
H81    H     0.20323   0.12028   0.17108   0.00000  Uiso   1.00
H82    H     0.86808   0.90915   0.91377   0.00000  Uiso   1.00
H83    H     0.00338   0.58269   0.17636   0.00000  Uiso   1.00
O84    O     0.39256   0.16714   0.17430   0.00000  Uiso   1.00
O85    O     0.95286   0.89013   0.14867   0.00000  Uiso   1.00
O86    O     0.13037   0.46183   0.18122   0.00000  Uiso   1.00
N87    N     0.39729   0.05634   0.31181   0.00000  Uiso   1.00
N88    N     0.08395   0.85895   0.00618   0.00000  Uiso   1.00
N89    N     0.21043   0.55373   0.31680   0.00000  Uiso   1.00
N90    N     0.25339   0.08971   0.22468   0.00000  Uiso   1.00
N91    N     0.94005   0.89232   0.91905   0.00000  Uiso   1.00
N92    N     0.06653   0.58710   0.22967   0.00000  Uiso   1.00
C93    C     0.74325   0.67992   0.44747   0.00000  Uiso   1.00
C94    C     0.75054   0.60666   0.53512   0.00000  Uiso   1.00
C95    C     0.83682   0.56365   0.56027   0.00000  Uiso   1.00
C96    C     0.82793   0.49848   0.64314   0.00000  Uiso   1.00
C97    C     0.85322   0.38794   0.77072   0.00000  Uiso   1.00
C98    C     0.66418   0.66105   0.34375   0.00000  Uiso   1.00
C99    C     0.67786   0.66377   0.20799   0.00000  Uiso   1.00
C100   C     0.59627   0.64440   0.12976   0.00000  Uiso   1.00
C101   C     0.48747   0.61836   0.96022   0.00000  Uiso   1.00
C102   C     0.69905   0.74516   0.53375   0.00000  Uiso   1.00
C103   C     0.74203   0.81862   0.55773   0.00000  Uiso   1.00
C104   C     0.68977   0.87007   0.63945   0.00000  Uiso   1.00
C105   C     0.63512   0.97462   0.76493   0.00000  Uiso   1.00
C106   C     0.57402   0.64068   0.54993   0.00000  Uiso   1.00
C107   C     0.65862   0.58535   0.59077   0.00000  Uiso   1.00
C108   C     0.64959   0.52023   0.67363   0.00000  Uiso   1.00
C109   C     0.73585   0.47713   0.69890   0.00000  Uiso   1.00
C110   C     0.57227   0.63974   0.39939   0.00000  Uiso   1.00
C111   C     0.49063   0.62036   0.32135   0.00000  Uiso   1.00
C112   C     0.50418   0.62304   0.18551   0.00000  Uiso   1.00
C113   C     0.60713   0.72385   0.58941   0.00000  Uiso   1.00
C114   C     0.55480   0.77520   0.67110   0.00000  Uiso   1.00
C115   C     0.59769   0.84871   0.69520   0.00000  Uiso   1.00
H116   H     0.81480   0.69652   0.40414   0.00000  Uiso   1.00
H117   H     0.90794   0.58016   0.51717   0.00000  Uiso   1.00
H118   H     0.74899   0.68028   0.16495   0.00000  Uiso   1.00
H119   H     0.81315   0.83509   0.51465   0.00000  Uiso   1.00
H120   H     0.97065   0.44173   0.66700   0.00000  Uiso   1.00
H121   H     0.63550   0.65287   0.92431   0.00000  Uiso   1.00
H122   H     0.77080   0.97933   0.66171   0.00000  Uiso   1.00
H123   H     0.50246   0.62409   0.59326   0.00000  Uiso   1.00
H124   H     0.57845   0.50375   0.71668   0.00000  Uiso   1.00
H125   H     0.41951   0.60387   0.36445   0.00000  Uiso   1.00
H126   H     0.48367   0.75868   0.71415   0.00000  Uiso   1.00
H127   H     0.70323   0.37972   0.82892   0.00000  Uiso   1.00
H128   H     0.36808   0.59085   0.08623   0.00000  Uiso   1.00
H129   H     0.50338   0.91731   0.82364   0.00000  Uiso   1.00
O130   O     0.89256   0.33286   0.82570   0.00000  Uiso   1.00
O131   O     0.45286   0.60987   0.85133   0.00000  Uiso   1.00
O132   O     0.63037   0.03817   0.81878   0.00000  Uiso   1.00
N133   N     0.89729   0.44366   0.68819   0.00000  Uiso   1.00
N134   N     0.58395   0.64105   0.99382   0.00000  Uiso   1.00
N135   N     0.71043   0.94627   0.68320   0.00000  Uiso   1.00
N136   N     0.75339   0.41029   0.77532   0.00000  Uiso   1.00
N137   N     0.44005   0.60768   0.08095   0.00000  Uiso   1.00
N138   N     0.56653   0.91290   0.77033   0.00000  Uiso   1.00
C139   C     0.25675   0.32008   0.44747   0.00000  Uiso   1.00
C140   C     0.24946   0.39334   0.53512   0.00000  Uiso   1.00
C141   C     0.16318   0.43635   0.56027   0.00000  Uiso   1.00
C142   C     0.17207   0.50152   0.64314   0.00000  Uiso   1.00
C143   C     0.14678   0.61206   0.77072   0.00000  Uiso   1.00
C144   C     0.33582   0.33895   0.34375   0.00000  Uiso   1.00
C145   C     0.32214   0.33623   0.20799   0.00000  Uiso   1.00
C146   C     0.40373   0.35560   0.12976   0.00000  Uiso   1.00
C147   C     0.51253   0.38164   0.96022   0.00000  Uiso   1.00
C148   C     0.30095   0.25484   0.53375   0.00000  Uiso   1.00
C149   C     0.25797   0.18138   0.55773   0.00000  Uiso   1.00
C150   C     0.31023   0.12993   0.63945   0.00000  Uiso   1.00
C151   C     0.36488   0.02538   0.76493   0.00000  Uiso   1.00
C152   C     0.42598   0.35932   0.54993   0.00000  Uiso   1.00
C153   C     0.34138   0.41465   0.59077   0.00000  Uiso   1.00
C154   C     0.35041   0.47977   0.67363   0.00000  Uiso   1.00
C155   C     0.26415   0.52287   0.69890   0.00000  Uiso   1.00
C156   C     0.42773   0.36026   0.39939   0.00000  Uiso   1.00
C157   C     0.50937   0.37964   0.32135   0.00000  Uiso   1.00
C158   C     0.49582   0.37696   0.18551   0.00000  Uiso   1.00
C159   C     0.39287   0.27615   0.58941   0.00000  Uiso   1.00
C160   C     0.44520   0.22480   0.67110   0.00000  Uiso   1.00
C161   C     0.40231   0.15129   0.69520   0.00000  Uiso   1.00
H162   H     0.18520   0.30348   0.40414   0.00000  Uiso   1.00
H163   H     0.09206   0.41984   0.51717   0.00000  Uiso   1.00
H164   H     0.25101   0.31972   0.16495   0.00000  Uiso   1.00
H165   H     0.18685   0.16491   0.51465   0.00000  Uiso   1.00
H166   H     0.02935   0.55827   0.66700   0.00000  Uiso   1.00
H167   H     0.36450   0.34713   0.92431   0.00000  Uiso   1.00
H168   H     0.22920   0.02067   0.66171   0.00000  Uiso   1.00
H169   H     0.49754   0.37591   0.59326   0.00000  Uiso   1.00
H170   H     0.42155   0.49625   0.71668   0.00000  Uiso   1.00
H171   H     0.58049   0.39613   0.36445   0.00000  Uiso   1.00
H172   H     0.51633   0.24132   0.71415   0.00000  Uiso   1.00
H173   H     0.29677   0.62028   0.82892   0.00000  Uiso   1.00
H174   H     0.63192   0.40915   0.08623   0.00000  Uiso   1.00
H175   H     0.49662   0.08269   0.82364   0.00000  Uiso   1.00
O176   O     0.10744   0.66714   0.82570   0.00000  Uiso   1.00
O177   O     0.54714   0.39013   0.85133   0.00000  Uiso   1.00
O178   O     0.36963   0.96183   0.81878   0.00000  Uiso   1.00
N179   N     0.10271   0.55634   0.68819   0.00000  Uiso   1.00
N180   N     0.41605   0.35895   0.99382   0.00000  Uiso   1.00
N181   N     0.28957   0.05373   0.68320   0.00000  Uiso   1.00
N182   N     0.24661   0.58971   0.77532   0.00000  Uiso   1.00
N183   N     0.55995   0.39232   0.08095   0.00000  Uiso   1.00
N184   N     0.43347   0.08710   0.77033   0.00000  Uiso   1.00
