data_job_01943
_audit_creation_date              2018-12-19
_audit_creation_method            'Materials Studio'
_symmetry_space_group_name_H-M    'P1'
_symmetry_Int_Tables_number       1
_symmetry_cell_setting            triclinic
loop_
_symmetry_equiv_pos_as_xyz
  x,y,z
_cell_length_a                    12.4496
_cell_length_b                    28.0101
_cell_length_c                    23.9426
_cell_angle_alpha                 90.0000
_cell_angle_beta                  109.0105
_cell_angle_gamma                 90.0000
loop_
_atom_site_label
_atom_site_type_symbol
_atom_site_fract_x
_atom_site_fract_y
_atom_site_fract_z
_atom_site_U_iso_or_equiv
_atom_site_adp_type
_atom_site_occupancy
C1     C     0.76994   0.14589   0.61126   0.00000  Uiso   1.00
C2     C     0.64207   0.14524   0.57940   0.00000  Uiso   1.00
C3     C     0.57083   0.18471   0.56841   0.00000  Uiso   1.00
C4     C     0.45637   0.17667   0.53865   0.00000  Uiso   1.00
C5     C     0.26413   0.18265   0.49197   0.00000  Uiso   1.00
C6     C     0.79140   0.11111   0.66275   0.00000  Uiso   1.00
C7     C     0.84574   0.12188   0.72183   0.00000  Uiso   1.00
C8     C     0.85700   0.08510   0.76222   0.00000  Uiso   1.00
C9     C     0.89669   0.03808   0.84493   0.00000  Uiso   1.00
C10    C     0.82387   0.12342   0.56879   0.00000  Uiso   1.00
C11    C     0.90553   0.14453   0.54888   0.00000  Uiso   1.00
C12    C     0.94414   0.11811   0.51018   0.00000  Uiso   1.00
C13    C     0.03423   0.09020   0.44700   0.00000  Uiso   1.00
C14    C     0.69335   0.06142   0.57794   0.00000  Uiso   1.00
C15    C     0.60047   0.09936   0.56131   0.00000  Uiso   1.00
C16    C     0.48608   0.09126   0.53155   0.00000  Uiso   1.00
C17    C     0.41469   0.13071   0.52052   0.00000  Uiso   1.00
C18    C     0.74980   0.06523   0.64465   0.00000  Uiso   1.00
C19    C     0.76100   0.02843   0.68496   0.00000  Uiso   1.00
C20    C     0.81533   0.03914   0.74409   0.00000  Uiso   1.00
C21    C     0.78227   0.07754   0.55069   0.00000  Uiso   1.00
C22    C     0.82077   0.05108   0.51201   0.00000  Uiso   1.00
C23    C     0.90247   0.07215   0.49205   0.00000  Uiso   1.00
H24    H     0.80234   0.18160   0.62535   0.00000  Uiso   1.00
H25    H     0.60306   0.22021   0.58243   0.00000  Uiso   1.00
H26    H     0.87794   0.15739   0.73582   0.00000  Uiso   1.00
H27    H     0.93770   0.18003   0.56290   0.00000  Uiso   1.00
H28    H     0.36376   0.24278   0.52689   0.00000  Uiso   1.00
H29    H     0.94339   0.11031   0.85031   0.00000  Uiso   1.00
H30    H     0.06943   0.15806   0.48567   0.00000  Uiso   1.00
H31    H     0.66096   0.02570   0.56385   0.00000  Uiso   1.00
H32    H     0.45391   0.05575   0.51755   0.00000  Uiso   1.00
H33    H     0.72880   0.99293   0.67094   0.00000  Uiso   1.00
H34    H     0.78856   0.01558   0.49802   0.00000  Uiso   1.00
H35    H     0.24271   0.10930   0.47423   0.00000  Uiso   1.00
H36    H     0.82235   0.97683   0.79766   0.00000  Uiso   1.00
H37    H     0.94838   0.02458   0.43301   0.00000  Uiso   1.00
O38    O     0.16958   0.19862   0.47123   0.00000  Uiso   1.00
O39    O     0.93006   0.02482   0.89555   0.00000  Uiso   1.00
O40    O     0.09541   0.08748   0.41715   0.00000  Uiso   1.00
N41    N     0.36369   0.20724   0.52084   0.00000  Uiso   1.00
N42    N     0.90560   0.08339   0.82322   0.00000  Uiso   1.00
N43    N     0.02345   0.12803   0.48233   0.00000  Uiso   1.00
N44    N     0.29855   0.13542   0.49250   0.00000  Uiso   1.00
N45    N     0.84046   0.01157   0.79489   0.00000  Uiso   1.00
N46    N     0.95832   0.05621   0.45399   0.00000  Uiso   1.00
C47    C     0.26994   0.64589   0.61126   0.00000  Uiso   1.00
C48    C     0.14207   0.64524   0.57940   0.00000  Uiso   1.00
C49    C     0.07083   0.68471   0.56841   0.00000  Uiso   1.00
C50    C     0.95637   0.67667   0.53865   0.00000  Uiso   1.00
C51    C     0.76413   0.68265   0.49197   0.00000  Uiso   1.00
C52    C     0.29140   0.61111   0.66275   0.00000  Uiso   1.00
C53    C     0.34574   0.62188   0.72183   0.00000  Uiso   1.00
C54    C     0.35700   0.58510   0.76222   0.00000  Uiso   1.00
C55    C     0.39669   0.53808   0.84493   0.00000  Uiso   1.00
C56    C     0.32387   0.62342   0.56879   0.00000  Uiso   1.00
C57    C     0.40553   0.64453   0.54888   0.00000  Uiso   1.00
C58    C     0.44414   0.61811   0.51018   0.00000  Uiso   1.00
C59    C     0.53423   0.59020   0.44700   0.00000  Uiso   1.00
C60    C     0.19335   0.56142   0.57794   0.00000  Uiso   1.00
C61    C     0.10047   0.59936   0.56131   0.00000  Uiso   1.00
C62    C     0.98608   0.59126   0.53155   0.00000  Uiso   1.00
C63    C     0.91469   0.63071   0.52052   0.00000  Uiso   1.00
C64    C     0.24980   0.56523   0.64465   0.00000  Uiso   1.00
C65    C     0.26100   0.52843   0.68496   0.00000  Uiso   1.00
C66    C     0.31533   0.53914   0.74409   0.00000  Uiso   1.00
C67    C     0.28227   0.57754   0.55069   0.00000  Uiso   1.00
C68    C     0.32077   0.55108   0.51201   0.00000  Uiso   1.00
C69    C     0.40247   0.57215   0.49205   0.00000  Uiso   1.00
H70    H     0.30234   0.68160   0.62535   0.00000  Uiso   1.00
H71    H     0.10306   0.72021   0.58243   0.00000  Uiso   1.00
H72    H     0.37794   0.65739   0.73582   0.00000  Uiso   1.00
H73    H     0.43770   0.68003   0.56290   0.00000  Uiso   1.00
H74    H     0.86376   0.74278   0.52689   0.00000  Uiso   1.00
H75    H     0.44339   0.61031   0.85031   0.00000  Uiso   1.00
H76    H     0.56943   0.65806   0.48567   0.00000  Uiso   1.00
H77    H     0.16096   0.52570   0.56385   0.00000  Uiso   1.00
H78    H     0.95391   0.55575   0.51755   0.00000  Uiso   1.00
H79    H     0.22880   0.49293   0.67094   0.00000  Uiso   1.00
H80    H     0.28856   0.51558   0.49802   0.00000  Uiso   1.00
H81    H     0.74271   0.60930   0.47423   0.00000  Uiso   1.00
H82    H     0.32235   0.47683   0.79766   0.00000  Uiso   1.00
H83    H     0.44838   0.52458   0.43301   0.00000  Uiso   1.00
O84    O     0.66958   0.69862   0.47123   0.00000  Uiso   1.00
O85    O     0.43006   0.52482   0.89555   0.00000  Uiso   1.00
O86    O     0.59541   0.58748   0.41715   0.00000  Uiso   1.00
N87    N     0.86369   0.70724   0.52084   0.00000  Uiso   1.00
N88    N     0.40560   0.58339   0.82322   0.00000  Uiso   1.00
N89    N     0.52345   0.62803   0.48233   0.00000  Uiso   1.00
N90    N     0.79855   0.63542   0.49250   0.00000  Uiso   1.00
N91    N     0.34046   0.51157   0.79489   0.00000  Uiso   1.00
N92    N     0.45832   0.55621   0.45399   0.00000  Uiso   1.00
C93    C     0.23006   0.14589   0.88874   0.00000  Uiso   1.00
C94    C     0.35793   0.14524   0.92060   0.00000  Uiso   1.00
C95    C     0.42917   0.18471   0.93159   0.00000  Uiso   1.00
C96    C     0.54363   0.17667   0.96135   0.00000  Uiso   1.00
C97    C     0.73587   0.18265   0.00803   0.00000  Uiso   1.00
C98    C     0.20860   0.11111   0.83725   0.00000  Uiso   1.00
C99    C     0.15426   0.12188   0.77817   0.00000  Uiso   1.00
C100   C     0.14300   0.08510   0.73778   0.00000  Uiso   1.00
C101   C     0.10331   0.03808   0.65507   0.00000  Uiso   1.00
C102   C     0.17613   0.12342   0.93121   0.00000  Uiso   1.00
C103   C     0.09447   0.14453   0.95112   0.00000  Uiso   1.00
C104   C     0.05586   0.11811   0.98982   0.00000  Uiso   1.00
C105   C     0.96577   0.09020   0.05300   0.00000  Uiso   1.00
C106   C     0.30665   0.06142   0.92206   0.00000  Uiso   1.00
C107   C     0.39953   0.09936   0.93869   0.00000  Uiso   1.00
C108   C     0.51392   0.09126   0.96845   0.00000  Uiso   1.00
C109   C     0.58531   0.13071   0.97948   0.00000  Uiso   1.00
C110   C     0.25020   0.06523   0.85535   0.00000  Uiso   1.00
C111   C     0.23900   0.02843   0.81504   0.00000  Uiso   1.00
C112   C     0.18467   0.03914   0.75591   0.00000  Uiso   1.00
C113   C     0.21773   0.07754   0.94931   0.00000  Uiso   1.00
C114   C     0.17923   0.05108   0.98799   0.00000  Uiso   1.00
C115   C     0.09753   0.07215   0.00795   0.00000  Uiso   1.00
H116   H     0.19766   0.18160   0.87465   0.00000  Uiso   1.00
H117   H     0.39694   0.22021   0.91757   0.00000  Uiso   1.00
H118   H     0.12206   0.15739   0.76418   0.00000  Uiso   1.00
H119   H     0.06230   0.18003   0.93710   0.00000  Uiso   1.00
H120   H     0.63624   0.24278   0.97311   0.00000  Uiso   1.00
H121   H     0.05661   0.11031   0.64969   0.00000  Uiso   1.00
H122   H     0.93057   0.15806   0.01433   0.00000  Uiso   1.00
H123   H     0.33904   0.02570   0.93615   0.00000  Uiso   1.00
H124   H     0.54609   0.05575   0.98245   0.00000  Uiso   1.00
H125   H     0.27120   0.99293   0.82906   0.00000  Uiso   1.00
H126   H     0.21144   0.01558   0.00198   0.00000  Uiso   1.00
H127   H     0.75729   0.10930   0.02577   0.00000  Uiso   1.00
H128   H     0.17765   0.97683   0.70234   0.00000  Uiso   1.00
H129   H     0.05162   0.02458   0.06699   0.00000  Uiso   1.00
O130   O     0.83042   0.19862   0.02877   0.00000  Uiso   1.00
O131   O     0.06994   0.02482   0.60445   0.00000  Uiso   1.00
O132   O     0.90459   0.08748   0.08285   0.00000  Uiso   1.00
N133   N     0.63631   0.20724   0.97916   0.00000  Uiso   1.00
N134   N     0.09440   0.08339   0.67678   0.00000  Uiso   1.00
N135   N     0.97655   0.12803   0.01767   0.00000  Uiso   1.00
N136   N     0.70145   0.13542   0.00750   0.00000  Uiso   1.00
N137   N     0.15954   0.01157   0.70511   0.00000  Uiso   1.00
N138   N     0.04168   0.05621   0.04601   0.00000  Uiso   1.00
C139   C     0.73006   0.64589   0.88874   0.00000  Uiso   1.00
C140   C     0.85793   0.64524   0.92060   0.00000  Uiso   1.00
C141   C     0.92917   0.68471   0.93159   0.00000  Uiso   1.00
C142   C     0.04363   0.67667   0.96135   0.00000  Uiso   1.00
C143   C     0.23587   0.68265   0.00803   0.00000  Uiso   1.00
C144   C     0.70860   0.61111   0.83725   0.00000  Uiso   1.00
C145   C     0.65426   0.62188   0.77817   0.00000  Uiso   1.00
C146   C     0.64300   0.58510   0.73778   0.00000  Uiso   1.00
C147   C     0.60331   0.53808   0.65507   0.00000  Uiso   1.00
C148   C     0.67613   0.62342   0.93121   0.00000  Uiso   1.00
C149   C     0.59447   0.64453   0.95112   0.00000  Uiso   1.00
C150   C     0.55586   0.61811   0.98982   0.00000  Uiso   1.00
C151   C     0.46577   0.59020   0.05300   0.00000  Uiso   1.00
C152   C     0.80665   0.56142   0.92206   0.00000  Uiso   1.00
C153   C     0.89953   0.59936   0.93869   0.00000  Uiso   1.00
C154   C     0.01392   0.59126   0.96845   0.00000  Uiso   1.00
C155   C     0.08531   0.63071   0.97948   0.00000  Uiso   1.00
C156   C     0.75020   0.56523   0.85535   0.00000  Uiso   1.00
C157   C     0.73900   0.52843   0.81504   0.00000  Uiso   1.00
C158   C     0.68467   0.53914   0.75591   0.00000  Uiso   1.00
C159   C     0.71773   0.57754   0.94931   0.00000  Uiso   1.00
C160   C     0.67923   0.55108   0.98799   0.00000  Uiso   1.00
C161   C     0.59753   0.57215   0.00795   0.00000  Uiso   1.00
H162   H     0.69766   0.68160   0.87465   0.00000  Uiso   1.00
H163   H     0.89694   0.72021   0.91757   0.00000  Uiso   1.00
H164   H     0.62206   0.65739   0.76418   0.00000  Uiso   1.00
H165   H     0.56230   0.68003   0.93710   0.00000  Uiso   1.00
H166   H     0.13624   0.74278   0.97311   0.00000  Uiso   1.00
H167   H     0.55661   0.61031   0.64969   0.00000  Uiso   1.00
H168   H     0.43057   0.65806   0.01433   0.00000  Uiso   1.00
H169   H     0.83904   0.52570   0.93615   0.00000  Uiso   1.00
H170   H     0.04609   0.55575   0.98245   0.00000  Uiso   1.00
H171   H     0.77120   0.49293   0.82906   0.00000  Uiso   1.00
H172   H     0.71144   0.51558   0.00198   0.00000  Uiso   1.00
H173   H     0.25729   0.60930   0.02577   0.00000  Uiso   1.00
H174   H     0.67765   0.47683   0.70234   0.00000  Uiso   1.00
H175   H     0.55162   0.52458   0.06699   0.00000  Uiso   1.00
O176   O     0.33042   0.69862   0.02877   0.00000  Uiso   1.00
O177   O     0.56994   0.52482   0.60445   0.00000  Uiso   1.00
O178   O     0.40459   0.58748   0.08285   0.00000  Uiso   1.00
N179   N     0.13631   0.70724   0.97916   0.00000  Uiso   1.00
N180   N     0.59440   0.58339   0.67678   0.00000  Uiso   1.00
N181   N     0.47655   0.62803   0.01767   0.00000  Uiso   1.00
N182   N     0.20145   0.63542   0.00750   0.00000  Uiso   1.00
N183   N     0.65954   0.51157   0.70511   0.00000  Uiso   1.00
N184   N     0.54168   0.55621   0.04601   0.00000  Uiso   1.00
C185   C     0.23006   0.85411   0.38874   0.00000  Uiso   1.00
C186   C     0.35793   0.85476   0.42060   0.00000  Uiso   1.00
C187   C     0.42917   0.81529   0.43159   0.00000  Uiso   1.00
C188   C     0.54363   0.82333   0.46135   0.00000  Uiso   1.00
C189   C     0.73587   0.81735   0.50803   0.00000  Uiso   1.00
C190   C     0.20860   0.88889   0.33725   0.00000  Uiso   1.00
C191   C     0.15426   0.87812   0.27817   0.00000  Uiso   1.00
C192   C     0.14300   0.91490   0.23778   0.00000  Uiso   1.00
C193   C     0.10331   0.96192   0.15507   0.00000  Uiso   1.00
C194   C     0.17613   0.87658   0.43121   0.00000  Uiso   1.00
C195   C     0.09447   0.85547   0.45112   0.00000  Uiso   1.00
C196   C     0.05586   0.88189   0.48982   0.00000  Uiso   1.00
C197   C     0.96577   0.90980   0.55300   0.00000  Uiso   1.00
C198   C     0.30665   0.93858   0.42206   0.00000  Uiso   1.00
C199   C     0.39953   0.90064   0.43869   0.00000  Uiso   1.00
C200   C     0.51392   0.90874   0.46845   0.00000  Uiso   1.00
C201   C     0.58531   0.86929   0.47948   0.00000  Uiso   1.00
C202   C     0.25020   0.93477   0.35535   0.00000  Uiso   1.00
C203   C     0.23900   0.97157   0.31504   0.00000  Uiso   1.00
C204   C     0.18467   0.96086   0.25591   0.00000  Uiso   1.00
C205   C     0.21773   0.92246   0.44931   0.00000  Uiso   1.00
C206   C     0.17923   0.94892   0.48799   0.00000  Uiso   1.00
C207   C     0.09753   0.92785   0.50795   0.00000  Uiso   1.00
H208   H     0.19766   0.81840   0.37465   0.00000  Uiso   1.00
H209   H     0.39694   0.77979   0.41757   0.00000  Uiso   1.00
H210   H     0.12206   0.84261   0.26418   0.00000  Uiso   1.00
H211   H     0.06230   0.81997   0.43710   0.00000  Uiso   1.00
H212   H     0.63624   0.75722   0.47311   0.00000  Uiso   1.00
H213   H     0.05661   0.88969   0.14969   0.00000  Uiso   1.00
H214   H     0.93057   0.84194   0.51433   0.00000  Uiso   1.00
H215   H     0.33904   0.97430   0.43615   0.00000  Uiso   1.00
H216   H     0.54609   0.94425   0.48245   0.00000  Uiso   1.00
H217   H     0.27120   0.00707   0.32906   0.00000  Uiso   1.00
H218   H     0.21144   0.98442   0.50198   0.00000  Uiso   1.00
H219   H     0.75729   0.89070   0.52577   0.00000  Uiso   1.00
H220   H     0.17765   0.02317   0.20234   0.00000  Uiso   1.00
H221   H     0.05162   0.97542   0.56699   0.00000  Uiso   1.00
O222   O     0.83042   0.80138   0.52877   0.00000  Uiso   1.00
O223   O     0.06994   0.97518   0.10445   0.00000  Uiso   1.00
O224   O     0.90459   0.91252   0.58285   0.00000  Uiso   1.00
N225   N     0.63631   0.79276   0.47916   0.00000  Uiso   1.00
N226   N     0.09440   0.91661   0.17678   0.00000  Uiso   1.00
N227   N     0.97655   0.87197   0.51767   0.00000  Uiso   1.00
N228   N     0.70145   0.86458   0.50750   0.00000  Uiso   1.00
N229   N     0.15954   0.98843   0.20511   0.00000  Uiso   1.00
N230   N     0.04168   0.94379   0.54601   0.00000  Uiso   1.00
C231   C     0.73006   0.35411   0.38874   0.00000  Uiso   1.00
C232   C     0.85793   0.35476   0.42060   0.00000  Uiso   1.00
C233   C     0.92917   0.31529   0.43159   0.00000  Uiso   1.00
C234   C     0.04363   0.32333   0.46135   0.00000  Uiso   1.00
C235   C     0.23587   0.31735   0.50803   0.00000  Uiso   1.00
C236   C     0.70860   0.38889   0.33725   0.00000  Uiso   1.00
C237   C     0.65426   0.37812   0.27817   0.00000  Uiso   1.00
C238   C     0.64300   0.41490   0.23778   0.00000  Uiso   1.00
C239   C     0.60331   0.46192   0.15507   0.00000  Uiso   1.00
C240   C     0.67613   0.37658   0.43121   0.00000  Uiso   1.00
C241   C     0.59447   0.35547   0.45112   0.00000  Uiso   1.00
C242   C     0.55586   0.38189   0.48982   0.00000  Uiso   1.00
C243   C     0.46577   0.40980   0.55300   0.00000  Uiso   1.00
C244   C     0.80665   0.43858   0.42206   0.00000  Uiso   1.00
C245   C     0.89953   0.40064   0.43869   0.00000  Uiso   1.00
C246   C     0.01392   0.40874   0.46845   0.00000  Uiso   1.00
C247   C     0.08531   0.36929   0.47948   0.00000  Uiso   1.00
C248   C     0.75020   0.43477   0.35535   0.00000  Uiso   1.00
C249   C     0.73900   0.47157   0.31504   0.00000  Uiso   1.00
C250   C     0.68467   0.46086   0.25591   0.00000  Uiso   1.00
C251   C     0.71773   0.42246   0.44931   0.00000  Uiso   1.00
C252   C     0.67923   0.44892   0.48799   0.00000  Uiso   1.00
C253   C     0.59753   0.42785   0.50795   0.00000  Uiso   1.00
H254   H     0.69766   0.31840   0.37465   0.00000  Uiso   1.00
H255   H     0.89694   0.27979   0.41757   0.00000  Uiso   1.00
H256   H     0.62206   0.34261   0.26418   0.00000  Uiso   1.00
H257   H     0.56230   0.31997   0.43710   0.00000  Uiso   1.00
H258   H     0.13624   0.25722   0.47311   0.00000  Uiso   1.00
H259   H     0.55661   0.38969   0.14969   0.00000  Uiso   1.00
H260   H     0.43057   0.34194   0.51433   0.00000  Uiso   1.00
H261   H     0.83904   0.47430   0.43615   0.00000  Uiso   1.00
H262   H     0.04609   0.44425   0.48245   0.00000  Uiso   1.00
H263   H     0.77120   0.50707   0.32906   0.00000  Uiso   1.00
H264   H     0.71144   0.48442   0.50198   0.00000  Uiso   1.00
H265   H     0.25729   0.39070   0.52577   0.00000  Uiso   1.00
H266   H     0.67765   0.52317   0.20234   0.00000  Uiso   1.00
H267   H     0.55162   0.47542   0.56699   0.00000  Uiso   1.00
O268   O     0.33042   0.30138   0.52877   0.00000  Uiso   1.00
O269   O     0.56994   0.47518   0.10445   0.00000  Uiso   1.00
O270   O     0.40459   0.41252   0.58285   0.00000  Uiso   1.00
N271   N     0.13631   0.29276   0.47916   0.00000  Uiso   1.00
N272   N     0.59440   0.41661   0.17678   0.00000  Uiso   1.00
N273   N     0.47655   0.37197   0.51767   0.00000  Uiso   1.00
N274   N     0.20145   0.36458   0.50750   0.00000  Uiso   1.00
N275   N     0.65954   0.48843   0.20511   0.00000  Uiso   1.00
N276   N     0.54168   0.44379   0.54601   0.00000  Uiso   1.00
C277   C     0.76994   0.85411   0.11126   0.00000  Uiso   1.00
C278   C     0.64207   0.85476   0.07940   0.00000  Uiso   1.00
C279   C     0.57083   0.81529   0.06841   0.00000  Uiso   1.00
C280   C     0.45637   0.82333   0.03865   0.00000  Uiso   1.00
C281   C     0.26413   0.81735   0.99197   0.00000  Uiso   1.00
C282   C     0.79140   0.88889   0.16275   0.00000  Uiso   1.00
C283   C     0.84574   0.87812   0.22183   0.00000  Uiso   1.00
C284   C     0.85700   0.91490   0.26222   0.00000  Uiso   1.00
C285   C     0.89669   0.96192   0.34493   0.00000  Uiso   1.00
C286   C     0.82387   0.87658   0.06879   0.00000  Uiso   1.00
C287   C     0.90553   0.85547   0.04888   0.00000  Uiso   1.00
C288   C     0.94414   0.88189   0.01018   0.00000  Uiso   1.00
C289   C     0.03423   0.90980   0.94700   0.00000  Uiso   1.00
C290   C     0.69335   0.93858   0.07794   0.00000  Uiso   1.00
C291   C     0.60047   0.90064   0.06131   0.00000  Uiso   1.00
C292   C     0.48608   0.90874   0.03155   0.00000  Uiso   1.00
C293   C     0.41469   0.86929   0.02052   0.00000  Uiso   1.00
C294   C     0.74980   0.93477   0.14465   0.00000  Uiso   1.00
C295   C     0.76100   0.97157   0.18496   0.00000  Uiso   1.00
C296   C     0.81533   0.96086   0.24409   0.00000  Uiso   1.00
C297   C     0.78227   0.92246   0.05069   0.00000  Uiso   1.00
C298   C     0.82077   0.94892   0.01201   0.00000  Uiso   1.00
C299   C     0.90247   0.92785   0.99205   0.00000  Uiso   1.00
H300   H     0.80234   0.81840   0.12535   0.00000  Uiso   1.00
H301   H     0.60306   0.77979   0.08243   0.00000  Uiso   1.00
H302   H     0.87794   0.84261   0.23582   0.00000  Uiso   1.00
H303   H     0.93770   0.81997   0.06290   0.00000  Uiso   1.00
H304   H     0.36376   0.75722   0.02689   0.00000  Uiso   1.00
H305   H     0.94339   0.88969   0.35031   0.00000  Uiso   1.00
H306   H     0.06943   0.84194   0.98567   0.00000  Uiso   1.00
H307   H     0.66096   0.97430   0.06385   0.00000  Uiso   1.00
H308   H     0.45391   0.94425   0.01755   0.00000  Uiso   1.00
H309   H     0.72880   0.00707   0.17094   0.00000  Uiso   1.00
H310   H     0.78856   0.98442   0.99802   0.00000  Uiso   1.00
H311   H     0.24271   0.89070   0.97423   0.00000  Uiso   1.00
H312   H     0.82235   0.02317   0.29766   0.00000  Uiso   1.00
H313   H     0.94838   0.97542   0.93301   0.00000  Uiso   1.00
O314   O     0.16958   0.80138   0.97123   0.00000  Uiso   1.00
O315   O     0.93006   0.97518   0.39555   0.00000  Uiso   1.00
O316   O     0.09541   0.91252   0.91715   0.00000  Uiso   1.00
N317   N     0.36369   0.79276   0.02084   0.00000  Uiso   1.00
N318   N     0.90560   0.91661   0.32322   0.00000  Uiso   1.00
N319   N     0.02345   0.87197   0.98233   0.00000  Uiso   1.00
N320   N     0.29855   0.86458   0.99250   0.00000  Uiso   1.00
N321   N     0.84046   0.98843   0.29489   0.00000  Uiso   1.00
N322   N     0.95832   0.94379   0.95399   0.00000  Uiso   1.00
C323   C     0.26994   0.35411   0.11126   0.00000  Uiso   1.00
C324   C     0.14207   0.35476   0.07940   0.00000  Uiso   1.00
C325   C     0.07083   0.31529   0.06841   0.00000  Uiso   1.00
C326   C     0.95637   0.32333   0.03865   0.00000  Uiso   1.00
C327   C     0.76413   0.31735   0.99197   0.00000  Uiso   1.00
C328   C     0.29140   0.38889   0.16275   0.00000  Uiso   1.00
C329   C     0.34574   0.37812   0.22183   0.00000  Uiso   1.00
C330   C     0.35700   0.41490   0.26222   0.00000  Uiso   1.00
C331   C     0.39669   0.46192   0.34493   0.00000  Uiso   1.00
C332   C     0.32387   0.37658   0.06879   0.00000  Uiso   1.00
C333   C     0.40553   0.35547   0.04888   0.00000  Uiso   1.00
C334   C     0.44414   0.38189   0.01018   0.00000  Uiso   1.00
C335   C     0.53423   0.40980   0.94700   0.00000  Uiso   1.00
C336   C     0.19335   0.43858   0.07794   0.00000  Uiso   1.00
C337   C     0.10047   0.40064   0.06131   0.00000  Uiso   1.00
C338   C     0.98608   0.40874   0.03155   0.00000  Uiso   1.00
C339   C     0.91469   0.36929   0.02052   0.00000  Uiso   1.00
C340   C     0.24980   0.43477   0.14465   0.00000  Uiso   1.00
C341   C     0.26100   0.47157   0.18496   0.00000  Uiso   1.00
C342   C     0.31533   0.46086   0.24409   0.00000  Uiso   1.00
C343   C     0.28227   0.42246   0.05069   0.00000  Uiso   1.00
C344   C     0.32077   0.44892   0.01201   0.00000  Uiso   1.00
C345   C     0.40247   0.42785   0.99205   0.00000  Uiso   1.00
H346   H     0.30234   0.31840   0.12535   0.00000  Uiso   1.00
H347   H     0.10306   0.27979   0.08243   0.00000  Uiso   1.00
H348   H     0.37794   0.34261   0.23582   0.00000  Uiso   1.00
H349   H     0.43770   0.31997   0.06290   0.00000  Uiso   1.00
H350   H     0.86376   0.25722   0.02689   0.00000  Uiso   1.00
H351   H     0.44339   0.38969   0.35031   0.00000  Uiso   1.00
H352   H     0.56943   0.34194   0.98567   0.00000  Uiso   1.00
H353   H     0.16096   0.47430   0.06385   0.00000  Uiso   1.00
H354   H     0.95391   0.44425   0.01755   0.00000  Uiso   1.00
H355   H     0.22880   0.50707   0.17094   0.00000  Uiso   1.00
H356   H     0.28856   0.48442   0.99802   0.00000  Uiso   1.00
H357   H     0.74271   0.39070   0.97423   0.00000  Uiso   1.00
H358   H     0.32235   0.52317   0.29766   0.00000  Uiso   1.00
H359   H     0.44838   0.47542   0.93301   0.00000  Uiso   1.00
O360   O     0.66958   0.30138   0.97123   0.00000  Uiso   1.00
O361   O     0.43006   0.47518   0.39555   0.00000  Uiso   1.00
O362   O     0.59541   0.41252   0.91715   0.00000  Uiso   1.00
N363   N     0.86369   0.29276   0.02084   0.00000  Uiso   1.00
N364   N     0.40560   0.41661   0.32322   0.00000  Uiso   1.00
N365   N     0.52345   0.37197   0.98233   0.00000  Uiso   1.00
N366   N     0.79855   0.36458   0.99250   0.00000  Uiso   1.00
N367   N     0.34046   0.48843   0.29489   0.00000  Uiso   1.00
N368   N     0.45832   0.44379   0.95399   0.00000  Uiso   1.00
