data_job_06751
_audit_creation_date              2018-12-19
_audit_creation_method            'Materials Studio'
_symmetry_space_group_name_H-M    'P1'
_symmetry_Int_Tables_number       1
_symmetry_cell_setting            triclinic
loop_
_symmetry_equiv_pos_as_xyz
  x,y,z
_cell_length_a                    19.5387
_cell_length_b                    22.2236
_cell_length_c                    22.9957
_cell_angle_alpha                 68.5566
_cell_angle_beta                  70.6591
_cell_angle_gamma                 68.6871
loop_
_atom_site_label
_atom_site_type_symbol
_atom_site_fract_x
_atom_site_fract_y
_atom_site_fract_z
_atom_site_U_iso_or_equiv
_atom_site_adp_type
_atom_site_occupancy
C1     C     0.57089   0.06684   0.86982   0.00000  Uiso   1.00
C2     C     0.48512   0.09395   0.88516   0.00000  Uiso   1.00
C3     C     0.43988   0.10389   0.94363   0.00000  Uiso   1.00
C4     C     0.36264   0.12912   0.94801   0.00000  Uiso   1.00
C5     C     0.23416   0.16895   0.97979   0.00000  Uiso   1.00
C6     C     0.58867   0.00547   0.84673   0.00000  Uiso   1.00
C7     C     0.63049   0.94101   0.87288   0.00000  Uiso   1.00
C8     C     0.64042   0.89175   0.84490   0.00000  Uiso   1.00
C9     C     0.67273   0.79422   0.81699   0.00000  Uiso   1.00
C10    C     0.60000   0.11968   0.81164   0.00000  Uiso   1.00
C11    C     0.65138   0.15124   0.80828   0.00000  Uiso   1.00
C12    C     0.67086   0.19813   0.75075   0.00000  Uiso   1.00
C13    C     0.72078   0.27792   0.66836   0.00000  Uiso   1.00
C14    C     0.51417   0.09397   0.77362   0.00000  Uiso   1.00
C15    C     0.45432   0.10869   0.83291   0.00000  Uiso   1.00
C16    C     0.37713   0.13392   0.83720   0.00000  Uiso   1.00
C17    C     0.33178   0.14389   0.89567   0.00000  Uiso   1.00
C18    C     0.55786   0.02021   0.79448   0.00000  Uiso   1.00
C19    C     0.56773   0.97104   0.76645   0.00000  Uiso   1.00
C20    C     0.60956   0.90652   0.79256   0.00000  Uiso   1.00
C21    C     0.56920   0.13442   0.75939   0.00000  Uiso   1.00
C22    C     0.58862   0.18126   0.70185   0.00000  Uiso   1.00
C23    C     0.64000   0.21289   0.69841   0.00000  Uiso   1.00
H24    H     0.59487   0.05536   0.91049   0.00000  Uiso   1.00
H25    H     0.46374   0.09247   0.98406   0.00000  Uiso   1.00
H26    H     0.65433   0.92962   0.91331   0.00000  Uiso   1.00
H27    H     0.67520   0.13982   0.84872   0.00000  Uiso   1.00
H28    H     0.30477   0.14010   0.04258   0.00000  Uiso   1.00
H29    H     0.70665   0.79672   0.89340   0.00000  Uiso   1.00
H30    H     0.75068   0.23996   0.75719   0.00000  Uiso   1.00
H31    H     0.49018   0.10545   0.73294   0.00000  Uiso   1.00
H32    H     0.35330   0.14532   0.79676   0.00000  Uiso   1.00
H33    H     0.54389   0.98246   0.72602   0.00000  Uiso   1.00
H34    H     0.56476   0.19266   0.66143   0.00000  Uiso   1.00
H35    H     0.21513   0.18299   0.89056   0.00000  Uiso   1.00
H36    H     0.61702   0.83961   0.74138   0.00000  Uiso   1.00
H37    H     0.66104   0.28285   0.60518   0.00000  Uiso   1.00
O38    O     0.17179   0.18684   0.01176   0.00000  Uiso   1.00
O39    O     0.69906   0.73635   0.81604   0.00000  Uiso   1.00
O40    O     0.75681   0.31787   0.63734   0.00000  Uiso   1.00
N41    N     0.30246   0.14473   0.99804   0.00000  Uiso   1.00
N42    N     0.67818   0.82369   0.85857   0.00000  Uiso   1.00
N43    N     0.71936   0.23807   0.73123   0.00000  Uiso   1.00
N44    N     0.25423   0.16781   0.91624   0.00000  Uiso   1.00
N45    N     0.62995   0.84677   0.77677   0.00000  Uiso   1.00
N46    N     0.67113   0.26115   0.64943   0.00000  Uiso   1.00
C47    C     0.10428   0.44828   0.92001   0.00000  Uiso   1.00
C48    C     0.14106   0.45365   0.96630   0.00000  Uiso   1.00
C49    C     0.16956   0.40100   0.01527   0.00000  Uiso   1.00
C50    C     0.20097   0.41624   0.05236   0.00000  Uiso   1.00
C51    C     0.25762   0.41461   0.12601   0.00000  Uiso   1.00
C52    C     0.02625   0.49846   0.92643   0.00000  Uiso   1.00
C53    C     0.95822   0.48348   0.94187   0.00000  Uiso   1.00
C54    C     0.89297   0.53644   0.94539   0.00000  Uiso   1.00
C55    C     0.77138   0.60439   0.95710   0.00000  Uiso   1.00
C56    C     0.14902   0.47545   0.85277   0.00000  Uiso   1.00
C57    C     0.18420   0.44113   0.80626   0.00000  Uiso   1.00
C58    C     0.22230   0.47473   0.74776   0.00000  Uiso   1.00
C59    C     0.29133   0.50695   0.64510   0.00000  Uiso   1.00
C60    C     0.10936   0.56898   0.89880   0.00000  Uiso   1.00
C61    C     0.14382   0.51921   0.95477   0.00000  Uiso   1.00
C62    C     0.17519   0.53454   0.99180   0.00000  Uiso   1.00
C63    C     0.20373   0.48191   0.04082   0.00000  Uiso   1.00
C64    C     0.02900   0.56402   0.91491   0.00000  Uiso   1.00
C65    C     0.96384   0.61702   0.91840   0.00000  Uiso   1.00
C66    C     0.89574   0.60212   0.93385   0.00000  Uiso   1.00
C67    C     0.15178   0.54101   0.84124   0.00000  Uiso   1.00
C68    C     0.18982   0.57467   0.78280   0.00000  Uiso   1.00
C69    C     0.22506   0.54041   0.73622   0.00000  Uiso   1.00
H70    H     0.10213   0.39725   0.92898   0.00000  Uiso   1.00
H71    H     0.16741   0.35027   0.02417   0.00000  Uiso   1.00
H72    H     0.95610   0.43274   0.95078   0.00000  Uiso   1.00
H73    H     0.18205   0.39040   0.81520   0.00000  Uiso   1.00
H74    H     0.24098   0.32710   0.12465   0.00000  Uiso   1.00
H75    H     0.79543   0.50101   0.96987   0.00000  Uiso   1.00
H76    H     0.27188   0.41173   0.68397   0.00000  Uiso   1.00
H77    H     0.11151   0.62003   0.88983   0.00000  Uiso   1.00
H78    H     0.17731   0.58527   0.98287   0.00000  Uiso   1.00
H79    H     0.96600   0.66774   0.90948   0.00000  Uiso   1.00
H80    H     0.19195   0.62541   0.77390   0.00000  Uiso   1.00
H81    H     0.24901   0.51784   0.09113   0.00000  Uiso   1.00
H82    H     0.80346   0.69174   0.93635   0.00000  Uiso   1.00
H83    H     0.27991   0.60246   0.65045   0.00000  Uiso   1.00
O84    O     0.28809   0.39560   0.16982   0.00000  Uiso   1.00
O85    O     0.70354   0.62375   0.96675   0.00000  Uiso   1.00
O86    O     0.32864   0.50661   0.59165   0.00000  Uiso   1.00
N87    N     0.23386   0.37676   0.10398   0.00000  Uiso   1.00
N88    N     0.81729   0.53935   0.95929   0.00000  Uiso   1.00
N89    N     0.26272   0.45588   0.69198   0.00000  Uiso   1.00
N90    N     0.23818   0.47940   0.08595   0.00000  Uiso   1.00
N91    N     0.82161   0.64198   0.94125   0.00000  Uiso   1.00
N92    N     0.26704   0.55852   0.67395   0.00000  Uiso   1.00
C93    C     0.41488   0.56201   0.84344   0.00000  Uiso   1.00
C94    C     0.42890   0.48665   0.87593   0.00000  Uiso   1.00
C95    C     0.37376   0.45270   0.90669   0.00000  Uiso   1.00
C96    C     0.39812   0.38375   0.93341   0.00000  Uiso   1.00
C97    C     0.40822   0.27186   0.98450   0.00000  Uiso   1.00
C98    C     0.45185   0.58770   0.87502   0.00000  Uiso   1.00
C99    C     0.41600   0.63871   0.90501   0.00000  Uiso   1.00
C100   C     0.45968   0.65482   0.93096   0.00000  Uiso   1.00
C101   C     0.50541   0.69985   0.98059   0.00000  Uiso   1.00
C102   C     0.46071   0.56914   0.77440   0.00000  Uiso   1.00
C103   C     0.43232   0.60457   0.71977   0.00000  Uiso   1.00
C104   C     0.48346   0.60506   0.66100   0.00000  Uiso   1.00
C105   C     0.54296   0.62127   0.55439   0.00000  Uiso   1.00
C106   C     0.55617   0.49991   0.83618   0.00000  Uiso   1.00
C107   C     0.50565   0.45292   0.87199   0.00000  Uiso   1.00
C108   C     0.53009   0.38400   0.89867   0.00000  Uiso   1.00
C109   C     0.47500   0.34995   0.92947   0.00000  Uiso   1.00
C110   C     0.52859   0.55397   0.87108   0.00000  Uiso   1.00
C111   C     0.57233   0.57001   0.89699   0.00000  Uiso   1.00
C112   C     0.53656   0.62103   0.92701   0.00000  Uiso   1.00
C113   C     0.53745   0.53541   0.77045   0.00000  Uiso   1.00
C114   C     0.58865   0.53585   0.71175   0.00000  Uiso   1.00
C115   C     0.56035   0.57127   0.65705   0.00000  Uiso   1.00
H116   H     0.35513   0.58828   0.84651   0.00000  Uiso   1.00
H117   H     0.31438   0.47883   0.90974   0.00000  Uiso   1.00
H118   H     0.35661   0.66481   0.90805   0.00000  Uiso   1.00
H119   H     0.37293   0.63066   0.72284   0.00000  Uiso   1.00
H120   H     0.30304   0.34261   0.97812   0.00000  Uiso   1.00
H121   H     0.39210   0.73478   0.97454   0.00000  Uiso   1.00
H122   H     0.42651   0.66278   0.58400   0.00000  Uiso   1.00
H123   H     0.61592   0.47365   0.83312   0.00000  Uiso   1.00
H124   H     0.58948   0.35791   0.89561   0.00000  Uiso   1.00
H125   H     0.63172   0.54389   0.89393   0.00000  Uiso   1.00
H126   H     0.64803   0.50974   0.70872   0.00000  Uiso   1.00
H127   H     0.52633   0.24447   0.96666   0.00000  Uiso   1.00
H128   H     0.61539   0.63665   0.96308   0.00000  Uiso   1.00
H129   H     0.64980   0.56463   0.57254   0.00000  Uiso   1.00
O130   O     0.39258   0.21947   0.01377   0.00000  Uiso   1.00
O131   O     0.50943   0.73400   0.00906   0.00000  Uiso   1.00
O132   O     0.55457   0.63952   0.49668   0.00000  Uiso   1.00
N133   N     0.35922   0.33539   0.96684   0.00000  Uiso   1.00
N134   N     0.44249   0.70205   0.96350   0.00000  Uiso   1.00
N135   N     0.47466   0.63474   0.59837   0.00000  Uiso   1.00
N136   N     0.47937   0.28259   0.96067   0.00000  Uiso   1.00
N137   N     0.56263   0.64924   0.95734   0.00000  Uiso   1.00
N138   N     0.59480   0.58193   0.59221   0.00000  Uiso   1.00
C139   C     0.04053   0.96730   0.33248   0.00000  Uiso   1.00
C140   C     0.97192   0.02627   0.34396   0.00000  Uiso   1.00
C141   C     0.90800   0.02263   0.39344   0.00000  Uiso   1.00
C142   C     0.85143   0.08225   0.39565   0.00000  Uiso   1.00
C143   C     0.74383   0.16454   0.42044   0.00000  Uiso   1.00
C144   C     0.10834   0.98651   0.33160   0.00000  Uiso   1.00
C145   C     0.15912   0.94943   0.37069   0.00000  Uiso   1.00
C146   C     0.21738   0.97559   0.36249   0.00000  Uiso   1.00
C147   C     0.32160   0.99612   0.36808   0.00000  Uiso   1.00
C148   C     0.05036   0.96613   0.26426   0.00000  Uiso   1.00
C149   C     0.05241   0.91191   0.24671   0.00000  Uiso   1.00
C150   C     0.06187   0.92089   0.18181   0.00000  Uiso   1.00
C151   C     0.07607   0.90978   0.08282   0.00000  Uiso   1.00
C152   C     0.05371   0.07967   0.24840   0.00000  Uiso   1.00
C153   C     0.97909   0.08730   0.29829   0.00000  Uiso   1.00
C154   C     0.92259   0.14695   0.30042   0.00000  Uiso   1.00
C155   C     0.85860   0.14340   0.34990   0.00000  Uiso   1.00
C156   C     0.11550   0.04754   0.28594   0.00000  Uiso   1.00
C157   C     0.17370   0.07375   0.27768   0.00000  Uiso   1.00
C158   C     0.22455   0.03673   0.31675   0.00000  Uiso   1.00
C159   C     0.05752   0.02716   0.21859   0.00000  Uiso   1.00
C160   C     0.06699   0.03623   0.15370   0.00000  Uiso   1.00
C161   C     0.06905   0.98203   0.13606   0.00000  Uiso   1.00
H162   H     0.03495   0.91979   0.36803   0.00000  Uiso   1.00
H163   H     0.90249   0.97539   0.42877   0.00000  Uiso   1.00
H164   H     0.15356   0.90220   0.40602   0.00000  Uiso   1.00
H165   H     0.04686   0.86469   0.28206   0.00000  Uiso   1.00
H166   H     0.75879   0.06395   0.47599   0.00000  Uiso   1.00
H167   H     0.28821   0.90962   0.42801   0.00000  Uiso   1.00
H168   H     0.06322   0.83051   0.16662   0.00000  Uiso   1.00
H169   H     0.05929   0.12719   0.21285   0.00000  Uiso   1.00
H170   H     0.92815   0.19417   0.26508   0.00000  Uiso   1.00
H171   H     0.17923   0.12098   0.24233   0.00000  Uiso   1.00
H172   H     0.07253   0.08347   0.11838   0.00000  Uiso   1.00
H173   H     0.77963   0.24153   0.34314   0.00000  Uiso   1.00
H174   H     0.30905   0.08719   0.29516   0.00000  Uiso   1.00
H175   H     0.08405   0.00808   0.03376   0.00000  Uiso   1.00
O176   O     0.68251   0.19307   0.44673   0.00000  Uiso   1.00
O177   O     0.37710   0.99058   0.38378   0.00000  Uiso   1.00
O178   O     0.08191   0.88679   0.04084   0.00000  Uiso   1.00
N179   N     0.78168   0.09655   0.43755   0.00000  Uiso   1.00
N180   N     0.27665   0.95227   0.39270   0.00000  Uiso   1.00
N181   N     0.06632   0.87829   0.14832   0.00000  Uiso   1.00
N182   N     0.79290   0.19210   0.36606   0.00000  Uiso   1.00
N183   N     0.28786   0.04782   0.32121   0.00000  Uiso   1.00
N184   N     0.07753   0.97384   0.07683   0.00000  Uiso   1.00
C185   C     0.75103   0.98131   0.34220   0.00000  Uiso   1.00
C186   C     0.76392   0.90595   0.35619   0.00000  Uiso   1.00
C187   C     0.80509   0.85559   0.39881   0.00000  Uiso   1.00
C188   C     0.81024   0.78970   0.40480   0.00000  Uiso   1.00
C189   C     0.83552   0.67494   0.43192   0.00000  Uiso   1.00
C190   C     0.66570   0.01185   0.35586   0.00000  Uiso   1.00
C191   C     0.62429   0.05054   0.39820   0.00000  Uiso   1.00
C192   C     0.54676   0.07380   0.40391   0.00000  Uiso   1.00
C193   C     0.41956   0.12350   0.43049   0.00000  Uiso   1.00
C194   C     0.77956   0.00733   0.26993   0.00000  Uiso   1.00
C195   C     0.83388   0.04224   0.24001   0.00000  Uiso   1.00
C196   C     0.85221   0.06172   0.17338   0.00000  Uiso   1.00
C197   C     0.90179   0.10440   0.06654   0.00000  Uiso   1.00
C198   C     0.68697   0.95386   0.27707   0.00000  Uiso   1.00
C199   C     0.72912   0.89104   0.32081   0.00000  Uiso   1.00
C200   C     0.73422   0.82521   0.32674   0.00000  Uiso   1.00
C201   C     0.77539   0.77476   0.36936   0.00000  Uiso   1.00
C202   C     0.63090   0.99694   0.32049   0.00000  Uiso   1.00
C203   C     0.55342   0.02015   0.32613   0.00000  Uiso   1.00
C204   C     0.51190   0.05886   0.36847   0.00000  Uiso   1.00
C205   C     0.74477   0.99242   0.23455   0.00000  Uiso   1.00
C206   C     0.76301   0.01185   0.16795   0.00000  Uiso   1.00
C207   C     0.81735   0.04678   0.13794   0.00000  Uiso   1.00
H208   H     0.77811   0.99293   0.36975   0.00000  Uiso   1.00
H209   H     0.83200   0.86715   0.42618   0.00000  Uiso   1.00
H210   H     0.65123   0.06207   0.42556   0.00000  Uiso   1.00
H211   H     0.86079   0.05377   0.26741   0.00000  Uiso   1.00
H212   H     0.87638   0.72112   0.47316   0.00000  Uiso   1.00
H213   H     0.49522   0.13215   0.47185   0.00000  Uiso   1.00
H214   H     0.93712   0.11465   0.13834   0.00000  Uiso   1.00
H215   H     0.65988   0.94225   0.24953   0.00000  Uiso   1.00
H216   H     0.70729   0.81368   0.29936   0.00000  Uiso   1.00
H217   H     0.52651   0.00861   0.29875   0.00000  Uiso   1.00
H218   H     0.73607   0.00030   0.14059   0.00000  Uiso   1.00
H219   H     0.77515   0.67772   0.37023   0.00000  Uiso   1.00
H220   H     0.39399   0.08876   0.36891   0.00000  Uiso   1.00
H221   H     0.83589   0.07125   0.03541   0.00000  Uiso   1.00
O222   O     0.85907   0.61577   0.45666   0.00000  Uiso   1.00
O223   O     0.35900   0.15503   0.45493   0.00000  Uiso   1.00
O224   O     0.93876   0.13206   0.01738   0.00000  Uiso   1.00
N225   N     0.84607   0.72855   0.44209   0.00000  Uiso   1.00
N226   N     0.48970   0.11283   0.44087   0.00000  Uiso   1.00
N227   N     0.90283   0.09648   0.12906   0.00000  Uiso   1.00
N228   N     0.79160   0.70520   0.38670   0.00000  Uiso   1.00
N229   N     0.43523   0.08948   0.38548   0.00000  Uiso   1.00
N230   N     0.84836   0.07313   0.07368   0.00000  Uiso   1.00
C231   C     0.06690   0.47961   0.40682   0.00000  Uiso   1.00
C232   C     0.09510   0.50300   0.44702   0.00000  Uiso   1.00
C233   C     0.05002   0.53803   0.49173   0.00000  Uiso   1.00
C234   C     0.08666   0.55482   0.52355   0.00000  Uiso   1.00
C235   C     0.11845   0.59379   0.58790   0.00000  Uiso   1.00
C236   C     0.10246   0.40381   0.42066   0.00000  Uiso   1.00
C237   C     0.06358   0.35546   0.44320   0.00000  Uiso   1.00
C238   C     0.10642   0.28876   0.45281   0.00000  Uiso   1.00
C239   C     0.14965   0.17374   0.47619   0.00000  Uiso   1.00
C240   C     0.10264   0.50977   0.33700   0.00000  Uiso   1.00
C241   C     0.06391   0.55049   0.28919   0.00000  Uiso   1.00
C242   C     0.10691   0.57299   0.22837   0.00000  Uiso   1.00
C243   C     0.15041   0.62249   0.12186   0.00000  Uiso   1.00
C244   C     0.21211   0.44715   0.38381   0.00000  Uiso   1.00
C245   C     0.17397   0.48536   0.43452   0.00000  Uiso   1.00
C246   C     0.21069   0.50211   0.46627   0.00000  Uiso   1.00
C247   C     0.16568   0.53716   0.51102   0.00000  Uiso   1.00
C248   C     0.18134   0.38618   0.40816   0.00000  Uiso   1.00
C249   C     0.22425   0.31954   0.41774   0.00000  Uiso   1.00
C250   C     0.18544   0.27109   0.44029   0.00000  Uiso   1.00
C251   C     0.18152   0.49214   0.32450   0.00000  Uiso   1.00
C252   C     0.22458   0.51457   0.26374   0.00000  Uiso   1.00
C253   C     0.18593   0.55532   0.21585   0.00000  Uiso   1.00
H254   H     0.00549   0.49334   0.41655   0.00000  Uiso   1.00
H255   H     0.98898   0.55166   0.50140   0.00000  Uiso   1.00
H256   H     0.00254   0.36912   0.45286   0.00000  Uiso   1.00
H257   H     0.00288   0.56412   0.29888   0.00000  Uiso   1.00
H258   H     0.00547   0.60853   0.58997   0.00000  Uiso   1.00
H259   H     0.03406   0.22362   0.48761   0.00000  Uiso   1.00
H260   H     0.03476   0.63483   0.16292   0.00000  Uiso   1.00
H261   H     0.27352   0.43341   0.37407   0.00000  Uiso   1.00
H262   H     0.27173   0.48846   0.45659   0.00000  Uiso   1.00
H263   H     0.28528   0.30591   0.40806   0.00000  Uiso   1.00
H264   H     0.28562   0.50092   0.25408   0.00000  Uiso   1.00
H265   H     0.23495   0.55722   0.55361   0.00000  Uiso   1.00
H266   H     0.26355   0.17232   0.45125   0.00000  Uiso   1.00
H267   H     0.26425   0.58353   0.12656   0.00000  Uiso   1.00
O268   O     0.11419   0.62014   0.62686   0.00000  Uiso   1.00
O269   O     0.15171   0.11517   0.49255   0.00000  Uiso   1.00
O270   O     0.15262   0.65467   0.06656   0.00000  Uiso   1.00
N271   N     0.05973   0.58891   0.57008   0.00000  Uiso   1.00
N272   N     0.08646   0.22905   0.47439   0.00000  Uiso   1.00
N273   N     0.08711   0.61348   0.17082   0.00000  Uiso   1.00
N274   N     0.18321   0.56131   0.55051   0.00000  Uiso   1.00
N275   N     0.20994   0.20144   0.45482   0.00000  Uiso   1.00
N276   N     0.21060   0.58587   0.15126   0.00000  Uiso   1.00
C277   C     0.39916   0.88931   0.19226   0.00000  Uiso   1.00
C278   C     0.47841   0.86825   0.15159   0.00000  Uiso   1.00
C279   C     0.49840   0.83561   0.10475   0.00000  Uiso   1.00
C280   C     0.57386   0.82070   0.07287   0.00000  Uiso   1.00
C281   C     0.68878   0.78542   0.00749   0.00000  Uiso   1.00
C282   C     0.38121   0.96480   0.18150   0.00000  Uiso   1.00
C283   C     0.31948   0.01333   0.15982   0.00000  Uiso   1.00
C284   C     0.31312   0.07969   0.15313   0.00000  Uiso   1.00
C285   C     0.27711   0.19431   0.13424   0.00000  Uiso   1.00
C286   C     0.40532   0.85651   0.26197   0.00000  Uiso   1.00
C287   C     0.36385   0.81400   0.30795   0.00000  Uiso   1.00
C288   C     0.37777   0.78919   0.36902   0.00000  Uiso   1.00
C289   C     0.37919   0.73567   0.47506   0.00000  Uiso   1.00
C290   C     0.49762   0.92088   0.21894   0.00000  Uiso   1.00
C291   C     0.53189   0.88540   0.16608   0.00000  Uiso   1.00
C292   C     0.60734   0.87053   0.13427   0.00000  Uiso   1.00
C293   C     0.62744   0.83787   0.08739   0.00000  Uiso   1.00
C294   C     0.43469   0.98195   0.19600   0.00000  Uiso   1.00
C295   C     0.42842   0.04826   0.18934   0.00000  Uiso   1.00
C296   C     0.36669   0.09687   0.16765   0.00000  Uiso   1.00
C297   C     0.45880   0.87366   0.27646   0.00000  Uiso   1.00
C298   C     0.47279   0.84892   0.33747   0.00000  Uiso   1.00
C299   C     0.43135   0.80637   0.38354   0.00000  Uiso   1.00
H300   H     0.35752   0.87596   0.18098   0.00000  Uiso   1.00
H301   H     0.45699   0.82235   0.09354   0.00000  Uiso   1.00
H302   H     0.27810   0.00005   0.14862   0.00000  Uiso   1.00
H303   H     0.32247   0.80074   0.29672   0.00000  Uiso   1.00
H304   H     0.59086   0.77050   0.00298   0.00000  Uiso   1.00
H305   H     0.21364   0.14517   0.11912   0.00000  Uiso   1.00
H306   H     0.30719   0.72489   0.43144   0.00000  Uiso   1.00
H307   H     0.53926   0.93423   0.23023   0.00000  Uiso   1.00
H308   H     0.64871   0.88381   0.14550   0.00000  Uiso   1.00
H309   H     0.46981   0.06151   0.20057   0.00000  Uiso   1.00
H310   H     0.51418   0.86220   0.34867   0.00000  Uiso   1.00
H311   H     0.74647   0.82038   0.04515   0.00000  Uiso   1.00
H312   H     0.36924   0.19506   0.16129   0.00000  Uiso   1.00
H313   H     0.46279   0.77478   0.47360   0.00000  Uiso   1.00
O314   O     0.73739   0.76124   0.96742   0.00000  Uiso   1.00
O315   O     0.24247   0.25280   0.11981   0.00000  Uiso   1.00
O316   O     0.36521   0.70140   0.52955   0.00000  Uiso   1.00
N317   N     0.61247   0.78914   0.02454   0.00000  Uiso   1.00
N318   N     0.25979   0.13945   0.13312   0.00000  Uiso   1.00
N319   N     0.34724   0.74654   0.42511   0.00000  Uiso   1.00
N320   N     0.69620   0.81599   0.04723   0.00000  Uiso   1.00
N321   N     0.34352   0.16629   0.15581   0.00000  Uiso   1.00
N322   N     0.43097   0.77338   0.44780   0.00000  Uiso   1.00
C323   C     0.96254   0.43026   0.27591   0.00000  Uiso   1.00
C324   C     0.91809   0.41617   0.24126   0.00000  Uiso   1.00
C325   C     0.89821   0.45688   0.18380   0.00000  Uiso   1.00
C326   C     0.85752   0.43517   0.15994   0.00000  Uiso   1.00
C327   C     0.79158   0.42245   0.10118   0.00000  Uiso   1.00
C328   C     0.03085   0.36910   0.28424   0.00000  Uiso   1.00
C329   C     0.10576   0.37023   0.26291   0.00000  Uiso   1.00
C330   C     0.15999   0.30889   0.27524   0.00000  Uiso   1.00
C331   C     0.26910   0.22310   0.28324   0.00000  Uiso   1.00
C332   C     0.91341   0.42946   0.34321   0.00000  Uiso   1.00
C333   C     0.88959   0.48134   0.37148   0.00000  Uiso   1.00
C334   C     0.84496   0.47081   0.43346   0.00000  Uiso   1.00
C335   C     0.77173   0.47873   0.53303   0.00000  Uiso   1.00
C336   C     0.92564   0.31930   0.33571   0.00000  Uiso   1.00
C337   C     0.89805   0.35591   0.27375   0.00000  Uiso   1.00
C338   C     0.85737   0.33412   0.24997   0.00000  Uiso   1.00
C339   C     0.83743   0.37479   0.19248   0.00000  Uiso   1.00
C340   C     0.01080   0.30884   0.31672   0.00000  Uiso   1.00
C341   C     0.06493   0.24748   0.32908   0.00000  Uiso   1.00
C342   C     0.13991   0.24852   0.30778   0.00000  Uiso   1.00
C343   C     0.89336   0.36919   0.37569   0.00000  Uiso   1.00
C344   C     0.84876   0.35858   0.43764   0.00000  Uiso   1.00
C345   C     0.82488   0.41043   0.46600   0.00000  Uiso   1.00
H346   H     0.97815   0.47717   0.25062   0.00000  Uiso   1.00
H347   H     0.91374   0.50351   0.15868   0.00000  Uiso   1.00
H348   H     0.12126   0.41688   0.23778   0.00000  Uiso   1.00
H349   H     0.90512   0.52796   0.34633   0.00000  Uiso   1.00
H350   H     0.83350   0.50613   0.07105   0.00000  Uiso   1.00
H351   H     0.27107   0.32346   0.23787   0.00000  Uiso   1.00
H352   H     0.81530   0.55770   0.46677   0.00000  Uiso   1.00
H353   H     0.91003   0.27238   0.36100   0.00000  Uiso   1.00
H354   H     0.84187   0.28748   0.27511   0.00000  Uiso   1.00
H355   H     0.04940   0.20085   0.35422   0.00000  Uiso   1.00
H356   H     0.83326   0.31194   0.46277   0.00000  Uiso   1.00
H357   H     0.77517   0.33079   0.16555   0.00000  Uiso   1.00
H358   H     0.21275   0.14812   0.33238   0.00000  Uiso   1.00
H359   H     0.75698   0.38236   0.56127   0.00000  Uiso   1.00
O360   O     0.76075   0.43207   0.05980   0.00000  Uiso   1.00
O361   O     0.33483   0.19243   0.27867   0.00000  Uiso   1.00
O362   O     0.73687   0.49975   0.57897   0.00000  Uiso   1.00
N363   N     0.82911   0.46279   0.10509   0.00000  Uiso   1.00
N364   N     0.23822   0.29201   0.26104   0.00000  Uiso   1.00
N365   N     0.81213   0.51100   0.47505   0.00000  Uiso   1.00
N366   N     0.79773   0.36845   0.15594   0.00000  Uiso   1.00
N367   N     0.20683   0.19766   0.31189   0.00000  Uiso   1.00
N368   N     0.78074   0.41665   0.52590   0.00000  Uiso   1.00
C369   C     0.56494   0.44173   0.22851   0.00000  Uiso   1.00
C370   C     0.50235   0.50772   0.22234   0.00000  Uiso   1.00
C371   C     0.50876   0.56882   0.17800   0.00000  Uiso   1.00
C372   C     0.44498   0.62331   0.18014   0.00000  Uiso   1.00
C373   C     0.35807   0.72674   0.16370   0.00000  Uiso   1.00
C374   C     0.53393   0.39114   0.22219   0.00000  Uiso   1.00
C375   C     0.56691   0.35422   0.17774   0.00000  Uiso   1.00
C376   C     0.52973   0.31058   0.17976   0.00000  Uiso   1.00
C377   C     0.49189   0.23298   0.16312   0.00000  Uiso   1.00
C378   C     0.57313   0.41820   0.29763   0.00000  Uiso   1.00
C379   C     0.63906   0.40401   0.31661   0.00000  Uiso   1.00
C380   C     0.63489   0.38313   0.38215   0.00000  Uiso   1.00
C381   C     0.65791   0.34755   0.48265   0.00000  Uiso   1.00
C382   C     0.44029   0.42985   0.31115   0.00000  Uiso   1.00
C383   C     0.43464   0.50126   0.26723   0.00000  Uiso   1.00
C384   C     0.37084   0.55568   0.26943   0.00000  Uiso   1.00
C385   C     0.37716   0.61685   0.22510   0.00000  Uiso   1.00
C386   C     0.46623   0.38469   0.26708   0.00000  Uiso   1.00
C387   C     0.42899   0.34108   0.26917   0.00000  Uiso   1.00
C388   C     0.46190   0.30411   0.22472   0.00000  Uiso   1.00
C389   C     0.50542   0.41175   0.34252   0.00000  Uiso   1.00
C390   C     0.50115   0.39088   0.40804   0.00000  Uiso   1.00
C391   C     0.56706   0.37667   0.42711   0.00000  Uiso   1.00
H392   H     0.61766   0.44675   0.19357   0.00000  Uiso   1.00
H393   H     0.56116   0.57379   0.14327   0.00000  Uiso   1.00
H394   H     0.61931   0.35922   0.14301   0.00000  Uiso   1.00
H395   H     0.69145   0.40901   0.28186   0.00000  Uiso   1.00
H396   H     0.46866   0.71178   0.10728   0.00000  Uiso   1.00
H397   H     0.59127   0.25934   0.10675   0.00000  Uiso   1.00
H398   H     0.74340   0.36432   0.39955   0.00000  Uiso   1.00
H399   H     0.38758   0.42483   0.34610   0.00000  Uiso   1.00
H400   H     0.31845   0.55067   0.30417   0.00000  Uiso   1.00
H401   H     0.37660   0.33610   0.30391   0.00000  Uiso   1.00
H402   H     0.44874   0.38589   0.44276   0.00000  Uiso   1.00
H403   H     0.27167   0.69302   0.23787   0.00000  Uiso   1.00
H404   H     0.39429   0.24057   0.23734   0.00000  Uiso   1.00
H405   H     0.54641   0.34556   0.53014   0.00000  Uiso   1.00
O406   O     0.32884   0.78557   0.14223   0.00000  Uiso   1.00
O407   O     0.48971   0.19197   0.14154   0.00000  Uiso   1.00
O408   O     0.68930   0.32972   0.52568   0.00000  Uiso   1.00
N409   N     0.43179   0.69010   0.14378   0.00000  Uiso   1.00
N410   N     0.54642   0.26710   0.14328   0.00000  Uiso   1.00
N411   N     0.68865   0.36524   0.41702   0.00000  Uiso   1.00
N412   N     0.32579   0.68000   0.21405   0.00000  Uiso   1.00
N413   N     0.44042   0.25700   0.21355   0.00000  Uiso   1.00
N414   N     0.58265   0.35514   0.48729   0.00000  Uiso   1.00
C415   C     0.87935   0.05665   0.65215   0.00000  Uiso   1.00
C416   C     0.95002   0.00329   0.63151   0.00000  Uiso   1.00
C417   C     0.01525   0.01554   0.58721   0.00000  Uiso   1.00
C418   C     0.07365   0.95991   0.57488   0.00000  Uiso   1.00
C419   C     0.18439   0.88701   0.53811   0.00000  Uiso   1.00
C420   C     0.81445   0.04479   0.63896   0.00000  Uiso   1.00
C421   C     0.76569   0.09194   0.60094   0.00000  Uiso   1.00
C422   C     0.70996   0.07124   0.59489   0.00000  Uiso   1.00
C423   C     0.61019   0.06279   0.56974   0.00000  Uiso   1.00
C424   C     0.86515   0.03924   0.72493   0.00000  Uiso   1.00
C425   C     0.85900   0.08173   0.75920   0.00000  Uiso   1.00
C426   C     0.84595   0.05636   0.82554   0.00000  Uiso   1.00
C427   C     0.82490   0.03929   0.93386   0.00000  Uiso   1.00
C428   C     0.86706   0.93606   0.70902   0.00000  Uiso   1.00
C429   C     0.94334   0.93779   0.66240   0.00000  Uiso   1.00
C430   C     0.00166   0.88212   0.65013   0.00000  Uiso   1.00
C431   C     0.06697   0.89429   0.60582   0.00000  Uiso   1.00
C432   C     0.80777   0.97929   0.66985   0.00000  Uiso   1.00
C433   C     0.75210   0.95852   0.66386   0.00000  Uiso   1.00
C434   C     0.70328   0.00562   0.62584   0.00000  Uiso   1.00
C435   C     0.85848   0.97373   0.75582   0.00000  Uiso   1.00
C436   C     0.84542   0.94830   0.82212   0.00000  Uiso   1.00
C437   C     0.83926   0.99074   0.85648   0.00000  Uiso   1.00
H438   H     0.88454   0.10765   0.62810   0.00000  Uiso   1.00
H439   H     0.02039   0.06624   0.56331   0.00000  Uiso   1.00
H440   H     0.77087   0.14263   0.57705   0.00000  Uiso   1.00
H441   H     0.86417   0.13241   0.73528   0.00000  Uiso   1.00
H442   H     0.16806   0.99145   0.50509   0.00000  Uiso   1.00
H443   H     0.64190   0.15252   0.53407   0.00000  Uiso   1.00
H444   H     0.83865   0.13098   0.86774   0.00000  Uiso   1.00
H445   H     0.86186   0.88506   0.73306   0.00000  Uiso   1.00
H446   H     0.99648   0.83143   0.67404   0.00000  Uiso   1.00
H447   H     0.74695   0.90782   0.68777   0.00000  Uiso   1.00
H448   H     0.84026   0.89761   0.84601   0.00000  Uiso   1.00
H449   H     0.14865   0.80087   0.59496   0.00000  Uiso   1.00
H450   H     0.62249   0.96194   0.62394   0.00000  Uiso   1.00
H451   H     0.81924   0.94040   0.95761   0.00000  Uiso   1.00
O452   O     0.24731   0.86490   0.50929   0.00000  Uiso   1.00
O453   O     0.55700   0.07623   0.54732   0.00000  Uiso   1.00
O454   O     0.81514   0.04797   0.98508   0.00000  Uiso   1.00
N455   N     0.14502   0.95396   0.53435   0.00000  Uiso   1.00
N456   N     0.65311   0.10454   0.56144   0.00000  Uiso   1.00
N457   N     0.83703   0.08441   0.87339   0.00000  Uiso   1.00
N458   N     0.13458   0.85141   0.58271   0.00000  Uiso   1.00
N459   N     0.64266   0.00200   0.60980   0.00000  Uiso   1.00
N460   N     0.82659   0.98186   0.92175   0.00000  Uiso   1.00
C461   C     0.32941   0.90500   0.69460   0.00000  Uiso   1.00
C462   C     0.34193   0.97274   0.68283   0.00000  Uiso   1.00
C463   C     0.34097   0.02447   0.62616   0.00000  Uiso   1.00
C464   C     0.35369   0.08247   0.62502   0.00000  Uiso   1.00
C465   C     0.37117   0.18673   0.59857   0.00000  Uiso   1.00
C466   C     0.39898   0.85174   0.71544   0.00000  Uiso   1.00
C467   C     0.44597   0.80175   0.68618   0.00000  Uiso   1.00
C468   C     0.50670   0.75789   0.71250   0.00000  Uiso   1.00
C469   C     0.61271   0.67428   0.73670   0.00000  Uiso   1.00
C470   C     0.26396   0.89805   0.75321   0.00000  Uiso   1.00
C471   C     0.19744   0.88697   0.75572   0.00000  Uiso   1.00
C472   C     0.14450   0.88209   0.81384   0.00000  Uiso   1.00
C473   C     0.04088   0.87037   0.89669   0.00000  Uiso   1.00
C474   C     0.35369   0.91600   0.79337   0.00000  Uiso   1.00
C475   C     0.35513   0.97871   0.73648   0.00000  Uiso   1.00
C476   C     0.36784   0.03665   0.73543   0.00000  Uiso   1.00
C477   C     0.36690   0.08846   0.67876   0.00000  Uiso   1.00
C478   C     0.41217   0.85772   0.76908   0.00000  Uiso   1.00
C479   C     0.47284   0.81392   0.79545   0.00000  Uiso   1.00
C480   C     0.51992   0.76388   0.76624   0.00000  Uiso   1.00
C481   C     0.27715   0.90403   0.80686   0.00000  Uiso   1.00
C482   C     0.22431   0.89915   0.86499   0.00000  Uiso   1.00
C483   C     0.15772   0.88807   0.86758   0.00000  Uiso   1.00
H484   H     0.31914   0.90034   0.65284   0.00000  Uiso   1.00
H485   H     0.33077   0.01982   0.58465   0.00000  Uiso   1.00
H486   H     0.43575   0.79713   0.64467   0.00000  Uiso   1.00
H487   H     0.18725   0.88235   0.71419   0.00000  Uiso   1.00
H488   H     0.34951   0.15492   0.53270   0.00000  Uiso   1.00
H489   H     0.57084   0.68535   0.65927   0.00000  Uiso   1.00
H490   H     0.04684   0.86504   0.80587   0.00000  Uiso   1.00
H491   H     0.36397   0.92066   0.83513   0.00000  Uiso   1.00
H492   H     0.37805   0.04126   0.77695   0.00000  Uiso   1.00
H493   H     0.48303   0.81856   0.83697   0.00000  Uiso   1.00
H494   H     0.23454   0.90378   0.90649   0.00000  Uiso   1.00
H495   H     0.38788   0.17232   0.68878   0.00000  Uiso   1.00
H496   H     0.60922   0.70274   0.81535   0.00000  Uiso   1.00
H497   H     0.08522   0.88244   0.96195   0.00000  Uiso   1.00
O498   O     0.37718   0.24258   0.56917   0.00000  Uiso   1.00
O499   O     0.66755   0.62651   0.73523   0.00000  Uiso   1.00
O500   O     0.98007   0.86227   0.92757   0.00000  Uiso   1.00
N501   N     0.35659   0.14247   0.57742   0.00000  Uiso   1.00
N502   N     0.56353   0.70345   0.69575   0.00000  Uiso   1.00
N503   N     0.07364   0.87143   0.83282   0.00000  Uiso   1.00
N504   N     0.37724   0.15183   0.66141   0.00000  Uiso   1.00
N505   N     0.58418   0.71281   0.77974   0.00000  Uiso   1.00
N506   N     0.09429   0.88079   0.91680   0.00000  Uiso   1.00
C507   C     0.01175   0.39928   0.78318   0.00000  Uiso   1.00
C508   C     0.98042   0.37711   0.74421   0.00000  Uiso   1.00
C509   C     0.02261   0.34774   0.69483   0.00000  Uiso   1.00
C510   C     0.98338   0.33110   0.66514   0.00000  Uiso   1.00
C511   C     0.94668   0.29484   0.60172   0.00000  Uiso   1.00
C512   C     0.97073   0.47361   0.77610   0.00000  Uiso   1.00
C513   C     0.00477   0.52538   0.75353   0.00000  Uiso   1.00
C514   C     0.95738   0.58997   0.75069   0.00000  Uiso   1.00
C515   C     0.90564   0.70353   0.73682   0.00000  Uiso   1.00
C516   C     0.98495   0.36266   0.85325   0.00000  Uiso   1.00
C517   C     0.03096   0.32114   0.89557   0.00000  Uiso   1.00
C518   C     0.99554   0.29233   0.95769   0.00000  Uiso   1.00
C519   C     0.96589   0.23361   0.06361   0.00000  Uiso   1.00
C520   C     0.86706   0.42196   0.81826   0.00000  Uiso   1.00
C521   C     0.90183   0.38944   0.76327   0.00000  Uiso   1.00
C522   C     0.86253   0.37284   0.73365   0.00000  Uiso   1.00
C523   C     0.90465   0.34344   0.68423   0.00000  Uiso   1.00
C524   C     0.89214   0.48594   0.79515   0.00000  Uiso   1.00
C525   C     0.84469   0.55047   0.79235   0.00000  Uiso   1.00
C526   C     0.87865   0.60232   0.76978   0.00000  Uiso   1.00
C527   C     0.90636   0.37498   0.87231   0.00000  Uiso   1.00
C528   C     0.87087   0.34624   0.93438   0.00000  Uiso   1.00
C529   C     0.91681   0.30468   0.97678   0.00000  Uiso   1.00
H530   H     0.07293   0.38969   0.76834   0.00000  Uiso   1.00
H531   H     0.08342   0.33822   0.68010   0.00000  Uiso   1.00
H532   H     0.06559   0.51582   0.73880   0.00000  Uiso   1.00
H533   H     0.09177   0.31162   0.88081   0.00000  Uiso   1.00
H534   H     0.06039   0.28661   0.59065   0.00000  Uiso   1.00
H535   H     0.02279   0.66110   0.71444   0.00000  Uiso   1.00
H536   H     0.07799   0.23049   0.01390   0.00000  Uiso   1.00
H537   H     0.80588   0.43156   0.83309   0.00000  Uiso   1.00
H538   H     0.80171   0.38238   0.74840   0.00000  Uiso   1.00
H539   H     0.78388   0.55999   0.80710   0.00000  Uiso   1.00
H540   H     0.81006   0.35578   0.94911   0.00000  Uiso   1.00
H541   H     0.83174   0.32246   0.64608   0.00000  Uiso   1.00
H542   H     0.79414   0.69695   0.76988   0.00000  Uiso   1.00
H543   H     0.84935   0.26634   0.06933   0.00000  Uiso   1.00
O544   O     0.94814   0.27145   0.56147   0.00000  Uiso   1.00
O545   O     0.89881   0.76276   0.72389   0.00000  Uiso   1.00
O546   O     0.97124   0.19781   0.11677   0.00000  Uiso   1.00
N547   N     0.00715   0.30178   0.61533   0.00000  Uiso   1.00
N548   N     0.97200   0.65191   0.73105   0.00000  Uiso   1.00
N549   N     0.02361   0.24934   0.01103   0.00000  Uiso   1.00
N550   N     0.88412   0.32107   0.64516   0.00000  Uiso   1.00
N551   N     0.84896   0.67120   0.76088   0.00000  Uiso   1.00
N552   N     0.90057   0.26863   0.04086   0.00000  Uiso   1.00
