data_job_03230
_audit_creation_date              2018-12-19
_audit_creation_method            'Materials Studio'
_symmetry_space_group_name_H-M    'P1'
_symmetry_Int_Tables_number       1
_symmetry_cell_setting            triclinic
loop_
_symmetry_equiv_pos_as_xyz
  x,y,z
_cell_length_a                    33.9134
_cell_length_b                    12.5190
_cell_length_c                    22.9339
_cell_angle_alpha                 90.0000
_cell_angle_beta                  61.6630
_cell_angle_gamma                 90.0000
loop_
_atom_site_label
_atom_site_type_symbol
_atom_site_fract_x
_atom_site_fract_y
_atom_site_fract_z
_atom_site_U_iso_or_equiv
_atom_site_adp_type
_atom_site_occupancy
C1     C     0.36350   0.79719   0.17518   0.00000  Uiso   1.00
C2     C     0.35993   0.77486   0.11249   0.00000  Uiso   1.00
C3     C     0.32121   0.78256   0.10643   0.00000  Uiso   1.00
C4     C     0.32490   0.75879   0.04491   0.00000  Uiso   1.00
C5     C     0.31312   0.72870   0.95571   0.00000  Uiso   1.00
C6     C     0.38263   0.69590   0.18904   0.00000  Uiso   1.00
C7     C     0.36300   0.63722   0.24735   0.00000  Uiso   1.00
C8     C     0.38581   0.54699   0.25027   0.00000  Uiso   1.00
C9     C     0.40929   0.39435   0.27994   0.00000  Uiso   1.00
C10    C     0.39961   0.88247   0.15652   0.00000  Uiso   1.00
C11    C     0.39427   0.98064   0.18750   0.00000  Uiso   1.00
C12    C     0.43137   0.04747   0.16305   0.00000  Uiso   1.00
C13    C     0.48122   0.18451   0.14223   0.00000  Uiso   1.00
C14    C     0.43890   0.74128   0.07669   0.00000  Uiso   1.00
C15    C     0.40089   0.74450   0.05899   0.00000  Uiso   1.00
C16    C     0.40463   0.72071   0.99746   0.00000  Uiso   1.00
C17    C     0.36592   0.72837   0.99131   0.00000  Uiso   1.00
C18    C     0.42359   0.66554   0.13554   0.00000  Uiso   1.00
C19    C     0.44643   0.57537   0.13838   0.00000  Uiso   1.00
C20    C     0.42684   0.51657   0.19668   0.00000  Uiso   1.00
C21    C     0.44057   0.85210   0.10302   0.00000  Uiso   1.00
C22    C     0.47769   0.91879   0.07852   0.00000  Uiso   1.00
C23    C     0.47240   0.01705   0.10946   0.00000  Uiso   1.00
H24    H     0.33162   0.82082   0.21683   0.00000  Uiso   1.00
H25    H     0.28952   0.80605   0.14785   0.00000  Uiso   1.00
H26    H     0.33131   0.66075   0.28875   0.00000  Uiso   1.00
H27    H     0.36257   0.00411   0.22890   0.00000  Uiso   1.00
H28    H     0.26091   0.77625   0.04778   0.00000  Uiso   1.00
H29    H     0.34903   0.46988   0.34488   0.00000  Uiso   1.00
H30    H     0.41495   0.19394   0.21869   0.00000  Uiso   1.00
H31    H     0.47079   0.71764   0.03503   0.00000  Uiso   1.00
H32    H     0.43633   0.69721   0.95607   0.00000  Uiso   1.00
H33    H     0.47812   0.55190   0.09697   0.00000  Uiso   1.00
H34    H     0.50937   0.89527   0.03712   0.00000  Uiso   1.00
H35    H     0.38006   0.68791   0.89212   0.00000  Uiso   1.00
H36    H     0.46819   0.38154   0.18922   0.00000  Uiso   1.00
H37    H     0.53410   0.10560   0.06303   0.00000  Uiso   1.00
O38    O     0.29530   0.72047   0.92129   0.00000  Uiso   1.00
O39    O     0.41092   0.31854   0.31108   0.00000  Uiso   1.00
O40    O     0.49739   0.26849   0.14552   0.00000  Uiso   1.00
N41    N     0.29368   0.75829   0.02198   0.00000  Uiso   1.00
N42    N     0.37607   0.47184   0.29974   0.00000  Uiso   1.00
N43    N     0.43769   0.14876   0.18178   0.00000  Uiso   1.00
N44    N     0.35780   0.71075   0.93822   0.00000  Uiso   1.00
N45    N     0.44019   0.42430   0.21599   0.00000  Uiso   1.00
N46    N     0.50181   0.10122   0.09802   0.00000  Uiso   1.00
C47    C     0.86350   0.29719   0.17518   0.00000  Uiso   1.00
C48    C     0.85993   0.27486   0.11249   0.00000  Uiso   1.00
C49    C     0.82121   0.28256   0.10643   0.00000  Uiso   1.00
C50    C     0.82490   0.25879   0.04491   0.00000  Uiso   1.00
C51    C     0.81312   0.22870   0.95571   0.00000  Uiso   1.00
C52    C     0.88263   0.19590   0.18904   0.00000  Uiso   1.00
C53    C     0.86300   0.13722   0.24735   0.00000  Uiso   1.00
C54    C     0.88581   0.04699   0.25027   0.00000  Uiso   1.00
C55    C     0.90929   0.89435   0.27994   0.00000  Uiso   1.00
C56    C     0.89961   0.38247   0.15652   0.00000  Uiso   1.00
C57    C     0.89427   0.48064   0.18750   0.00000  Uiso   1.00
C58    C     0.93137   0.54747   0.16305   0.00000  Uiso   1.00
C59    C     0.98122   0.68451   0.14223   0.00000  Uiso   1.00
C60    C     0.93890   0.24128   0.07669   0.00000  Uiso   1.00
C61    C     0.90089   0.24450   0.05899   0.00000  Uiso   1.00
C62    C     0.90463   0.22071   0.99746   0.00000  Uiso   1.00
C63    C     0.86592   0.22837   0.99131   0.00000  Uiso   1.00
C64    C     0.92359   0.16554   0.13554   0.00000  Uiso   1.00
C65    C     0.94643   0.07537   0.13838   0.00000  Uiso   1.00
C66    C     0.92684   0.01657   0.19668   0.00000  Uiso   1.00
C67    C     0.94057   0.35210   0.10302   0.00000  Uiso   1.00
C68    C     0.97769   0.41879   0.07852   0.00000  Uiso   1.00
C69    C     0.97240   0.51705   0.10946   0.00000  Uiso   1.00
H70    H     0.83162   0.32082   0.21683   0.00000  Uiso   1.00
H71    H     0.78952   0.30605   0.14785   0.00000  Uiso   1.00
H72    H     0.83131   0.16075   0.28875   0.00000  Uiso   1.00
H73    H     0.86257   0.50411   0.22890   0.00000  Uiso   1.00
H74    H     0.76091   0.27625   0.04778   0.00000  Uiso   1.00
H75    H     0.84903   0.96988   0.34488   0.00000  Uiso   1.00
H76    H     0.91495   0.69394   0.21869   0.00000  Uiso   1.00
H77    H     0.97079   0.21764   0.03503   0.00000  Uiso   1.00
H78    H     0.93633   0.19721   0.95607   0.00000  Uiso   1.00
H79    H     0.97812   0.05190   0.09697   0.00000  Uiso   1.00
H80    H     0.00937   0.39527   0.03712   0.00000  Uiso   1.00
H81    H     0.88006   0.18791   0.89212   0.00000  Uiso   1.00
H82    H     0.96819   0.88154   0.18922   0.00000  Uiso   1.00
H83    H     0.03410   0.60560   0.06303   0.00000  Uiso   1.00
O84    O     0.79530   0.22047   0.92129   0.00000  Uiso   1.00
O85    O     0.91092   0.81854   0.31108   0.00000  Uiso   1.00
O86    O     0.99739   0.76849   0.14552   0.00000  Uiso   1.00
N87    N     0.79368   0.25829   0.02198   0.00000  Uiso   1.00
N88    N     0.87607   0.97184   0.29974   0.00000  Uiso   1.00
N89    N     0.93769   0.64876   0.18178   0.00000  Uiso   1.00
N90    N     0.85780   0.21075   0.93822   0.00000  Uiso   1.00
N91    N     0.94019   0.92430   0.21599   0.00000  Uiso   1.00
N92    N     0.00181   0.60122   0.09802   0.00000  Uiso   1.00
C93    C     0.63650   0.79719   0.32482   0.00000  Uiso   1.00
C94    C     0.64007   0.77486   0.38751   0.00000  Uiso   1.00
C95    C     0.67879   0.78256   0.39357   0.00000  Uiso   1.00
C96    C     0.67510   0.75879   0.45509   0.00000  Uiso   1.00
C97    C     0.68688   0.72870   0.54429   0.00000  Uiso   1.00
C98    C     0.61737   0.69590   0.31096   0.00000  Uiso   1.00
C99    C     0.63700   0.63722   0.25265   0.00000  Uiso   1.00
C100   C     0.61419   0.54699   0.24973   0.00000  Uiso   1.00
C101   C     0.59071   0.39435   0.22006   0.00000  Uiso   1.00
C102   C     0.60039   0.88247   0.34348   0.00000  Uiso   1.00
C103   C     0.60573   0.98064   0.31250   0.00000  Uiso   1.00
C104   C     0.56863   0.04747   0.33695   0.00000  Uiso   1.00
C105   C     0.51878   0.18451   0.35777   0.00000  Uiso   1.00
C106   C     0.56110   0.74128   0.42331   0.00000  Uiso   1.00
C107   C     0.59911   0.74450   0.44101   0.00000  Uiso   1.00
C108   C     0.59537   0.72071   0.50254   0.00000  Uiso   1.00
C109   C     0.63408   0.72837   0.50869   0.00000  Uiso   1.00
C110   C     0.57641   0.66554   0.36446   0.00000  Uiso   1.00
C111   C     0.55357   0.57537   0.36162   0.00000  Uiso   1.00
C112   C     0.57316   0.51657   0.30332   0.00000  Uiso   1.00
C113   C     0.55943   0.85210   0.39698   0.00000  Uiso   1.00
C114   C     0.52231   0.91879   0.42148   0.00000  Uiso   1.00
C115   C     0.52760   0.01705   0.39054   0.00000  Uiso   1.00
H116   H     0.66838   0.82082   0.28317   0.00000  Uiso   1.00
H117   H     0.71048   0.80605   0.35215   0.00000  Uiso   1.00
H118   H     0.66869   0.66075   0.21125   0.00000  Uiso   1.00
H119   H     0.63743   0.00411   0.27110   0.00000  Uiso   1.00
H120   H     0.73909   0.77625   0.45222   0.00000  Uiso   1.00
H121   H     0.65097   0.46988   0.15512   0.00000  Uiso   1.00
H122   H     0.58505   0.19394   0.28131   0.00000  Uiso   1.00
H123   H     0.52921   0.71764   0.46497   0.00000  Uiso   1.00
H124   H     0.56367   0.69721   0.54393   0.00000  Uiso   1.00
H125   H     0.52188   0.55190   0.40303   0.00000  Uiso   1.00
H126   H     0.49063   0.89527   0.46288   0.00000  Uiso   1.00
H127   H     0.61994   0.68791   0.60788   0.00000  Uiso   1.00
H128   H     0.53181   0.38154   0.31078   0.00000  Uiso   1.00
H129   H     0.46590   0.10560   0.43697   0.00000  Uiso   1.00
O130   O     0.70470   0.72047   0.57871   0.00000  Uiso   1.00
O131   O     0.58908   0.31854   0.18892   0.00000  Uiso   1.00
O132   O     0.50261   0.26849   0.35448   0.00000  Uiso   1.00
N133   N     0.70632   0.75829   0.47802   0.00000  Uiso   1.00
N134   N     0.62393   0.47184   0.20026   0.00000  Uiso   1.00
N135   N     0.56231   0.14876   0.31822   0.00000  Uiso   1.00
N136   N     0.64220   0.71075   0.56178   0.00000  Uiso   1.00
N137   N     0.55981   0.42430   0.28401   0.00000  Uiso   1.00
N138   N     0.49819   0.10122   0.40198   0.00000  Uiso   1.00
C139   C     0.13650   0.29719   0.32482   0.00000  Uiso   1.00
C140   C     0.14007   0.27486   0.38751   0.00000  Uiso   1.00
C141   C     0.17879   0.28256   0.39357   0.00000  Uiso   1.00
C142   C     0.17510   0.25879   0.45509   0.00000  Uiso   1.00
C143   C     0.18688   0.22870   0.54429   0.00000  Uiso   1.00
C144   C     0.11737   0.19590   0.31096   0.00000  Uiso   1.00
C145   C     0.13700   0.13722   0.25265   0.00000  Uiso   1.00
C146   C     0.11419   0.04699   0.24973   0.00000  Uiso   1.00
C147   C     0.09071   0.89435   0.22006   0.00000  Uiso   1.00
C148   C     0.10039   0.38247   0.34348   0.00000  Uiso   1.00
C149   C     0.10573   0.48064   0.31250   0.00000  Uiso   1.00
C150   C     0.06863   0.54747   0.33695   0.00000  Uiso   1.00
C151   C     0.01878   0.68451   0.35777   0.00000  Uiso   1.00
C152   C     0.06110   0.24128   0.42331   0.00000  Uiso   1.00
C153   C     0.09911   0.24450   0.44101   0.00000  Uiso   1.00
C154   C     0.09537   0.22071   0.50254   0.00000  Uiso   1.00
C155   C     0.13408   0.22837   0.50869   0.00000  Uiso   1.00
C156   C     0.07641   0.16554   0.36446   0.00000  Uiso   1.00
C157   C     0.05357   0.07537   0.36162   0.00000  Uiso   1.00
C158   C     0.07316   0.01657   0.30332   0.00000  Uiso   1.00
C159   C     0.05943   0.35210   0.39698   0.00000  Uiso   1.00
C160   C     0.02231   0.41879   0.42148   0.00000  Uiso   1.00
C161   C     0.02760   0.51705   0.39054   0.00000  Uiso   1.00
H162   H     0.16838   0.32082   0.28317   0.00000  Uiso   1.00
H163   H     0.21048   0.30605   0.35215   0.00000  Uiso   1.00
H164   H     0.16869   0.16075   0.21125   0.00000  Uiso   1.00
H165   H     0.13743   0.50411   0.27110   0.00000  Uiso   1.00
H166   H     0.23909   0.27625   0.45222   0.00000  Uiso   1.00
H167   H     0.15097   0.96988   0.15512   0.00000  Uiso   1.00
H168   H     0.08505   0.69394   0.28131   0.00000  Uiso   1.00
H169   H     0.02921   0.21764   0.46497   0.00000  Uiso   1.00
H170   H     0.06367   0.19721   0.54393   0.00000  Uiso   1.00
H171   H     0.02188   0.05190   0.40303   0.00000  Uiso   1.00
H172   H     0.99063   0.39527   0.46288   0.00000  Uiso   1.00
H173   H     0.11994   0.18791   0.60788   0.00000  Uiso   1.00
H174   H     0.03181   0.88154   0.31078   0.00000  Uiso   1.00
H175   H     0.96590   0.60560   0.43697   0.00000  Uiso   1.00
O176   O     0.20470   0.22047   0.57871   0.00000  Uiso   1.00
O177   O     0.08908   0.81854   0.18892   0.00000  Uiso   1.00
O178   O     0.00261   0.76849   0.35448   0.00000  Uiso   1.00
N179   N     0.20632   0.25829   0.47802   0.00000  Uiso   1.00
N180   N     0.12393   0.97184   0.20026   0.00000  Uiso   1.00
N181   N     0.06231   0.64876   0.31822   0.00000  Uiso   1.00
N182   N     0.14220   0.21075   0.56178   0.00000  Uiso   1.00
N183   N     0.05981   0.92430   0.28401   0.00000  Uiso   1.00
N184   N     0.99819   0.60122   0.40198   0.00000  Uiso   1.00
C185   C     0.63650   0.20281   0.82482   0.00000  Uiso   1.00
C186   C     0.64007   0.22514   0.88751   0.00000  Uiso   1.00
C187   C     0.67879   0.21744   0.89357   0.00000  Uiso   1.00
C188   C     0.67510   0.24121   0.95509   0.00000  Uiso   1.00
C189   C     0.68688   0.27130   0.04429   0.00000  Uiso   1.00
C190   C     0.61737   0.30410   0.81096   0.00000  Uiso   1.00
C191   C     0.63700   0.36278   0.75265   0.00000  Uiso   1.00
C192   C     0.61419   0.45301   0.74973   0.00000  Uiso   1.00
C193   C     0.59071   0.60565   0.72006   0.00000  Uiso   1.00
C194   C     0.60039   0.11753   0.84348   0.00000  Uiso   1.00
C195   C     0.60573   0.01936   0.81250   0.00000  Uiso   1.00
C196   C     0.56863   0.95253   0.83695   0.00000  Uiso   1.00
C197   C     0.51878   0.81549   0.85777   0.00000  Uiso   1.00
C198   C     0.56110   0.25872   0.92331   0.00000  Uiso   1.00
C199   C     0.59911   0.25550   0.94101   0.00000  Uiso   1.00
C200   C     0.59537   0.27929   0.00254   0.00000  Uiso   1.00
C201   C     0.63408   0.27163   0.00869   0.00000  Uiso   1.00
C202   C     0.57641   0.33446   0.86446   0.00000  Uiso   1.00
C203   C     0.55357   0.42463   0.86162   0.00000  Uiso   1.00
C204   C     0.57316   0.48343   0.80332   0.00000  Uiso   1.00
C205   C     0.55943   0.14790   0.89698   0.00000  Uiso   1.00
C206   C     0.52231   0.08121   0.92148   0.00000  Uiso   1.00
C207   C     0.52760   0.98295   0.89054   0.00000  Uiso   1.00
H208   H     0.66838   0.17918   0.78317   0.00000  Uiso   1.00
H209   H     0.71048   0.19395   0.85215   0.00000  Uiso   1.00
H210   H     0.66869   0.33925   0.71125   0.00000  Uiso   1.00
H211   H     0.63743   0.99589   0.77110   0.00000  Uiso   1.00
H212   H     0.73909   0.22375   0.95222   0.00000  Uiso   1.00
H213   H     0.65097   0.53012   0.65512   0.00000  Uiso   1.00
H214   H     0.58505   0.80606   0.78131   0.00000  Uiso   1.00
H215   H     0.52921   0.28236   0.96497   0.00000  Uiso   1.00
H216   H     0.56367   0.30279   0.04393   0.00000  Uiso   1.00
H217   H     0.52188   0.44810   0.90303   0.00000  Uiso   1.00
H218   H     0.49063   0.10473   0.96288   0.00000  Uiso   1.00
H219   H     0.61994   0.31209   0.10788   0.00000  Uiso   1.00
H220   H     0.53181   0.61846   0.81078   0.00000  Uiso   1.00
H221   H     0.46590   0.89440   0.93697   0.00000  Uiso   1.00
O222   O     0.70470   0.27953   0.07871   0.00000  Uiso   1.00
O223   O     0.58908   0.68146   0.68892   0.00000  Uiso   1.00
O224   O     0.50261   0.73151   0.85448   0.00000  Uiso   1.00
N225   N     0.70632   0.24171   0.97802   0.00000  Uiso   1.00
N226   N     0.62393   0.52816   0.70026   0.00000  Uiso   1.00
N227   N     0.56231   0.85124   0.81822   0.00000  Uiso   1.00
N228   N     0.64220   0.28925   0.06178   0.00000  Uiso   1.00
N229   N     0.55981   0.57570   0.78401   0.00000  Uiso   1.00
N230   N     0.49819   0.89878   0.90198   0.00000  Uiso   1.00
C231   C     0.13650   0.70281   0.82482   0.00000  Uiso   1.00
C232   C     0.14007   0.72514   0.88751   0.00000  Uiso   1.00
C233   C     0.17879   0.71744   0.89357   0.00000  Uiso   1.00
C234   C     0.17510   0.74121   0.95509   0.00000  Uiso   1.00
C235   C     0.18688   0.77130   0.04429   0.00000  Uiso   1.00
C236   C     0.11737   0.80410   0.81096   0.00000  Uiso   1.00
C237   C     0.13700   0.86278   0.75265   0.00000  Uiso   1.00
C238   C     0.11419   0.95301   0.74973   0.00000  Uiso   1.00
C239   C     0.09071   0.10565   0.72006   0.00000  Uiso   1.00
C240   C     0.10039   0.61753   0.84348   0.00000  Uiso   1.00
C241   C     0.10573   0.51936   0.81250   0.00000  Uiso   1.00
C242   C     0.06863   0.45253   0.83695   0.00000  Uiso   1.00
C243   C     0.01878   0.31549   0.85777   0.00000  Uiso   1.00
C244   C     0.06110   0.75872   0.92331   0.00000  Uiso   1.00
C245   C     0.09911   0.75550   0.94101   0.00000  Uiso   1.00
C246   C     0.09537   0.77929   0.00254   0.00000  Uiso   1.00
C247   C     0.13408   0.77163   0.00869   0.00000  Uiso   1.00
C248   C     0.07641   0.83446   0.86446   0.00000  Uiso   1.00
C249   C     0.05357   0.92463   0.86162   0.00000  Uiso   1.00
C250   C     0.07316   0.98343   0.80332   0.00000  Uiso   1.00
C251   C     0.05943   0.64790   0.89698   0.00000  Uiso   1.00
C252   C     0.02231   0.58121   0.92148   0.00000  Uiso   1.00
C253   C     0.02760   0.48295   0.89054   0.00000  Uiso   1.00
H254   H     0.16838   0.67918   0.78317   0.00000  Uiso   1.00
H255   H     0.21048   0.69395   0.85215   0.00000  Uiso   1.00
H256   H     0.16869   0.83925   0.71125   0.00000  Uiso   1.00
H257   H     0.13743   0.49589   0.77110   0.00000  Uiso   1.00
H258   H     0.23909   0.72375   0.95222   0.00000  Uiso   1.00
H259   H     0.15097   0.03012   0.65512   0.00000  Uiso   1.00
H260   H     0.08505   0.30606   0.78131   0.00000  Uiso   1.00
H261   H     0.02921   0.78236   0.96497   0.00000  Uiso   1.00
H262   H     0.06367   0.80279   0.04393   0.00000  Uiso   1.00
H263   H     0.02188   0.94810   0.90303   0.00000  Uiso   1.00
H264   H     0.99063   0.60473   0.96288   0.00000  Uiso   1.00
H265   H     0.11994   0.81209   0.10788   0.00000  Uiso   1.00
H266   H     0.03181   0.11846   0.81078   0.00000  Uiso   1.00
H267   H     0.96590   0.39440   0.93697   0.00000  Uiso   1.00
O268   O     0.20470   0.77953   0.07871   0.00000  Uiso   1.00
O269   O     0.08908   0.18146   0.68892   0.00000  Uiso   1.00
O270   O     0.00261   0.23151   0.85448   0.00000  Uiso   1.00
N271   N     0.20632   0.74171   0.97802   0.00000  Uiso   1.00
N272   N     0.12393   0.02816   0.70026   0.00000  Uiso   1.00
N273   N     0.06231   0.35124   0.81822   0.00000  Uiso   1.00
N274   N     0.14220   0.78925   0.06178   0.00000  Uiso   1.00
N275   N     0.05981   0.07570   0.78401   0.00000  Uiso   1.00
N276   N     0.99819   0.39878   0.90198   0.00000  Uiso   1.00
C277   C     0.36350   0.20281   0.67518   0.00000  Uiso   1.00
C278   C     0.35993   0.22514   0.61249   0.00000  Uiso   1.00
C279   C     0.32121   0.21744   0.60643   0.00000  Uiso   1.00
C280   C     0.32490   0.24121   0.54491   0.00000  Uiso   1.00
C281   C     0.31312   0.27130   0.45571   0.00000  Uiso   1.00
C282   C     0.38263   0.30410   0.68904   0.00000  Uiso   1.00
C283   C     0.36300   0.36278   0.74735   0.00000  Uiso   1.00
C284   C     0.38581   0.45301   0.75027   0.00000  Uiso   1.00
C285   C     0.40929   0.60565   0.77994   0.00000  Uiso   1.00
C286   C     0.39961   0.11753   0.65652   0.00000  Uiso   1.00
C287   C     0.39427   0.01936   0.68750   0.00000  Uiso   1.00
C288   C     0.43137   0.95253   0.66305   0.00000  Uiso   1.00
C289   C     0.48122   0.81549   0.64223   0.00000  Uiso   1.00
C290   C     0.43890   0.25872   0.57669   0.00000  Uiso   1.00
C291   C     0.40089   0.25550   0.55899   0.00000  Uiso   1.00
C292   C     0.40463   0.27929   0.49746   0.00000  Uiso   1.00
C293   C     0.36592   0.27163   0.49131   0.00000  Uiso   1.00
C294   C     0.42359   0.33446   0.63554   0.00000  Uiso   1.00
C295   C     0.44643   0.42463   0.63838   0.00000  Uiso   1.00
C296   C     0.42684   0.48343   0.69668   0.00000  Uiso   1.00
C297   C     0.44057   0.14790   0.60302   0.00000  Uiso   1.00
C298   C     0.47769   0.08121   0.57852   0.00000  Uiso   1.00
C299   C     0.47240   0.98295   0.60946   0.00000  Uiso   1.00
H300   H     0.33162   0.17918   0.71683   0.00000  Uiso   1.00
H301   H     0.28952   0.19395   0.64785   0.00000  Uiso   1.00
H302   H     0.33131   0.33925   0.78875   0.00000  Uiso   1.00
H303   H     0.36257   0.99589   0.72890   0.00000  Uiso   1.00
H304   H     0.26091   0.22375   0.54778   0.00000  Uiso   1.00
H305   H     0.34903   0.53012   0.84488   0.00000  Uiso   1.00
H306   H     0.41495   0.80606   0.71869   0.00000  Uiso   1.00
H307   H     0.47079   0.28236   0.53503   0.00000  Uiso   1.00
H308   H     0.43633   0.30279   0.45607   0.00000  Uiso   1.00
H309   H     0.47812   0.44810   0.59697   0.00000  Uiso   1.00
H310   H     0.50937   0.10473   0.53712   0.00000  Uiso   1.00
H311   H     0.38006   0.31209   0.39212   0.00000  Uiso   1.00
H312   H     0.46819   0.61846   0.68922   0.00000  Uiso   1.00
H313   H     0.53410   0.89440   0.56303   0.00000  Uiso   1.00
O314   O     0.29530   0.27953   0.42129   0.00000  Uiso   1.00
O315   O     0.41092   0.68146   0.81108   0.00000  Uiso   1.00
O316   O     0.49739   0.73151   0.64552   0.00000  Uiso   1.00
N317   N     0.29368   0.24171   0.52198   0.00000  Uiso   1.00
N318   N     0.37607   0.52816   0.79974   0.00000  Uiso   1.00
N319   N     0.43769   0.85124   0.68178   0.00000  Uiso   1.00
N320   N     0.35780   0.28925   0.43822   0.00000  Uiso   1.00
N321   N     0.44019   0.57570   0.71599   0.00000  Uiso   1.00
N322   N     0.50181   0.89878   0.59802   0.00000  Uiso   1.00
C323   C     0.86350   0.70281   0.67518   0.00000  Uiso   1.00
C324   C     0.85993   0.72514   0.61249   0.00000  Uiso   1.00
C325   C     0.82121   0.71744   0.60643   0.00000  Uiso   1.00
C326   C     0.82490   0.74121   0.54491   0.00000  Uiso   1.00
C327   C     0.81312   0.77130   0.45571   0.00000  Uiso   1.00
C328   C     0.88263   0.80410   0.68904   0.00000  Uiso   1.00
C329   C     0.86300   0.86278   0.74735   0.00000  Uiso   1.00
C330   C     0.88581   0.95301   0.75027   0.00000  Uiso   1.00
C331   C     0.90929   0.10565   0.77994   0.00000  Uiso   1.00
C332   C     0.89961   0.61753   0.65652   0.00000  Uiso   1.00
C333   C     0.89427   0.51936   0.68750   0.00000  Uiso   1.00
C334   C     0.93137   0.45253   0.66305   0.00000  Uiso   1.00
C335   C     0.98122   0.31549   0.64223   0.00000  Uiso   1.00
C336   C     0.93890   0.75872   0.57669   0.00000  Uiso   1.00
C337   C     0.90089   0.75550   0.55899   0.00000  Uiso   1.00
C338   C     0.90463   0.77929   0.49746   0.00000  Uiso   1.00
C339   C     0.86592   0.77163   0.49131   0.00000  Uiso   1.00
C340   C     0.92359   0.83446   0.63554   0.00000  Uiso   1.00
C341   C     0.94643   0.92463   0.63838   0.00000  Uiso   1.00
C342   C     0.92684   0.98343   0.69668   0.00000  Uiso   1.00
C343   C     0.94057   0.64790   0.60302   0.00000  Uiso   1.00
C344   C     0.97769   0.58121   0.57852   0.00000  Uiso   1.00
C345   C     0.97240   0.48295   0.60946   0.00000  Uiso   1.00
H346   H     0.83162   0.67918   0.71683   0.00000  Uiso   1.00
H347   H     0.78952   0.69395   0.64785   0.00000  Uiso   1.00
H348   H     0.83131   0.83925   0.78875   0.00000  Uiso   1.00
H349   H     0.86257   0.49589   0.72890   0.00000  Uiso   1.00
H350   H     0.76091   0.72375   0.54778   0.00000  Uiso   1.00
H351   H     0.84903   0.03012   0.84488   0.00000  Uiso   1.00
H352   H     0.91495   0.30606   0.71869   0.00000  Uiso   1.00
H353   H     0.97079   0.78236   0.53503   0.00000  Uiso   1.00
H354   H     0.93633   0.80279   0.45607   0.00000  Uiso   1.00
H355   H     0.97812   0.94810   0.59697   0.00000  Uiso   1.00
H356   H     0.00937   0.60473   0.53712   0.00000  Uiso   1.00
H357   H     0.88006   0.81209   0.39212   0.00000  Uiso   1.00
H358   H     0.96819   0.11846   0.68922   0.00000  Uiso   1.00
H359   H     0.03410   0.39440   0.56303   0.00000  Uiso   1.00
O360   O     0.79530   0.77953   0.42129   0.00000  Uiso   1.00
O361   O     0.91092   0.18146   0.81108   0.00000  Uiso   1.00
O362   O     0.99739   0.23151   0.64552   0.00000  Uiso   1.00
N363   N     0.79368   0.74171   0.52198   0.00000  Uiso   1.00
N364   N     0.87607   0.02816   0.79974   0.00000  Uiso   1.00
N365   N     0.93769   0.35124   0.68178   0.00000  Uiso   1.00
N366   N     0.85780   0.78925   0.43822   0.00000  Uiso   1.00
N367   N     0.94019   0.07570   0.71599   0.00000  Uiso   1.00
N368   N     0.00181   0.39878   0.59802   0.00000  Uiso   1.00
