data_job_02350
_audit_creation_date              2018-12-19
_audit_creation_method            'Materials Studio'
_symmetry_space_group_name_H-M    'P1'
_symmetry_Int_Tables_number       1
_symmetry_cell_setting            triclinic
loop_
_symmetry_equiv_pos_as_xyz
  x,y,z
_cell_length_a                    22.0463
_cell_length_b                    22.0463
_cell_length_c                    9.3356
_cell_angle_alpha                 90.0000
_cell_angle_beta                  90.0000
_cell_angle_gamma                 120.0000
loop_
_atom_site_label
_atom_site_type_symbol
_atom_site_fract_x
_atom_site_fract_y
_atom_site_fract_z
_atom_site_U_iso_or_equiv
_atom_site_adp_type
_atom_site_occupancy
C1     C     0.34528   0.99171   0.39944   0.00000  Uiso   1.00
C2     C     0.36967   0.96689   0.27079   0.00000  Uiso   1.00
C3     C     0.38405   0.91237   0.27097   0.00000  Uiso   1.00
C4     C     0.40575   0.89779   0.14235   0.00000  Uiso   1.00
C5     C     0.44259   0.85341   0.96150   0.00000  Uiso   1.00
C6     C     0.39826   0.06945   0.41650   0.00000  Uiso   1.00
C7     C     0.43667   0.10117   0.53921   0.00000  Uiso   1.00
C8     C     0.48243   0.17293   0.53326   0.00000  Uiso   1.00
C9     C     0.56362   0.28779   0.57868   0.00000  Uiso   1.00
C10    C     0.27680   0.98748   0.35428   0.00000  Uiso   1.00
C11    C     0.21307   0.95029   0.42469   0.00000  Uiso   1.00
C12    C     0.15657   0.95305   0.36637   0.00000  Uiso   1.00
C13    C     0.04916   0.94063   0.31517   0.00000  Uiso   1.00
C14    C     0.35825   0.06276   0.17070   0.00000  Uiso   1.00
C15    C     0.37672   0.00548   0.14655   0.00000  Uiso   1.00
C16    C     0.39839   0.99098   0.01789   0.00000  Uiso   1.00
C17    C     0.41280   0.93645   0.01788   0.00000  Uiso   1.00
C18    C     0.40531   0.10805   0.29227   0.00000  Uiso   1.00
C19    C     0.45102   0.17978   0.28614   0.00000  Uiso   1.00
C20    C     0.48949   0.21160   0.40880   0.00000  Uiso   1.00
C21    C     0.28384   0.02607   0.23004   0.00000  Uiso   1.00
C22    C     0.22742   0.02890   0.17161   0.00000  Uiso   1.00
C23    C     0.16362   0.99172   0.24191   0.00000  Uiso   1.00
H24    H     0.33980   0.96167   0.49617   0.00000  Uiso   1.00
H25    H     0.37860   0.88253   0.36715   0.00000  Uiso   1.00
H26    H     0.43121   0.07129   0.63535   0.00000  Uiso   1.00
H27    H     0.20764   0.92043   0.52083   0.00000  Uiso   1.00
H28    H     0.42475   0.81181   0.16931   0.00000  Uiso   1.00
H29    H     0.53565   0.20985   0.73485   0.00000  Uiso   1.00
H30    H     0.06423   0.89173   0.49338   0.00000  Uiso   1.00
H31    H     0.36373   0.09281   0.07397   0.00000  Uiso   1.00
H32    H     0.40384   0.02086   0.92176   0.00000  Uiso   1.00
H33    H     0.45645   0.20963   0.18997   0.00000  Uiso   1.00
H34    H     0.23289   0.05877   0.07546   0.00000  Uiso   1.00
H35    H     0.44524   0.92409   0.80783   0.00000  Uiso   1.00
H36    H     0.55614   0.32213   0.37337   0.00000  Uiso   1.00
H37    H     0.08472   0.00401   0.13190   0.00000  Uiso   1.00
O38    O     0.46097   0.81827   0.89608   0.00000  Uiso   1.00
O39    O     0.60646   0.34047   0.63805   0.00000  Uiso   1.00
O40    O     0.98797   0.92311   0.32124   0.00000  Uiso   1.00
N41    N     0.42405   0.84810   0.10512   0.00000  Uiso   1.00
N42    N     0.52775   0.22024   0.63385   0.00000  Uiso   1.00
N43    N     0.08701   0.92284   0.40812   0.00000  Uiso   1.00
N44    N     0.43508   0.90852   0.91061   0.00000  Uiso   1.00
N45    N     0.53878   0.28065   0.43934   0.00000  Uiso   1.00
N46    N     0.09804   0.98326   0.21361   0.00000  Uiso   1.00
C47    C     0.00829   0.35357   0.06611   0.00000  Uiso   1.00
C48    C     0.03311   0.40278   0.93745   0.00000  Uiso   1.00
C49    C     0.08763   0.47168   0.93764   0.00000  Uiso   1.00
C50    C     0.10221   0.50795   0.80902   0.00000  Uiso   1.00
C51    C     0.14659   0.58918   0.62817   0.00000  Uiso   1.00
C52    C     0.93055   0.32881   0.08317   0.00000  Uiso   1.00
C53    C     0.89883   0.33550   0.20588   0.00000  Uiso   1.00
C54    C     0.82707   0.30950   0.19993   0.00000  Uiso   1.00
C55    C     0.71221   0.27583   0.24534   0.00000  Uiso   1.00
C56    C     0.01252   0.28931   0.02095   0.00000  Uiso   1.00
C57    C     0.04971   0.26278   0.09136   0.00000  Uiso   1.00
C58    C     0.04695   0.20351   0.03304   0.00000  Uiso   1.00
C59    C     0.05937   0.10853   0.98184   0.00000  Uiso   1.00
C60    C     0.93724   0.29549   0.83737   0.00000  Uiso   1.00
C61    C     0.99452   0.37123   0.81321   0.00000  Uiso   1.00
C62    C     0.00902   0.40741   0.68456   0.00000  Uiso   1.00
C63    C     0.06355   0.47635   0.68455   0.00000  Uiso   1.00
C64    C     0.89195   0.29726   0.95893   0.00000  Uiso   1.00
C65    C     0.82022   0.27124   0.95280   0.00000  Uiso   1.00
C66    C     0.78840   0.27789   0.07546   0.00000  Uiso   1.00
C67    C     0.97393   0.25776   0.89670   0.00000  Uiso   1.00
C68    C     0.97110   0.19852   0.83827   0.00000  Uiso   1.00
C69    C     0.00828   0.17191   0.90857   0.00000  Uiso   1.00
H70    H     0.03833   0.37813   0.16284   0.00000  Uiso   1.00
H71    H     0.11747   0.49607   0.03381   0.00000  Uiso   1.00
H72    H     0.92871   0.35991   0.30201   0.00000  Uiso   1.00
H73    H     0.07957   0.28721   0.18750   0.00000  Uiso   1.00
H74    H     0.18819   0.61293   0.83598   0.00000  Uiso   1.00
H75    H     0.79015   0.32581   0.40151   0.00000  Uiso   1.00
H76    H     0.10827   0.17249   0.16005   0.00000  Uiso   1.00
H77    H     0.90719   0.27092   0.74064   0.00000  Uiso   1.00
H78    H     0.97914   0.38299   0.58843   0.00000  Uiso   1.00
H79    H     0.79037   0.24682   0.85664   0.00000  Uiso   1.00
H80    H     0.94123   0.17412   0.74213   0.00000  Uiso   1.00
H81    H     0.07591   0.52115   0.47450   0.00000  Uiso   1.00
H82    H     0.67787   0.23402   0.04004   0.00000  Uiso   1.00
H83    H     0.99599   0.08071   0.79856   0.00000  Uiso   1.00
O84    O     0.18173   0.64270   0.56275   0.00000  Uiso   1.00
O85    O     0.65953   0.26599   0.30472   0.00000  Uiso   1.00
O86    O     0.07689   0.06485   0.98791   0.00000  Uiso   1.00
N87    N     0.15190   0.57595   0.77179   0.00000  Uiso   1.00
N88    N     0.77976   0.30751   0.30052   0.00000  Uiso   1.00
N89    N     0.07716   0.16417   0.07479   0.00000  Uiso   1.00
N90    N     0.09148   0.52656   0.57727   0.00000  Uiso   1.00
N91    N     0.71935   0.25812   0.10601   0.00000  Uiso   1.00
N92    N     0.01674   0.11478   0.88028   0.00000  Uiso   1.00
C93    C     0.64643   0.65472   0.73277   0.00000  Uiso   1.00
C94    C     0.59722   0.63033   0.60412   0.00000  Uiso   1.00
C95    C     0.52832   0.61595   0.60430   0.00000  Uiso   1.00
C96    C     0.49205   0.59425   0.47569   0.00000  Uiso   1.00
C97    C     0.41082   0.55741   0.29484   0.00000  Uiso   1.00
C98    C     0.67119   0.60174   0.74984   0.00000  Uiso   1.00
C99    C     0.66450   0.56333   0.87255   0.00000  Uiso   1.00
C100   C     0.69050   0.51757   0.86659   0.00000  Uiso   1.00
C101   C     0.72417   0.43638   0.91201   0.00000  Uiso   1.00
C102   C     0.71069   0.72320   0.68761   0.00000  Uiso   1.00
C103   C     0.73722   0.78693   0.75802   0.00000  Uiso   1.00
C104   C     0.79649   0.84343   0.69970   0.00000  Uiso   1.00
C105   C     0.89147   0.95084   0.64851   0.00000  Uiso   1.00
C106   C     0.70451   0.64175   0.50403   0.00000  Uiso   1.00
C107   C     0.62877   0.62328   0.47988   0.00000  Uiso   1.00
C108   C     0.59259   0.60161   0.35123   0.00000  Uiso   1.00
C109   C     0.52365   0.58720   0.35122   0.00000  Uiso   1.00
C110   C     0.70274   0.59469   0.62560   0.00000  Uiso   1.00
C111   C     0.72876   0.54898   0.61947   0.00000  Uiso   1.00
C112   C     0.72211   0.51051   0.74213   0.00000  Uiso   1.00
C113   C     0.74224   0.71616   0.56337   0.00000  Uiso   1.00
C114   C     0.80148   0.77258   0.50494   0.00000  Uiso   1.00
C115   C     0.82809   0.83638   0.57524   0.00000  Uiso   1.00
H116   H     0.62187   0.66020   0.82951   0.00000  Uiso   1.00
H117   H     0.50393   0.62140   0.70048   0.00000  Uiso   1.00
H118   H     0.64009   0.56879   0.96868   0.00000  Uiso   1.00
H119   H     0.71279   0.79236   0.85417   0.00000  Uiso   1.00
H120   H     0.38707   0.57525   0.50265   0.00000  Uiso   1.00
H121   H     0.67419   0.46435   0.06818   0.00000  Uiso   1.00
H122   H     0.82751   0.93577   0.82672   0.00000  Uiso   1.00
H123   H     0.72908   0.63627   0.40730   0.00000  Uiso   1.00
H124   H     0.61701   0.59616   0.25510   0.00000  Uiso   1.00
H125   H     0.75318   0.54355   0.52331   0.00000  Uiso   1.00
H126   H     0.82588   0.76711   0.40879   0.00000  Uiso   1.00
H127   H     0.47885   0.55476   0.14116   0.00000  Uiso   1.00
H128   H     0.76598   0.44386   0.70671   0.00000  Uiso   1.00
H129   H     0.91929   0.91528   0.46523   0.00000  Uiso   1.00
O130   O     0.35730   0.53903   0.22941   0.00000  Uiso   1.00
O131   O     0.73401   0.39354   0.97138   0.00000  Uiso   1.00
O132   O     0.93515   0.01203   0.65458   0.00000  Uiso   1.00
N133   N     0.42405   0.57595   0.43845   0.00000  Uiso   1.00
N134   N     0.69249   0.47225   0.96719   0.00000  Uiso   1.00
N135   N     0.83583   0.91299   0.74146   0.00000  Uiso   1.00
N136   N     0.47344   0.56492   0.24394   0.00000  Uiso   1.00
N137   N     0.74188   0.46122   0.77268   0.00000  Uiso   1.00
N138   N     0.88522   0.90196   0.54695   0.00000  Uiso   1.00
C139   C     0.65472   0.00829   0.39944   0.00000  Uiso   1.00
C140   C     0.63033   0.03311   0.27079   0.00000  Uiso   1.00
C141   C     0.61595   0.08763   0.27097   0.00000  Uiso   1.00
C142   C     0.59425   0.10221   0.14235   0.00000  Uiso   1.00
C143   C     0.55741   0.14659   0.96150   0.00000  Uiso   1.00
C144   C     0.60174   0.93055   0.41650   0.00000  Uiso   1.00
C145   C     0.56333   0.89883   0.53921   0.00000  Uiso   1.00
C146   C     0.51757   0.82707   0.53326   0.00000  Uiso   1.00
C147   C     0.43638   0.71221   0.57868   0.00000  Uiso   1.00
C148   C     0.72320   0.01252   0.35428   0.00000  Uiso   1.00
C149   C     0.78693   0.04971   0.42469   0.00000  Uiso   1.00
C150   C     0.84343   0.04695   0.36637   0.00000  Uiso   1.00
C151   C     0.95084   0.05937   0.31517   0.00000  Uiso   1.00
C152   C     0.64175   0.93724   0.17070   0.00000  Uiso   1.00
C153   C     0.62328   0.99452   0.14655   0.00000  Uiso   1.00
C154   C     0.60161   0.00902   0.01789   0.00000  Uiso   1.00
C155   C     0.58720   0.06355   0.01788   0.00000  Uiso   1.00
C156   C     0.59469   0.89195   0.29227   0.00000  Uiso   1.00
C157   C     0.54898   0.82022   0.28614   0.00000  Uiso   1.00
C158   C     0.51051   0.78840   0.40880   0.00000  Uiso   1.00
C159   C     0.71616   0.97393   0.23004   0.00000  Uiso   1.00
C160   C     0.77258   0.97110   0.17161   0.00000  Uiso   1.00
C161   C     0.83638   0.00828   0.24191   0.00000  Uiso   1.00
H162   H     0.66020   0.03833   0.49617   0.00000  Uiso   1.00
H163   H     0.62140   0.11747   0.36715   0.00000  Uiso   1.00
H164   H     0.56879   0.92871   0.63535   0.00000  Uiso   1.00
H165   H     0.79236   0.07957   0.52083   0.00000  Uiso   1.00
H166   H     0.57525   0.18819   0.16931   0.00000  Uiso   1.00
H167   H     0.46435   0.79015   0.73485   0.00000  Uiso   1.00
H168   H     0.93577   0.10827   0.49338   0.00000  Uiso   1.00
H169   H     0.63627   0.90719   0.07397   0.00000  Uiso   1.00
H170   H     0.59616   0.97914   0.92176   0.00000  Uiso   1.00
H171   H     0.54355   0.79037   0.18997   0.00000  Uiso   1.00
H172   H     0.76711   0.94123   0.07546   0.00000  Uiso   1.00
H173   H     0.55476   0.07591   0.80783   0.00000  Uiso   1.00
H174   H     0.44386   0.67787   0.37337   0.00000  Uiso   1.00
H175   H     0.91528   0.99599   0.13190   0.00000  Uiso   1.00
O176   O     0.53903   0.18173   0.89608   0.00000  Uiso   1.00
O177   O     0.39354   0.65953   0.63805   0.00000  Uiso   1.00
O178   O     0.01203   0.07689   0.32124   0.00000  Uiso   1.00
N179   N     0.57595   0.15190   0.10512   0.00000  Uiso   1.00
N180   N     0.47225   0.77976   0.63385   0.00000  Uiso   1.00
N181   N     0.91299   0.07716   0.40812   0.00000  Uiso   1.00
N182   N     0.56492   0.09148   0.91061   0.00000  Uiso   1.00
N183   N     0.46122   0.71935   0.43934   0.00000  Uiso   1.00
N184   N     0.90196   0.01674   0.21361   0.00000  Uiso   1.00
C185   C     0.99171   0.64643   0.06611   0.00000  Uiso   1.00
C186   C     0.96689   0.59722   0.93745   0.00000  Uiso   1.00
C187   C     0.91237   0.52832   0.93764   0.00000  Uiso   1.00
C188   C     0.89779   0.49205   0.80902   0.00000  Uiso   1.00
C189   C     0.85341   0.41082   0.62817   0.00000  Uiso   1.00
C190   C     0.06945   0.67119   0.08317   0.00000  Uiso   1.00
C191   C     0.10117   0.66450   0.20588   0.00000  Uiso   1.00
C192   C     0.17293   0.69050   0.19993   0.00000  Uiso   1.00
C193   C     0.28779   0.72417   0.24534   0.00000  Uiso   1.00
C194   C     0.98748   0.71069   0.02095   0.00000  Uiso   1.00
C195   C     0.95029   0.73722   0.09136   0.00000  Uiso   1.00
C196   C     0.95305   0.79649   0.03304   0.00000  Uiso   1.00
C197   C     0.94063   0.89147   0.98184   0.00000  Uiso   1.00
C198   C     0.06276   0.70451   0.83737   0.00000  Uiso   1.00
C199   C     0.00548   0.62877   0.81321   0.00000  Uiso   1.00
C200   C     0.99098   0.59259   0.68456   0.00000  Uiso   1.00
C201   C     0.93645   0.52365   0.68455   0.00000  Uiso   1.00
C202   C     0.10805   0.70274   0.95893   0.00000  Uiso   1.00
C203   C     0.17978   0.72876   0.95280   0.00000  Uiso   1.00
C204   C     0.21160   0.72211   0.07546   0.00000  Uiso   1.00
C205   C     0.02607   0.74224   0.89670   0.00000  Uiso   1.00
C206   C     0.02890   0.80148   0.83827   0.00000  Uiso   1.00
C207   C     0.99172   0.82809   0.90857   0.00000  Uiso   1.00
H208   H     0.96167   0.62187   0.16284   0.00000  Uiso   1.00
H209   H     0.88253   0.50393   0.03381   0.00000  Uiso   1.00
H210   H     0.07129   0.64009   0.30201   0.00000  Uiso   1.00
H211   H     0.92043   0.71279   0.18750   0.00000  Uiso   1.00
H212   H     0.81181   0.38707   0.83598   0.00000  Uiso   1.00
H213   H     0.20985   0.67419   0.40151   0.00000  Uiso   1.00
H214   H     0.89173   0.82751   0.16005   0.00000  Uiso   1.00
H215   H     0.09281   0.72908   0.74064   0.00000  Uiso   1.00
H216   H     0.02086   0.61701   0.58843   0.00000  Uiso   1.00
H217   H     0.20963   0.75318   0.85664   0.00000  Uiso   1.00
H218   H     0.05877   0.82588   0.74213   0.00000  Uiso   1.00
H219   H     0.92409   0.47885   0.47450   0.00000  Uiso   1.00
H220   H     0.32213   0.76598   0.04004   0.00000  Uiso   1.00
H221   H     0.00401   0.91929   0.79856   0.00000  Uiso   1.00
O222   O     0.81827   0.35730   0.56275   0.00000  Uiso   1.00
O223   O     0.34047   0.73401   0.30472   0.00000  Uiso   1.00
O224   O     0.92311   0.93515   0.98791   0.00000  Uiso   1.00
N225   N     0.84810   0.42405   0.77179   0.00000  Uiso   1.00
N226   N     0.22024   0.69249   0.30052   0.00000  Uiso   1.00
N227   N     0.92284   0.83583   0.07479   0.00000  Uiso   1.00
N228   N     0.90852   0.47344   0.57727   0.00000  Uiso   1.00
N229   N     0.28065   0.74188   0.10601   0.00000  Uiso   1.00
N230   N     0.98326   0.88522   0.88028   0.00000  Uiso   1.00
C231   C     0.35357   0.34528   0.73277   0.00000  Uiso   1.00
C232   C     0.40278   0.36967   0.60412   0.00000  Uiso   1.00
C233   C     0.47168   0.38405   0.60430   0.00000  Uiso   1.00
C234   C     0.50795   0.40575   0.47569   0.00000  Uiso   1.00
C235   C     0.58918   0.44259   0.29484   0.00000  Uiso   1.00
C236   C     0.32881   0.39826   0.74984   0.00000  Uiso   1.00
C237   C     0.33550   0.43667   0.87255   0.00000  Uiso   1.00
C238   C     0.30950   0.48243   0.86659   0.00000  Uiso   1.00
C239   C     0.27583   0.56362   0.91201   0.00000  Uiso   1.00
C240   C     0.28931   0.27680   0.68761   0.00000  Uiso   1.00
C241   C     0.26278   0.21307   0.75802   0.00000  Uiso   1.00
C242   C     0.20351   0.15657   0.69970   0.00000  Uiso   1.00
C243   C     0.10853   0.04916   0.64851   0.00000  Uiso   1.00
C244   C     0.29549   0.35825   0.50403   0.00000  Uiso   1.00
C245   C     0.37123   0.37672   0.47988   0.00000  Uiso   1.00
C246   C     0.40741   0.39839   0.35123   0.00000  Uiso   1.00
C247   C     0.47635   0.41280   0.35122   0.00000  Uiso   1.00
C248   C     0.29726   0.40531   0.62560   0.00000  Uiso   1.00
C249   C     0.27124   0.45102   0.61947   0.00000  Uiso   1.00
C250   C     0.27789   0.48949   0.74213   0.00000  Uiso   1.00
C251   C     0.25776   0.28384   0.56337   0.00000  Uiso   1.00
C252   C     0.19852   0.22742   0.50494   0.00000  Uiso   1.00
C253   C     0.17191   0.16362   0.57524   0.00000  Uiso   1.00
H254   H     0.37813   0.33980   0.82951   0.00000  Uiso   1.00
H255   H     0.49607   0.37860   0.70048   0.00000  Uiso   1.00
H256   H     0.35991   0.43121   0.96868   0.00000  Uiso   1.00
H257   H     0.28721   0.20764   0.85417   0.00000  Uiso   1.00
H258   H     0.61293   0.42475   0.50265   0.00000  Uiso   1.00
H259   H     0.32581   0.53565   0.06818   0.00000  Uiso   1.00
H260   H     0.17249   0.06423   0.82672   0.00000  Uiso   1.00
H261   H     0.27092   0.36373   0.40730   0.00000  Uiso   1.00
H262   H     0.38299   0.40384   0.25510   0.00000  Uiso   1.00
H263   H     0.24682   0.45645   0.52331   0.00000  Uiso   1.00
H264   H     0.17412   0.23289   0.40879   0.00000  Uiso   1.00
H265   H     0.52115   0.44524   0.14116   0.00000  Uiso   1.00
H266   H     0.23402   0.55614   0.70671   0.00000  Uiso   1.00
H267   H     0.08071   0.08472   0.46523   0.00000  Uiso   1.00
O268   O     0.64270   0.46097   0.22941   0.00000  Uiso   1.00
O269   O     0.26599   0.60646   0.97138   0.00000  Uiso   1.00
O270   O     0.06485   0.98797   0.65458   0.00000  Uiso   1.00
N271   N     0.57595   0.42405   0.43845   0.00000  Uiso   1.00
N272   N     0.30751   0.52775   0.96719   0.00000  Uiso   1.00
N273   N     0.16417   0.08701   0.74146   0.00000  Uiso   1.00
N274   N     0.52656   0.43508   0.24394   0.00000  Uiso   1.00
N275   N     0.25812   0.53878   0.77268   0.00000  Uiso   1.00
N276   N     0.11478   0.09804   0.54695   0.00000  Uiso   1.00
