data_job_03976
_audit_creation_date              2018-12-19
_audit_creation_method            'Materials Studio'
_symmetry_space_group_name_H-M    'P1'
_symmetry_Int_Tables_number       1
_symmetry_cell_setting            triclinic
loop_
_symmetry_equiv_pos_as_xyz
  x,y,z
_cell_length_a                    25.7447
_cell_length_b                    10.0595
_cell_length_c                    26.6078
_cell_angle_alpha                 90.0000
_cell_angle_beta                  120.9049
_cell_angle_gamma                 90.0000
loop_
_atom_site_label
_atom_site_type_symbol
_atom_site_fract_x
_atom_site_fract_y
_atom_site_fract_z
_atom_site_U_iso_or_equiv
_atom_site_adp_type
_atom_site_occupancy
C1     C     0.29062   0.00534   0.29577   0.00000  Uiso   1.00
C2     C     0.33025   0.09685   0.28376   0.00000  Uiso   1.00
C3     C     0.32098   0.12790   0.22892   0.00000  Uiso   1.00
C4     C     0.36234   0.21352   0.22720   0.00000  Uiso   1.00
C5     C     0.41646   0.34756   0.20075   0.00000  Uiso   1.00
C6     C     0.33265   0.89812   0.33725   0.00000  Uiso   1.00
C7     C     0.32539   0.76208   0.32739   0.00000  Uiso   1.00
C8     C     0.36877   0.68042   0.37069   0.00000  Uiso   1.00
C9     C     0.42659   0.50592   0.42730   0.00000  Uiso   1.00
C10    C     0.27058   0.08741   0.33103   0.00000  Uiso   1.00
C11    C     0.21113   0.11050   0.31595   0.00000  Uiso   1.00
C12    C     0.20225   0.18818   0.35404   0.00000  Uiso   1.00
C13    C     0.16370   0.30758   0.40099   0.00000  Uiso   1.00
C14    C     0.38053   0.10219   0.39022   0.00000  Uiso   1.00
C15    C     0.37909   0.14945   0.33507   0.00000  Uiso   1.00
C16    C     0.42046   0.23506   0.33342   0.00000  Uiso   1.00
C17    C     0.41126   0.26623   0.27859   0.00000  Uiso   1.00
C18    C     0.38148   0.95072   0.38855   0.00000  Uiso   1.00
C19    C     0.42487   0.86924   0.43189   0.00000  Uiso   1.00
C20    C     0.41769   0.73312   0.42209   0.00000  Uiso   1.00
C21    C     0.31941   0.14002   0.38234   0.00000  Uiso   1.00
C22    C     0.31062   0.21767   0.42045   0.00000  Uiso   1.00
C23    C     0.25117   0.24088   0.40543   0.00000  Uiso   1.00
H24    H     0.25260   0.96437   0.25583   0.00000  Uiso   1.00
H25    H     0.28319   0.08715   0.18923   0.00000  Uiso   1.00
H26    H     0.28759   0.72140   0.28768   0.00000  Uiso   1.00
H27    H     0.17335   0.06977   0.27625   0.00000  Uiso   1.00
H28    H     0.33865   0.24644   0.13802   0.00000  Uiso   1.00
H29    H     0.34793   0.47523   0.34562   0.00000  Uiso   1.00
H30    H     0.10703   0.20983   0.32151   0.00000  Uiso   1.00
H31    H     0.41856   0.14315   0.43017   0.00000  Uiso   1.00
H32    H     0.45825   0.27575   0.37313   0.00000  Uiso   1.00
H33    H     0.46266   0.90999   0.47158   0.00000  Uiso   1.00
H34    H     0.34842   0.25836   0.46015   0.00000  Uiso   1.00
H35    H     0.48074   0.39951   0.28728   0.00000  Uiso   1.00
H36    H     0.49002   0.62828   0.49488   0.00000  Uiso   1.00
H37    H     0.24913   0.36290   0.47077   0.00000  Uiso   1.00
O38    O     0.43283   0.40694   0.17198   0.00000  Uiso   1.00
O39    O     0.44500   0.39513   0.44435   0.00000  Uiso   1.00
O40    O     0.12895   0.35892   0.41272   0.00000  Uiso   1.00
N41    N     0.36664   0.26429   0.18097   0.00000  Uiso   1.00
N42    N     0.37532   0.54325   0.37506   0.00000  Uiso   1.00
N43    N     0.15010   0.23001   0.35253   0.00000  Uiso   1.00
N44    N     0.44310   0.34666   0.26129   0.00000  Uiso   1.00
N45    N     0.45178   0.62561   0.45538   0.00000  Uiso   1.00
N46    N     0.22656   0.31238   0.43285   0.00000  Uiso   1.00
C47    C     0.79062   0.50534   0.29577   0.00000  Uiso   1.00
C48    C     0.83025   0.59685   0.28376   0.00000  Uiso   1.00
C49    C     0.82098   0.62790   0.22892   0.00000  Uiso   1.00
C50    C     0.86234   0.71352   0.22720   0.00000  Uiso   1.00
C51    C     0.91646   0.84756   0.20075   0.00000  Uiso   1.00
C52    C     0.83265   0.39812   0.33725   0.00000  Uiso   1.00
C53    C     0.82539   0.26208   0.32739   0.00000  Uiso   1.00
C54    C     0.86877   0.18042   0.37069   0.00000  Uiso   1.00
C55    C     0.92659   0.00592   0.42730   0.00000  Uiso   1.00
C56    C     0.77058   0.58741   0.33103   0.00000  Uiso   1.00
C57    C     0.71113   0.61050   0.31595   0.00000  Uiso   1.00
C58    C     0.70225   0.68818   0.35404   0.00000  Uiso   1.00
C59    C     0.66370   0.80758   0.40099   0.00000  Uiso   1.00
C60    C     0.88053   0.60219   0.39022   0.00000  Uiso   1.00
C61    C     0.87909   0.64945   0.33507   0.00000  Uiso   1.00
C62    C     0.92046   0.73506   0.33342   0.00000  Uiso   1.00
C63    C     0.91126   0.76623   0.27859   0.00000  Uiso   1.00
C64    C     0.88148   0.45072   0.38855   0.00000  Uiso   1.00
C65    C     0.92487   0.36924   0.43189   0.00000  Uiso   1.00
C66    C     0.91769   0.23312   0.42209   0.00000  Uiso   1.00
C67    C     0.81941   0.64002   0.38234   0.00000  Uiso   1.00
C68    C     0.81062   0.71767   0.42045   0.00000  Uiso   1.00
C69    C     0.75117   0.74088   0.40543   0.00000  Uiso   1.00
H70    H     0.75260   0.46437   0.25583   0.00000  Uiso   1.00
H71    H     0.78319   0.58715   0.18923   0.00000  Uiso   1.00
H72    H     0.78759   0.22140   0.28768   0.00000  Uiso   1.00
H73    H     0.67335   0.56977   0.27625   0.00000  Uiso   1.00
H74    H     0.83865   0.74644   0.13802   0.00000  Uiso   1.00
H75    H     0.84793   0.97523   0.34562   0.00000  Uiso   1.00
H76    H     0.60703   0.70983   0.32151   0.00000  Uiso   1.00
H77    H     0.91856   0.64315   0.43017   0.00000  Uiso   1.00
H78    H     0.95825   0.77575   0.37313   0.00000  Uiso   1.00
H79    H     0.96266   0.40999   0.47158   0.00000  Uiso   1.00
H80    H     0.84842   0.75836   0.46015   0.00000  Uiso   1.00
H81    H     0.98074   0.89951   0.28728   0.00000  Uiso   1.00
H82    H     0.99002   0.12828   0.49488   0.00000  Uiso   1.00
H83    H     0.74913   0.86290   0.47077   0.00000  Uiso   1.00
O84    O     0.93283   0.90694   0.17198   0.00000  Uiso   1.00
O85    O     0.94500   0.89513   0.44435   0.00000  Uiso   1.00
O86    O     0.62895   0.85892   0.41272   0.00000  Uiso   1.00
N87    N     0.86664   0.76429   0.18097   0.00000  Uiso   1.00
N88    N     0.87532   0.04325   0.37506   0.00000  Uiso   1.00
N89    N     0.65010   0.73001   0.35253   0.00000  Uiso   1.00
N90    N     0.94310   0.84666   0.26129   0.00000  Uiso   1.00
N91    N     0.95178   0.12561   0.45538   0.00000  Uiso   1.00
N92    N     0.72656   0.81238   0.43285   0.00000  Uiso   1.00
C93    C     0.70938   0.00534   0.20423   0.00000  Uiso   1.00
C94    C     0.66975   0.09685   0.21624   0.00000  Uiso   1.00
C95    C     0.67902   0.12790   0.27108   0.00000  Uiso   1.00
C96    C     0.63766   0.21352   0.27280   0.00000  Uiso   1.00
C97    C     0.58354   0.34756   0.29925   0.00000  Uiso   1.00
C98    C     0.66735   0.89812   0.16275   0.00000  Uiso   1.00
C99    C     0.67461   0.76208   0.17261   0.00000  Uiso   1.00
C100   C     0.63123   0.68042   0.12931   0.00000  Uiso   1.00
C101   C     0.57341   0.50592   0.07270   0.00000  Uiso   1.00
C102   C     0.72942   0.08741   0.16897   0.00000  Uiso   1.00
C103   C     0.78887   0.11050   0.18405   0.00000  Uiso   1.00
C104   C     0.79775   0.18818   0.14596   0.00000  Uiso   1.00
C105   C     0.83630   0.30758   0.09901   0.00000  Uiso   1.00
C106   C     0.61947   0.10219   0.10978   0.00000  Uiso   1.00
C107   C     0.62091   0.14945   0.16493   0.00000  Uiso   1.00
C108   C     0.57954   0.23506   0.16658   0.00000  Uiso   1.00
C109   C     0.58874   0.26623   0.22141   0.00000  Uiso   1.00
C110   C     0.61852   0.95072   0.11145   0.00000  Uiso   1.00
C111   C     0.57513   0.86924   0.06811   0.00000  Uiso   1.00
C112   C     0.58231   0.73312   0.07791   0.00000  Uiso   1.00
C113   C     0.68059   0.14002   0.11766   0.00000  Uiso   1.00
C114   C     0.68938   0.21767   0.07955   0.00000  Uiso   1.00
C115   C     0.74883   0.24088   0.09457   0.00000  Uiso   1.00
H116   H     0.74740   0.96437   0.24417   0.00000  Uiso   1.00
H117   H     0.71681   0.08715   0.31077   0.00000  Uiso   1.00
H118   H     0.71241   0.72140   0.21232   0.00000  Uiso   1.00
H119   H     0.82665   0.06977   0.22375   0.00000  Uiso   1.00
H120   H     0.66135   0.24644   0.36198   0.00000  Uiso   1.00
H121   H     0.65207   0.47523   0.15438   0.00000  Uiso   1.00
H122   H     0.89297   0.20983   0.17849   0.00000  Uiso   1.00
H123   H     0.58144   0.14315   0.06983   0.00000  Uiso   1.00
H124   H     0.54175   0.27575   0.12687   0.00000  Uiso   1.00
H125   H     0.53734   0.90999   0.02842   0.00000  Uiso   1.00
H126   H     0.65158   0.25836   0.03985   0.00000  Uiso   1.00
H127   H     0.51926   0.39951   0.21272   0.00000  Uiso   1.00
H128   H     0.50998   0.62828   0.00512   0.00000  Uiso   1.00
H129   H     0.75087   0.36290   0.02923   0.00000  Uiso   1.00
O130   O     0.56717   0.40694   0.32802   0.00000  Uiso   1.00
O131   O     0.55500   0.39513   0.05565   0.00000  Uiso   1.00
O132   O     0.87105   0.35892   0.08728   0.00000  Uiso   1.00
N133   N     0.63336   0.26429   0.31903   0.00000  Uiso   1.00
N134   N     0.62468   0.54325   0.12494   0.00000  Uiso   1.00
N135   N     0.84990   0.23001   0.14747   0.00000  Uiso   1.00
N136   N     0.55690   0.34666   0.23871   0.00000  Uiso   1.00
N137   N     0.54822   0.62561   0.04462   0.00000  Uiso   1.00
N138   N     0.77344   0.31238   0.06715   0.00000  Uiso   1.00
C139   C     0.20938   0.50534   0.20423   0.00000  Uiso   1.00
C140   C     0.16975   0.59685   0.21624   0.00000  Uiso   1.00
C141   C     0.17902   0.62790   0.27108   0.00000  Uiso   1.00
C142   C     0.13766   0.71352   0.27280   0.00000  Uiso   1.00
C143   C     0.08354   0.84756   0.29925   0.00000  Uiso   1.00
C144   C     0.16735   0.39812   0.16275   0.00000  Uiso   1.00
C145   C     0.17461   0.26208   0.17261   0.00000  Uiso   1.00
C146   C     0.13123   0.18042   0.12931   0.00000  Uiso   1.00
C147   C     0.07341   0.00592   0.07270   0.00000  Uiso   1.00
C148   C     0.22942   0.58741   0.16897   0.00000  Uiso   1.00
C149   C     0.28887   0.61050   0.18405   0.00000  Uiso   1.00
C150   C     0.29775   0.68818   0.14596   0.00000  Uiso   1.00
C151   C     0.33630   0.80758   0.09901   0.00000  Uiso   1.00
C152   C     0.11947   0.60219   0.10978   0.00000  Uiso   1.00
C153   C     0.12091   0.64945   0.16493   0.00000  Uiso   1.00
C154   C     0.07954   0.73506   0.16658   0.00000  Uiso   1.00
C155   C     0.08874   0.76623   0.22141   0.00000  Uiso   1.00
C156   C     0.11852   0.45072   0.11145   0.00000  Uiso   1.00
C157   C     0.07513   0.36924   0.06811   0.00000  Uiso   1.00
C158   C     0.08231   0.23312   0.07791   0.00000  Uiso   1.00
C159   C     0.18059   0.64002   0.11766   0.00000  Uiso   1.00
C160   C     0.18938   0.71767   0.07955   0.00000  Uiso   1.00
C161   C     0.24883   0.74088   0.09457   0.00000  Uiso   1.00
H162   H     0.24740   0.46437   0.24417   0.00000  Uiso   1.00
H163   H     0.21681   0.58715   0.31077   0.00000  Uiso   1.00
H164   H     0.21241   0.22140   0.21232   0.00000  Uiso   1.00
H165   H     0.32665   0.56977   0.22375   0.00000  Uiso   1.00
H166   H     0.16135   0.74644   0.36198   0.00000  Uiso   1.00
H167   H     0.15207   0.97523   0.15438   0.00000  Uiso   1.00
H168   H     0.39297   0.70983   0.17849   0.00000  Uiso   1.00
H169   H     0.08144   0.64315   0.06983   0.00000  Uiso   1.00
H170   H     0.04175   0.77575   0.12687   0.00000  Uiso   1.00
H171   H     0.03734   0.40999   0.02842   0.00000  Uiso   1.00
H172   H     0.15158   0.75836   0.03985   0.00000  Uiso   1.00
H173   H     0.01926   0.89951   0.21272   0.00000  Uiso   1.00
H174   H     0.00998   0.12828   0.00512   0.00000  Uiso   1.00
H175   H     0.25087   0.86290   0.02923   0.00000  Uiso   1.00
O176   O     0.06717   0.90694   0.32802   0.00000  Uiso   1.00
O177   O     0.05500   0.89513   0.05565   0.00000  Uiso   1.00
O178   O     0.37105   0.85892   0.08728   0.00000  Uiso   1.00
N179   N     0.13336   0.76429   0.31903   0.00000  Uiso   1.00
N180   N     0.12468   0.04325   0.12494   0.00000  Uiso   1.00
N181   N     0.34990   0.73001   0.14747   0.00000  Uiso   1.00
N182   N     0.05690   0.84666   0.23871   0.00000  Uiso   1.00
N183   N     0.04822   0.12561   0.04462   0.00000  Uiso   1.00
N184   N     0.27344   0.81238   0.06715   0.00000  Uiso   1.00
C185   C     0.70938   0.99466   0.70423   0.00000  Uiso   1.00
C186   C     0.66975   0.90315   0.71624   0.00000  Uiso   1.00
C187   C     0.67902   0.87210   0.77108   0.00000  Uiso   1.00
C188   C     0.63766   0.78648   0.77280   0.00000  Uiso   1.00
C189   C     0.58354   0.65244   0.79925   0.00000  Uiso   1.00
C190   C     0.66735   0.10188   0.66275   0.00000  Uiso   1.00
C191   C     0.67461   0.23792   0.67261   0.00000  Uiso   1.00
C192   C     0.63123   0.31958   0.62931   0.00000  Uiso   1.00
C193   C     0.57341   0.49408   0.57270   0.00000  Uiso   1.00
C194   C     0.72942   0.91259   0.66897   0.00000  Uiso   1.00
C195   C     0.78887   0.88950   0.68405   0.00000  Uiso   1.00
C196   C     0.79775   0.81182   0.64596   0.00000  Uiso   1.00
C197   C     0.83630   0.69242   0.59901   0.00000  Uiso   1.00
C198   C     0.61947   0.89781   0.60978   0.00000  Uiso   1.00
C199   C     0.62091   0.85055   0.66493   0.00000  Uiso   1.00
C200   C     0.57954   0.76494   0.66658   0.00000  Uiso   1.00
C201   C     0.58874   0.73377   0.72141   0.00000  Uiso   1.00
C202   C     0.61852   0.04928   0.61145   0.00000  Uiso   1.00
C203   C     0.57513   0.13076   0.56811   0.00000  Uiso   1.00
C204   C     0.58231   0.26688   0.57791   0.00000  Uiso   1.00
C205   C     0.68059   0.85998   0.61766   0.00000  Uiso   1.00
C206   C     0.68938   0.78233   0.57955   0.00000  Uiso   1.00
C207   C     0.74883   0.75912   0.59457   0.00000  Uiso   1.00
H208   H     0.74740   0.03563   0.74417   0.00000  Uiso   1.00
H209   H     0.71681   0.91285   0.81077   0.00000  Uiso   1.00
H210   H     0.71241   0.27860   0.71232   0.00000  Uiso   1.00
H211   H     0.82665   0.93023   0.72375   0.00000  Uiso   1.00
H212   H     0.66135   0.75356   0.86198   0.00000  Uiso   1.00
H213   H     0.65207   0.52477   0.65438   0.00000  Uiso   1.00
H214   H     0.89297   0.79017   0.67849   0.00000  Uiso   1.00
H215   H     0.58144   0.85685   0.56983   0.00000  Uiso   1.00
H216   H     0.54175   0.72425   0.62687   0.00000  Uiso   1.00
H217   H     0.53734   0.09001   0.52842   0.00000  Uiso   1.00
H218   H     0.65158   0.74164   0.53985   0.00000  Uiso   1.00
H219   H     0.51926   0.60049   0.71272   0.00000  Uiso   1.00
H220   H     0.50998   0.37172   0.50512   0.00000  Uiso   1.00
H221   H     0.75087   0.63710   0.52923   0.00000  Uiso   1.00
O222   O     0.56717   0.59306   0.82802   0.00000  Uiso   1.00
O223   O     0.55500   0.60487   0.55565   0.00000  Uiso   1.00
O224   O     0.87105   0.64108   0.58728   0.00000  Uiso   1.00
N225   N     0.63336   0.73571   0.81903   0.00000  Uiso   1.00
N226   N     0.62468   0.45675   0.62494   0.00000  Uiso   1.00
N227   N     0.84990   0.76999   0.64747   0.00000  Uiso   1.00
N228   N     0.55690   0.65334   0.73871   0.00000  Uiso   1.00
N229   N     0.54822   0.37439   0.54462   0.00000  Uiso   1.00
N230   N     0.77344   0.68762   0.56715   0.00000  Uiso   1.00
C231   C     0.20938   0.49466   0.70423   0.00000  Uiso   1.00
C232   C     0.16975   0.40315   0.71624   0.00000  Uiso   1.00
C233   C     0.17902   0.37210   0.77108   0.00000  Uiso   1.00
C234   C     0.13766   0.28648   0.77280   0.00000  Uiso   1.00
C235   C     0.08354   0.15244   0.79925   0.00000  Uiso   1.00
C236   C     0.16735   0.60188   0.66275   0.00000  Uiso   1.00
C237   C     0.17461   0.73792   0.67261   0.00000  Uiso   1.00
C238   C     0.13123   0.81958   0.62931   0.00000  Uiso   1.00
C239   C     0.07341   0.99408   0.57270   0.00000  Uiso   1.00
C240   C     0.22942   0.41259   0.66897   0.00000  Uiso   1.00
C241   C     0.28887   0.38950   0.68405   0.00000  Uiso   1.00
C242   C     0.29775   0.31182   0.64596   0.00000  Uiso   1.00
C243   C     0.33630   0.19242   0.59901   0.00000  Uiso   1.00
C244   C     0.11947   0.39781   0.60978   0.00000  Uiso   1.00
C245   C     0.12091   0.35055   0.66493   0.00000  Uiso   1.00
C246   C     0.07954   0.26494   0.66658   0.00000  Uiso   1.00
C247   C     0.08874   0.23377   0.72141   0.00000  Uiso   1.00
C248   C     0.11852   0.54928   0.61145   0.00000  Uiso   1.00
C249   C     0.07513   0.63076   0.56811   0.00000  Uiso   1.00
C250   C     0.08231   0.76688   0.57791   0.00000  Uiso   1.00
C251   C     0.18059   0.35998   0.61766   0.00000  Uiso   1.00
C252   C     0.18938   0.28233   0.57955   0.00000  Uiso   1.00
C253   C     0.24883   0.25912   0.59457   0.00000  Uiso   1.00
H254   H     0.24740   0.53563   0.74417   0.00000  Uiso   1.00
H255   H     0.21681   0.41285   0.81077   0.00000  Uiso   1.00
H256   H     0.21241   0.77860   0.71232   0.00000  Uiso   1.00
H257   H     0.32665   0.43023   0.72375   0.00000  Uiso   1.00
H258   H     0.16135   0.25356   0.86198   0.00000  Uiso   1.00
H259   H     0.15207   0.02477   0.65438   0.00000  Uiso   1.00
H260   H     0.39297   0.29017   0.67849   0.00000  Uiso   1.00
H261   H     0.08144   0.35685   0.56983   0.00000  Uiso   1.00
H262   H     0.04175   0.22425   0.62687   0.00000  Uiso   1.00
H263   H     0.03734   0.59001   0.52842   0.00000  Uiso   1.00
H264   H     0.15158   0.24164   0.53985   0.00000  Uiso   1.00
H265   H     0.01926   0.10049   0.71272   0.00000  Uiso   1.00
H266   H     0.00998   0.87172   0.50512   0.00000  Uiso   1.00
H267   H     0.25087   0.13710   0.52923   0.00000  Uiso   1.00
O268   O     0.06717   0.09306   0.82802   0.00000  Uiso   1.00
O269   O     0.05500   0.10487   0.55565   0.00000  Uiso   1.00
O270   O     0.37105   0.14108   0.58728   0.00000  Uiso   1.00
N271   N     0.13336   0.23571   0.81903   0.00000  Uiso   1.00
N272   N     0.12468   0.95675   0.62494   0.00000  Uiso   1.00
N273   N     0.34990   0.26999   0.64747   0.00000  Uiso   1.00
N274   N     0.05690   0.15334   0.73871   0.00000  Uiso   1.00
N275   N     0.04822   0.87439   0.54462   0.00000  Uiso   1.00
N276   N     0.27344   0.18762   0.56715   0.00000  Uiso   1.00
C277   C     0.29062   0.99466   0.79577   0.00000  Uiso   1.00
C278   C     0.33025   0.90315   0.78376   0.00000  Uiso   1.00
C279   C     0.32098   0.87210   0.72892   0.00000  Uiso   1.00
C280   C     0.36234   0.78648   0.72720   0.00000  Uiso   1.00
C281   C     0.41646   0.65244   0.70075   0.00000  Uiso   1.00
C282   C     0.33265   0.10188   0.83725   0.00000  Uiso   1.00
C283   C     0.32539   0.23792   0.82739   0.00000  Uiso   1.00
C284   C     0.36877   0.31958   0.87069   0.00000  Uiso   1.00
C285   C     0.42659   0.49408   0.92730   0.00000  Uiso   1.00
C286   C     0.27058   0.91259   0.83103   0.00000  Uiso   1.00
C287   C     0.21113   0.88950   0.81595   0.00000  Uiso   1.00
C288   C     0.20225   0.81182   0.85404   0.00000  Uiso   1.00
C289   C     0.16370   0.69242   0.90099   0.00000  Uiso   1.00
C290   C     0.38053   0.89781   0.89022   0.00000  Uiso   1.00
C291   C     0.37909   0.85055   0.83507   0.00000  Uiso   1.00
C292   C     0.42046   0.76494   0.83342   0.00000  Uiso   1.00
C293   C     0.41126   0.73377   0.77859   0.00000  Uiso   1.00
C294   C     0.38148   0.04928   0.88855   0.00000  Uiso   1.00
C295   C     0.42487   0.13076   0.93189   0.00000  Uiso   1.00
C296   C     0.41769   0.26688   0.92209   0.00000  Uiso   1.00
C297   C     0.31941   0.85998   0.88234   0.00000  Uiso   1.00
C298   C     0.31062   0.78233   0.92045   0.00000  Uiso   1.00
C299   C     0.25117   0.75912   0.90543   0.00000  Uiso   1.00
H300   H     0.25260   0.03563   0.75583   0.00000  Uiso   1.00
H301   H     0.28319   0.91285   0.68923   0.00000  Uiso   1.00
H302   H     0.28759   0.27860   0.78768   0.00000  Uiso   1.00
H303   H     0.17335   0.93023   0.77625   0.00000  Uiso   1.00
H304   H     0.33865   0.75356   0.63802   0.00000  Uiso   1.00
H305   H     0.34793   0.52477   0.84562   0.00000  Uiso   1.00
H306   H     0.10703   0.79017   0.82151   0.00000  Uiso   1.00
H307   H     0.41856   0.85685   0.93017   0.00000  Uiso   1.00
H308   H     0.45825   0.72425   0.87313   0.00000  Uiso   1.00
H309   H     0.46266   0.09001   0.97158   0.00000  Uiso   1.00
H310   H     0.34842   0.74164   0.96015   0.00000  Uiso   1.00
H311   H     0.48074   0.60049   0.78728   0.00000  Uiso   1.00
H312   H     0.49002   0.37172   0.99488   0.00000  Uiso   1.00
H313   H     0.24913   0.63710   0.97077   0.00000  Uiso   1.00
O314   O     0.43283   0.59306   0.67198   0.00000  Uiso   1.00
O315   O     0.44500   0.60487   0.94435   0.00000  Uiso   1.00
O316   O     0.12895   0.64108   0.91272   0.00000  Uiso   1.00
N317   N     0.36664   0.73571   0.68097   0.00000  Uiso   1.00
N318   N     0.37532   0.45675   0.87506   0.00000  Uiso   1.00
N319   N     0.15010   0.76999   0.85253   0.00000  Uiso   1.00
N320   N     0.44310   0.65334   0.76129   0.00000  Uiso   1.00
N321   N     0.45178   0.37439   0.95538   0.00000  Uiso   1.00
N322   N     0.22656   0.68762   0.93285   0.00000  Uiso   1.00
C323   C     0.79062   0.49466   0.79577   0.00000  Uiso   1.00
C324   C     0.83025   0.40315   0.78376   0.00000  Uiso   1.00
C325   C     0.82098   0.37210   0.72892   0.00000  Uiso   1.00
C326   C     0.86234   0.28648   0.72720   0.00000  Uiso   1.00
C327   C     0.91646   0.15244   0.70075   0.00000  Uiso   1.00
C328   C     0.83265   0.60188   0.83725   0.00000  Uiso   1.00
C329   C     0.82539   0.73792   0.82739   0.00000  Uiso   1.00
C330   C     0.86877   0.81958   0.87069   0.00000  Uiso   1.00
C331   C     0.92659   0.99408   0.92730   0.00000  Uiso   1.00
C332   C     0.77058   0.41259   0.83103   0.00000  Uiso   1.00
C333   C     0.71113   0.38950   0.81595   0.00000  Uiso   1.00
C334   C     0.70225   0.31182   0.85404   0.00000  Uiso   1.00
C335   C     0.66370   0.19242   0.90099   0.00000  Uiso   1.00
C336   C     0.88053   0.39781   0.89022   0.00000  Uiso   1.00
C337   C     0.87909   0.35055   0.83507   0.00000  Uiso   1.00
C338   C     0.92046   0.26494   0.83342   0.00000  Uiso   1.00
C339   C     0.91126   0.23377   0.77859   0.00000  Uiso   1.00
C340   C     0.88148   0.54928   0.88855   0.00000  Uiso   1.00
C341   C     0.92487   0.63076   0.93189   0.00000  Uiso   1.00
C342   C     0.91769   0.76688   0.92209   0.00000  Uiso   1.00
C343   C     0.81941   0.35998   0.88234   0.00000  Uiso   1.00
C344   C     0.81062   0.28233   0.92045   0.00000  Uiso   1.00
C345   C     0.75117   0.25912   0.90543   0.00000  Uiso   1.00
H346   H     0.75260   0.53563   0.75583   0.00000  Uiso   1.00
H347   H     0.78319   0.41285   0.68923   0.00000  Uiso   1.00
H348   H     0.78759   0.77860   0.78768   0.00000  Uiso   1.00
H349   H     0.67335   0.43023   0.77625   0.00000  Uiso   1.00
H350   H     0.83865   0.25356   0.63802   0.00000  Uiso   1.00
H351   H     0.84793   0.02477   0.84562   0.00000  Uiso   1.00
H352   H     0.60703   0.29017   0.82151   0.00000  Uiso   1.00
H353   H     0.91856   0.35685   0.93017   0.00000  Uiso   1.00
H354   H     0.95825   0.22425   0.87313   0.00000  Uiso   1.00
H355   H     0.96266   0.59001   0.97158   0.00000  Uiso   1.00
H356   H     0.84842   0.24164   0.96015   0.00000  Uiso   1.00
H357   H     0.98074   0.10049   0.78728   0.00000  Uiso   1.00
H358   H     0.99002   0.87172   0.99488   0.00000  Uiso   1.00
H359   H     0.74913   0.13710   0.97077   0.00000  Uiso   1.00
O360   O     0.93283   0.09306   0.67198   0.00000  Uiso   1.00
O361   O     0.94500   0.10487   0.94435   0.00000  Uiso   1.00
O362   O     0.62895   0.14108   0.91272   0.00000  Uiso   1.00
N363   N     0.86664   0.23571   0.68097   0.00000  Uiso   1.00
N364   N     0.87532   0.95675   0.87506   0.00000  Uiso   1.00
N365   N     0.65010   0.26999   0.85253   0.00000  Uiso   1.00
N366   N     0.94310   0.15334   0.76129   0.00000  Uiso   1.00
N367   N     0.95178   0.87439   0.95538   0.00000  Uiso   1.00
N368   N     0.72656   0.18762   0.93285   0.00000  Uiso   1.00
