data_job_05002
_audit_creation_date              2018-12-19
_audit_creation_method            'Materials Studio'
_symmetry_space_group_name_H-M    'P1'
_symmetry_Int_Tables_number       1
_symmetry_cell_setting            triclinic
loop_
_symmetry_equiv_pos_as_xyz
  x,y,z
_cell_length_a                    18.9339
_cell_length_b                    14.9238
_cell_length_c                    9.9735
_cell_angle_alpha                 90.0000
_cell_angle_beta                  86.9448
_cell_angle_gamma                 90.0000
loop_
_atom_site_label
_atom_site_type_symbol
_atom_site_fract_x
_atom_site_fract_y
_atom_site_fract_z
_atom_site_U_iso_or_equiv
_atom_site_adp_type
_atom_site_occupancy
C1     C     0.84965   0.17696   0.17528   0.00000  Uiso   1.00
C2     C     0.77854   0.13932   0.13735   0.00000  Uiso   1.00
C3     C     0.76885   0.06934   0.04856   0.00000  Uiso   1.00
C4     C     0.69959   0.04486   0.02727   0.00000  Uiso   1.00
C5     C     0.59792   0.97976   0.95840   0.00000  Uiso   1.00
C6     C     0.84774   0.27678   0.14300   0.00000  Uiso   1.00
C7     C     0.89622   0.32237   0.05897   0.00000  Uiso   1.00
C8     C     0.88522   0.41360   0.04246   0.00000  Uiso   1.00
C9     C     0.89099   0.56192   0.98244   0.00000  Uiso   1.00
C10    C     0.85020   0.17025   0.32778   0.00000  Uiso   1.00
C11    C     0.90078   0.12629   0.39913   0.00000  Uiso   1.00
C12    C     0.89186   0.12785   0.53820   0.00000  Uiso   1.00
C13    C     0.90147   0.11077   0.76508   0.00000  Uiso   1.00
C14    C     0.74391   0.25791   0.29539   0.00000  Uiso   1.00
C15    C     0.72111   0.18329   0.20259   0.00000  Uiso   1.00
C16    C     0.65185   0.15890   0.18144   0.00000  Uiso   1.00
C17    C     0.64205   0.08890   0.09263   0.00000  Uiso   1.00
C18    C     0.79030   0.32075   0.20823   0.00000  Uiso   1.00
C19    C     0.77923   0.41193   0.19186   0.00000  Uiso   1.00
C20    C     0.82768   0.45765   0.10782   0.00000  Uiso   1.00
C21    C     0.79277   0.21422   0.39302   0.00000  Uiso   1.00
C22    C     0.78378   0.21585   0.53201   0.00000  Uiso   1.00
C23    C     0.83432   0.17190   0.60355   0.00000  Uiso   1.00
H24    H     0.89437   0.14273   0.12449   0.00000  Uiso   1.00
H25    H     0.81331   0.03534   0.99808   0.00000  Uiso   1.00
H26    H     0.94067   0.28833   0.00851   0.00000  Uiso   1.00
H27    H     0.94521   0.09228   0.34861   0.00000  Uiso   1.00
H28    H     0.69811   0.93569   0.88667   0.00000  Uiso   1.00
H29    H     0.96666   0.46913   0.90869   0.00000  Uiso   1.00
H30    H     0.97626   0.05572   0.62586   0.00000  Uiso   1.00
H31    H     0.69919   0.29214   0.34618   0.00000  Uiso   1.00
H32    H     0.60742   0.19294   0.23194   0.00000  Uiso   1.00
H33    H     0.73478   0.44593   0.24236   0.00000  Uiso   1.00
H34    H     0.73932   0.24988   0.58246   0.00000  Uiso   1.00
H35    H     0.53100   0.06361   0.07647   0.00000  Uiso   1.00
H36    H     0.79956   0.59706   0.09850   0.00000  Uiso   1.00
H37    H     0.80915   0.18364   0.81567   0.00000  Uiso   1.00
O38    O     0.55771   0.93172   0.90238   0.00000  Uiso   1.00
O39    O     0.91005   0.63158   0.93130   0.00000  Uiso   1.00
O40    O     0.92263   0.08919   0.87220   0.00000  Uiso   1.00
N41    N     0.67138   0.97940   0.94703   0.00000  Uiso   1.00
N42    N     0.92245   0.47813   0.96761   0.00000  Uiso   1.00
N43    N     0.93143   0.09165   0.63810   0.00000  Uiso   1.00
N44    N     0.58146   0.04823   0.04917   0.00000  Uiso   1.00
N45    N     0.83253   0.54696   0.06974   0.00000  Uiso   1.00
N46    N     0.84151   0.16048   0.74024   0.00000  Uiso   1.00
C47    C     0.15035   0.17696   0.32472   0.00000  Uiso   1.00
C48    C     0.22146   0.13932   0.36265   0.00000  Uiso   1.00
C49    C     0.23115   0.06934   0.45144   0.00000  Uiso   1.00
C50    C     0.30041   0.04486   0.47273   0.00000  Uiso   1.00
C51    C     0.40208   0.97976   0.54160   0.00000  Uiso   1.00
C52    C     0.15226   0.27678   0.35700   0.00000  Uiso   1.00
C53    C     0.10378   0.32237   0.44103   0.00000  Uiso   1.00
C54    C     0.11478   0.41360   0.45754   0.00000  Uiso   1.00
C55    C     0.10901   0.56192   0.51756   0.00000  Uiso   1.00
C56    C     0.14980   0.17025   0.17222   0.00000  Uiso   1.00
C57    C     0.09922   0.12629   0.10087   0.00000  Uiso   1.00
C58    C     0.10814   0.12785   0.96180   0.00000  Uiso   1.00
C59    C     0.09853   0.11077   0.73492   0.00000  Uiso   1.00
C60    C     0.25609   0.25791   0.20461   0.00000  Uiso   1.00
C61    C     0.27889   0.18329   0.29741   0.00000  Uiso   1.00
C62    C     0.34815   0.15890   0.31856   0.00000  Uiso   1.00
C63    C     0.35795   0.08890   0.40737   0.00000  Uiso   1.00
C64    C     0.20970   0.32075   0.29177   0.00000  Uiso   1.00
C65    C     0.22077   0.41193   0.30814   0.00000  Uiso   1.00
C66    C     0.17232   0.45765   0.39218   0.00000  Uiso   1.00
C67    C     0.20723   0.21422   0.10698   0.00000  Uiso   1.00
C68    C     0.21622   0.21585   0.96799   0.00000  Uiso   1.00
C69    C     0.16568   0.17190   0.89645   0.00000  Uiso   1.00
H70    H     0.10563   0.14273   0.37551   0.00000  Uiso   1.00
H71    H     0.18669   0.03534   0.50192   0.00000  Uiso   1.00
H72    H     0.05933   0.28833   0.49149   0.00000  Uiso   1.00
H73    H     0.05479   0.09228   0.15139   0.00000  Uiso   1.00
H74    H     0.30189   0.93569   0.61333   0.00000  Uiso   1.00
H75    H     0.03334   0.46913   0.59131   0.00000  Uiso   1.00
H76    H     0.02374   0.05572   0.87414   0.00000  Uiso   1.00
H77    H     0.30081   0.29214   0.15382   0.00000  Uiso   1.00
H78    H     0.39258   0.19294   0.26806   0.00000  Uiso   1.00
H79    H     0.26522   0.44593   0.25764   0.00000  Uiso   1.00
H80    H     0.26068   0.24988   0.91754   0.00000  Uiso   1.00
H81    H     0.46900   0.06361   0.42353   0.00000  Uiso   1.00
H82    H     0.20044   0.59706   0.40150   0.00000  Uiso   1.00
H83    H     0.19085   0.18364   0.68433   0.00000  Uiso   1.00
O84    O     0.44229   0.93172   0.59762   0.00000  Uiso   1.00
O85    O     0.08995   0.63158   0.56870   0.00000  Uiso   1.00
O86    O     0.07737   0.08919   0.62780   0.00000  Uiso   1.00
N87    N     0.32862   0.97940   0.55297   0.00000  Uiso   1.00
N88    N     0.07755   0.47813   0.53239   0.00000  Uiso   1.00
N89    N     0.06857   0.09165   0.86190   0.00000  Uiso   1.00
N90    N     0.41854   0.04823   0.45083   0.00000  Uiso   1.00
N91    N     0.16747   0.54696   0.43026   0.00000  Uiso   1.00
N92    N     0.15849   0.16048   0.75976   0.00000  Uiso   1.00
C93    C     0.15035   0.82304   0.82472   0.00000  Uiso   1.00
C94    C     0.22146   0.86068   0.86265   0.00000  Uiso   1.00
C95    C     0.23115   0.93066   0.95144   0.00000  Uiso   1.00
C96    C     0.30041   0.95514   0.97273   0.00000  Uiso   1.00
C97    C     0.40208   0.02024   0.04160   0.00000  Uiso   1.00
C98    C     0.15226   0.72322   0.85700   0.00000  Uiso   1.00
C99    C     0.10378   0.67763   0.94103   0.00000  Uiso   1.00
C100   C     0.11478   0.58640   0.95754   0.00000  Uiso   1.00
C101   C     0.10901   0.43808   0.01756   0.00000  Uiso   1.00
C102   C     0.14980   0.82975   0.67222   0.00000  Uiso   1.00
C103   C     0.09922   0.87371   0.60087   0.00000  Uiso   1.00
C104   C     0.10814   0.87215   0.46180   0.00000  Uiso   1.00
C105   C     0.09853   0.88923   0.23492   0.00000  Uiso   1.00
C106   C     0.25609   0.74209   0.70461   0.00000  Uiso   1.00
C107   C     0.27889   0.81671   0.79741   0.00000  Uiso   1.00
C108   C     0.34815   0.84110   0.81856   0.00000  Uiso   1.00
C109   C     0.35795   0.91110   0.90737   0.00000  Uiso   1.00
C110   C     0.20970   0.67925   0.79177   0.00000  Uiso   1.00
C111   C     0.22077   0.58807   0.80814   0.00000  Uiso   1.00
C112   C     0.17232   0.54235   0.89218   0.00000  Uiso   1.00
C113   C     0.20723   0.78578   0.60698   0.00000  Uiso   1.00
C114   C     0.21622   0.78415   0.46799   0.00000  Uiso   1.00
C115   C     0.16568   0.82810   0.39645   0.00000  Uiso   1.00
H116   H     0.10563   0.85727   0.87551   0.00000  Uiso   1.00
H117   H     0.18669   0.96466   0.00192   0.00000  Uiso   1.00
H118   H     0.05933   0.71167   0.99149   0.00000  Uiso   1.00
H119   H     0.05479   0.90772   0.65139   0.00000  Uiso   1.00
H120   H     0.30189   0.06431   0.11333   0.00000  Uiso   1.00
H121   H     0.03334   0.53087   0.09131   0.00000  Uiso   1.00
H122   H     0.02374   0.94428   0.37414   0.00000  Uiso   1.00
H123   H     0.30081   0.70786   0.65382   0.00000  Uiso   1.00
H124   H     0.39258   0.80706   0.76806   0.00000  Uiso   1.00
H125   H     0.26522   0.55407   0.75764   0.00000  Uiso   1.00
H126   H     0.26068   0.75012   0.41754   0.00000  Uiso   1.00
H127   H     0.46900   0.93639   0.92353   0.00000  Uiso   1.00
H128   H     0.20044   0.40294   0.90150   0.00000  Uiso   1.00
H129   H     0.19085   0.81636   0.18433   0.00000  Uiso   1.00
O130   O     0.44229   0.06828   0.09762   0.00000  Uiso   1.00
O131   O     0.08995   0.36842   0.06870   0.00000  Uiso   1.00
O132   O     0.07737   0.91081   0.12780   0.00000  Uiso   1.00
N133   N     0.32862   0.02060   0.05297   0.00000  Uiso   1.00
N134   N     0.07755   0.52187   0.03239   0.00000  Uiso   1.00
N135   N     0.06857   0.90835   0.36190   0.00000  Uiso   1.00
N136   N     0.41854   0.95177   0.95083   0.00000  Uiso   1.00
N137   N     0.16747   0.45304   0.93026   0.00000  Uiso   1.00
N138   N     0.15849   0.83952   0.25976   0.00000  Uiso   1.00
C139   C     0.84965   0.82304   0.67528   0.00000  Uiso   1.00
C140   C     0.77854   0.86068   0.63735   0.00000  Uiso   1.00
C141   C     0.76885   0.93066   0.54856   0.00000  Uiso   1.00
C142   C     0.69959   0.95514   0.52727   0.00000  Uiso   1.00
C143   C     0.59792   0.02024   0.45840   0.00000  Uiso   1.00
C144   C     0.84774   0.72322   0.64300   0.00000  Uiso   1.00
C145   C     0.89622   0.67763   0.55897   0.00000  Uiso   1.00
C146   C     0.88522   0.58640   0.54246   0.00000  Uiso   1.00
C147   C     0.89099   0.43808   0.48244   0.00000  Uiso   1.00
C148   C     0.85020   0.82975   0.82778   0.00000  Uiso   1.00
C149   C     0.90078   0.87371   0.89913   0.00000  Uiso   1.00
C150   C     0.89186   0.87215   0.03820   0.00000  Uiso   1.00
C151   C     0.90147   0.88923   0.26508   0.00000  Uiso   1.00
C152   C     0.74391   0.74209   0.79539   0.00000  Uiso   1.00
C153   C     0.72111   0.81671   0.70259   0.00000  Uiso   1.00
C154   C     0.65185   0.84110   0.68144   0.00000  Uiso   1.00
C155   C     0.64205   0.91110   0.59263   0.00000  Uiso   1.00
C156   C     0.79030   0.67925   0.70823   0.00000  Uiso   1.00
C157   C     0.77923   0.58807   0.69186   0.00000  Uiso   1.00
C158   C     0.82768   0.54235   0.60782   0.00000  Uiso   1.00
C159   C     0.79277   0.78578   0.89302   0.00000  Uiso   1.00
C160   C     0.78378   0.78415   0.03201   0.00000  Uiso   1.00
C161   C     0.83432   0.82810   0.10355   0.00000  Uiso   1.00
H162   H     0.89437   0.85727   0.62449   0.00000  Uiso   1.00
H163   H     0.81331   0.96466   0.49808   0.00000  Uiso   1.00
H164   H     0.94067   0.71167   0.50851   0.00000  Uiso   1.00
H165   H     0.94521   0.90772   0.84861   0.00000  Uiso   1.00
H166   H     0.69811   0.06431   0.38667   0.00000  Uiso   1.00
H167   H     0.96666   0.53087   0.40869   0.00000  Uiso   1.00
H168   H     0.97626   0.94428   0.12586   0.00000  Uiso   1.00
H169   H     0.69919   0.70786   0.84618   0.00000  Uiso   1.00
H170   H     0.60742   0.80706   0.73194   0.00000  Uiso   1.00
H171   H     0.73478   0.55407   0.74236   0.00000  Uiso   1.00
H172   H     0.73932   0.75012   0.08246   0.00000  Uiso   1.00
H173   H     0.53100   0.93639   0.57647   0.00000  Uiso   1.00
H174   H     0.79956   0.40294   0.59850   0.00000  Uiso   1.00
H175   H     0.80915   0.81636   0.31567   0.00000  Uiso   1.00
O176   O     0.55771   0.06828   0.40238   0.00000  Uiso   1.00
O177   O     0.91005   0.36842   0.43130   0.00000  Uiso   1.00
O178   O     0.92263   0.91081   0.37220   0.00000  Uiso   1.00
N179   N     0.67138   0.02060   0.44703   0.00000  Uiso   1.00
N180   N     0.92245   0.52187   0.46761   0.00000  Uiso   1.00
N181   N     0.93143   0.90835   0.13810   0.00000  Uiso   1.00
N182   N     0.58146   0.95177   0.54917   0.00000  Uiso   1.00
N183   N     0.83253   0.45304   0.56974   0.00000  Uiso   1.00
N184   N     0.84151   0.83952   0.24024   0.00000  Uiso   1.00
