data_job_06566
_audit_creation_date              2018-12-19
_audit_creation_method            'Materials Studio'
_symmetry_space_group_name_H-M    'P1'
_symmetry_Int_Tables_number       1
_symmetry_cell_setting            triclinic
loop_
_symmetry_equiv_pos_as_xyz
  x,y,z
_cell_length_a                    19.5568
_cell_length_b                    21.8718
_cell_length_c                    23.5363
_cell_angle_alpha                 74.5273
_cell_angle_beta                  106.2419
_cell_angle_gamma                 69.4464
loop_
_atom_site_label
_atom_site_type_symbol
_atom_site_fract_x
_atom_site_fract_y
_atom_site_fract_z
_atom_site_U_iso_or_equiv
_atom_site_adp_type
_atom_site_occupancy
C1     C     0.12049   0.81582   0.44343   0.00000  Uiso   1.00
C2     C     0.14357   0.75753   0.50817   0.00000  Uiso   1.00
C3     C     0.17486   0.68485   0.52288   0.00000  Uiso   1.00
C4     C     0.19205   0.64022   0.58482   0.00000  Uiso   1.00
C5     C     0.22992   0.54559   0.67840   0.00000  Uiso   1.00
C6     C     0.03270   0.86802   0.42106   0.00000  Uiso   1.00
C7     C     0.97077   0.88825   0.36251   0.00000  Uiso   1.00
C8     C     0.89464   0.93663   0.35112   0.00000  Uiso   1.00
C9     C     0.76040   0.01358   0.30944   0.00000  Uiso   1.00
C10    C     0.16798   0.85615   0.45854   0.00000  Uiso   1.00
C11    C     0.21979   0.86642   0.43150   0.00000  Uiso   1.00
C12    C     0.25753   0.90483   0.45166   0.00000  Uiso   1.00
C13    C     0.33334   0.96334   0.46817   0.00000  Uiso   1.00
C14    C     0.09539   0.86579   0.52730   0.00000  Uiso   1.00
C15    C     0.12993   0.78467   0.55372   0.00000  Uiso   1.00
C16    C     0.14709   0.74013   0.61566   0.00000  Uiso   1.00
C17    C     0.17839   0.66741   0.63046   0.00000  Uiso   1.00
C18    C     0.01907   0.89516   0.46661   0.00000  Uiso   1.00
C19    C     0.94301   0.94353   0.45530   0.00000  Uiso   1.00
C20    C     0.88098   0.96382   0.39676   0.00000  Uiso   1.00
C21    C     0.15435   0.88329   0.50410   0.00000  Uiso   1.00
C22    C     0.19202   0.92169   0.52429   0.00000  Uiso   1.00
C23    C     0.24387   0.93202   0.49729   0.00000  Uiso   1.00
H24    H     0.13110   0.79469   0.40797   0.00000  Uiso   1.00
H25    H     0.18539   0.66387   0.48761   0.00000  Uiso   1.00
H26    H     0.98134   0.86724   0.32727   0.00000  Uiso   1.00
H27    H     0.23032   0.84541   0.39625   0.00000  Uiso   1.00
H28    H     0.23955   0.53081   0.59598   0.00000  Uiso   1.00
H29    H     0.80931   0.95964   0.25789   0.00000  Uiso   1.00
H30    H     0.33432   0.91360   0.40335   0.00000  Uiso   1.00
H31    H     0.08477   0.88692   0.56276   0.00000  Uiso   1.00
H32    H     0.13653   0.76115   0.65090   0.00000  Uiso   1.00
H33    H     0.93248   0.96452   0.49056   0.00000  Uiso   1.00
H34    H     0.18146   0.94269   0.55954   0.00000  Uiso   1.00
H35    H     0.19988   0.60976   0.72852   0.00000  Uiso   1.00
H36    H     0.76964   0.03860   0.39042   0.00000  Uiso   1.00
H37    H     0.29466   0.99256   0.53589   0.00000  Uiso   1.00
O38    O     0.25457   0.48589   0.71743   0.00000  Uiso   1.00
O39    O     0.69012   0.04852   0.27386   0.00000  Uiso   1.00
O40    O     0.37893   0.98811   0.46471   0.00000  Uiso   1.00
N41    N     0.22312   0.56665   0.61509   0.00000  Uiso   1.00
N42    N     0.82087   0.96757   0.29899   0.00000  Uiso   1.00
N43    N     0.31170   0.92455   0.43497   0.00000  Uiso   1.00
N44    N     0.20178   0.60913   0.68640   0.00000  Uiso   1.00
N45    N     0.79953   0.01006   0.37031   0.00000  Uiso   1.00
N46    N     0.29036   0.96703   0.50629   0.00000  Uiso   1.00
C47    C     0.76261   0.32741   0.60131   0.00000  Uiso   1.00
C48    C     0.77293   0.25301   0.60820   0.00000  Uiso   1.00
C49    C     0.84112   0.19740   0.61482   0.00000  Uiso   1.00
C50    C     0.83864   0.13346   0.62046   0.00000  Uiso   1.00
C51    C     0.86503   0.01916   0.63128   0.00000  Uiso   1.00
C52    C     0.68847   0.37963   0.53861   0.00000  Uiso   1.00
C53    C     0.68565   0.43049   0.48673   0.00000  Uiso   1.00
C54    C     0.61207   0.47316   0.43379   0.00000  Uiso   1.00
C55    C     0.50732   0.55548   0.33660   0.00000  Uiso   1.00
C56    C     0.74032   0.33955   0.65589   0.00000  Uiso   1.00
C57    C     0.78108   0.35672   0.70262   0.00000  Uiso   1.00
C58    C     0.75114   0.36565   0.74841   0.00000  Uiso   1.00
C59    C     0.72689   0.38573   0.83331   0.00000  Uiso   1.00
C60    C     0.63694   0.31275   0.59955   0.00000  Uiso   1.00
C61    C     0.70467   0.24505   0.60724   0.00000  Uiso   1.00
C62    C     0.70209   0.18118   0.61288   0.00000  Uiso   1.00
C63    C     0.77026   0.12548   0.61950   0.00000  Uiso   1.00
C64    C     0.62021   0.37168   0.53766   0.00000  Uiso   1.00
C65    C     0.54662   0.41428   0.48479   0.00000  Uiso   1.00
C66    C     0.54369   0.46519   0.43284   0.00000  Uiso   1.00
C67    C     0.67206   0.33159   0.65494   0.00000  Uiso   1.00
C68    C     0.64205   0.34050   0.70067   0.00000  Uiso   1.00
C69    C     0.68276   0.35768   0.74745   0.00000  Uiso   1.00
H70    H     0.81575   0.33361   0.60205   0.00000  Uiso   1.00
H71    H     0.89393   0.20358   0.61555   0.00000  Uiso   1.00
H72    H     0.73848   0.43665   0.48749   0.00000  Uiso   1.00
H73    H     0.83390   0.36288   0.70334   0.00000  Uiso   1.00
H74    H     0.95049   0.05592   0.63008   0.00000  Uiso   1.00
H75    H     0.62271   0.54736   0.36006   0.00000  Uiso   1.00
H76    H     0.82392   0.39181   0.81522   0.00000  Uiso   1.00
H77    H     0.58380   0.30656   0.59880   0.00000  Uiso   1.00
H78    H     0.64926   0.17504   0.61213   0.00000  Uiso   1.00
H79    H     0.49381   0.40810   0.48407   0.00000  Uiso   1.00
H80    H     0.58923   0.33434   0.69992   0.00000  Uiso   1.00
H81    H     0.75191   0.03275   0.62730   0.00000  Uiso   1.00
H82    H     0.42413   0.52420   0.35728   0.00000  Uiso   1.00
H83    H     0.62534   0.36865   0.81244   0.00000  Uiso   1.00
O84    O     0.89843   0.95831   0.63750   0.00000  Uiso   1.00
O85    O     0.46840   0.60308   0.28324   0.00000  Uiso   1.00
O86    O     0.73238   0.39899   0.88040   0.00000  Uiso   1.00
N87    N     0.89478   0.06851   0.62761   0.00000  Uiso   1.00
N88    N     0.58833   0.52797   0.37515   0.00000  Uiso   1.00
N89    N     0.77643   0.38257   0.80068   0.00000  Uiso   1.00
N90    N     0.78792   0.05604   0.62612   0.00000  Uiso   1.00
N91    N     0.48147   0.51551   0.37366   0.00000  Uiso   1.00
N92    N     0.66957   0.37010   0.79918   0.00000  Uiso   1.00
C93    C     0.94718   0.43140   0.80631   0.00000  Uiso   1.00
C94    C     0.01292   0.41598   0.78156   0.00000  Uiso   1.00
C95    C     0.03250   0.36780   0.75344   0.00000  Uiso   1.00
C96    C     0.09455   0.36141   0.73399   0.00000  Uiso   1.00
C97    C     0.19043   0.33131   0.69431   0.00000  Uiso   1.00
C98    C     0.98814   0.41751   0.87715   0.00000  Uiso   1.00
C99    C     0.98689   0.37062   0.92939   0.00000  Uiso   1.00
C100   C     0.02808   0.36554   0.99040   0.00000  Uiso   1.00
C101   C     0.08545   0.33785   0.09911   0.00000  Uiso   1.00
C102   C     0.89212   0.51164   0.77082   0.00000  Uiso   1.00
C103   C     0.81011   0.54390   0.73368   0.00000  Uiso   1.00
C104   C     0.77044   0.61807   0.70518   0.00000  Uiso   1.00
C105   C     0.67871   0.73653   0.64881   0.00000  Uiso   1.00
C106   C     0.02254   0.50575   0.82176   0.00000  Uiso   1.00
C107   C     0.05385   0.45637   0.78996   0.00000  Uiso   1.00
C108   C     0.11588   0.45006   0.77053   0.00000  Uiso   1.00
C109   C     0.13556   0.40187   0.74239   0.00000  Uiso   1.00
C110   C     0.02908   0.45790   0.88554   0.00000  Uiso   1.00
C111   C     0.07027   0.45288   0.94648   0.00000  Uiso   1.00
C112   C     0.06908   0.40599   0.99880   0.00000  Uiso   1.00
C113   C     0.93305   0.55203   0.77921   0.00000  Uiso   1.00
C114   C     0.89350   0.62616   0.75077   0.00000  Uiso   1.00
C115   C     0.81145   0.65852   0.71359   0.00000  Uiso   1.00
H116   H     0.91531   0.39996   0.79979   0.00000  Uiso   1.00
H117   H     0.00082   0.33655   0.74697   0.00000  Uiso   1.00
H118   H     0.95520   0.33938   0.92288   0.00000  Uiso   1.00
H119   H     0.77846   0.51263   0.72720   0.00000  Uiso   1.00
H120   H     0.11369   0.28404   0.69213   0.00000  Uiso   1.00
H121   H     0.01749   0.29003   0.06305   0.00000  Uiso   1.00
H122   H     0.64478   0.65536   0.65042   0.00000  Uiso   1.00
H123   H     0.05441   0.53719   0.82829   0.00000  Uiso   1.00
H124   H     0.14755   0.48132   0.77703   0.00000  Uiso   1.00
H125   H     0.10194   0.48415   0.95296   0.00000  Uiso   1.00
H126   H     0.92519   0.65740   0.75727   0.00000  Uiso   1.00
H127   H     0.23279   0.40154   0.71654   0.00000  Uiso   1.00
H128   H     0.13658   0.40753   0.08747   0.00000  Uiso   1.00
H129   H     0.76388   0.77286   0.67483   0.00000  Uiso   1.00
O130   O     0.23202   0.30354   0.67012   0.00000  Uiso   1.00
O131   O     0.10579   0.31141   0.15676   0.00000  Uiso   1.00
O132   O     0.61681   0.79071   0.61539   0.00000  Uiso   1.00
N133   N     0.12893   0.31938   0.70489   0.00000  Uiso   1.00
N134   N     0.03899   0.32497   0.05169   0.00000  Uiso   1.00
N135   N     0.69054   0.66652   0.66593   0.00000  Uiso   1.00
N136   N     0.19301   0.38260   0.71803   0.00000  Uiso   1.00
N137   N     0.10308   0.38819   0.06482   0.00000  Uiso   1.00
N138   N     0.75463   0.72974   0.67906   0.00000  Uiso   1.00
C139   C     0.47475   0.29117   0.12395   0.00000  Uiso   1.00
C140   C     0.56144   0.25441   0.13257   0.00000  Uiso   1.00
C141   C     0.60208   0.18477   0.13936   0.00000  Uiso   1.00
C142   C     0.68111   0.16109   0.14669   0.00000  Uiso   1.00
C143   C     0.81008   0.09726   0.15997   0.00000  Uiso   1.00
C144   C     0.43217   0.35852   0.06142   0.00000  Uiso   1.00
C145   C     0.36412   0.37642   0.00840   0.00000  Uiso   1.00
C146   C     0.33433   0.44038   0.95585   0.00000  Uiso   1.00
C147   C     0.26258   0.53821   0.85869   0.00000  Uiso   1.00
C148   C     0.47728   0.31662   0.17849   0.00000  Uiso   1.00
C149   C     0.44713   0.29931   0.22389   0.00000  Uiso   1.00
C150   C     0.45529   0.32801   0.26988   0.00000  Uiso   1.00
C151   C     0.45357   0.36079   0.35449   0.00000  Uiso   1.00
C152   C     0.54282   0.37294   0.12489   0.00000  Uiso   1.00
C153   C     0.59841   0.29882   0.13308   0.00000  Uiso   1.00
C154   C     0.67740   0.27524   0.14041   0.00000  Uiso   1.00
C155   C     0.71815   0.20558   0.14721   0.00000  Uiso   1.00
C156   C     0.46915   0.40293   0.06193   0.00000  Uiso   1.00
C157   C     0.43944   0.46688   0.00945   0.00000  Uiso   1.00
C158   C     0.37137   0.48487   0.95636   0.00000  Uiso   1.00
C159   C     0.51425   0.36103   0.17900   0.00000  Uiso   1.00
C160   C     0.52245   0.38977   0.22493   0.00000  Uiso   1.00
C161   C     0.49233   0.37251   0.27040   0.00000  Uiso   1.00
H162   H     0.44595   0.25660   0.12354   0.00000  Uiso   1.00
H163   H     0.57344   0.15042   0.13896   0.00000  Uiso   1.00
H164   H     0.33552   0.34204   0.00802   0.00000  Uiso   1.00
H165   H     0.41852   0.26494   0.22348   0.00000  Uiso   1.00
H166   H     0.73108   0.05230   0.15625   0.00000  Uiso   1.00
H167   H     0.22939   0.45635   0.88017   0.00000  Uiso   1.00
H168   H     0.40440   0.29378   0.33450   0.00000  Uiso   1.00
H169   H     0.57161   0.40751   0.12529   0.00000  Uiso   1.00
H170   H     0.70600   0.30962   0.14080   0.00000  Uiso   1.00
H171   H     0.46807   0.50124   0.00986   0.00000  Uiso   1.00
H172   H     0.55107   0.42414   0.22531   0.00000  Uiso   1.00
H173   H     0.83867   0.18151   0.15774   0.00000  Uiso   1.00
H174   H     0.33697   0.58556   0.88166   0.00000  Uiso   1.00
H175   H     0.51199   0.42299   0.33599   0.00000  Uiso   1.00
O176   O     0.87100   0.04979   0.16715   0.00000  Uiso   1.00
O177   O     0.21280   0.57989   0.80495   0.00000  Uiso   1.00
O178   O     0.44241   0.36660   0.40101   0.00000  Uiso   1.00
N179   N     0.73796   0.09614   0.15449   0.00000  Uiso   1.00
N180   N     0.26892   0.47390   0.89636   0.00000  Uiso   1.00
N181   N     0.43252   0.32192   0.32111   0.00000  Uiso   1.00
N182   N     0.79586   0.16567   0.15529   0.00000  Uiso   1.00
N183   N     0.32681   0.54342   0.89717   0.00000  Uiso   1.00
N184   N     0.49042   0.39145   0.32191   0.00000  Uiso   1.00
C185   C     0.08497   0.35251   0.37310   0.00000  Uiso   1.00
C186   C     0.02862   0.35999   0.30907   0.00000  Uiso   1.00
C187   C     0.03531   0.30545   0.28805   0.00000  Uiso   1.00
C188   C     0.97773   0.32314   0.22800   0.00000  Uiso   1.00
C189   C     0.89965   0.32413   0.13431   0.00000  Uiso   1.00
C190   C     0.03227   0.37869   0.40716   0.00000  Uiso   1.00
C191   C     0.04205   0.33988   0.46863   0.00000  Uiso   1.00
C192   C     0.98754   0.37332   0.49116   0.00000  Uiso   1.00
C193   C     0.91517   0.40337   0.54979   0.00000  Uiso   1.00
C194   C     0.11577   0.40685   0.35559   0.00000  Uiso   1.00
C195   C     0.19575   0.39172   0.37371   0.00000  Uiso   1.00
C196   C     0.21154   0.44888   0.35282   0.00000  Uiso   1.00
C197   C     0.26881   0.52264   0.33138   0.00000  Uiso   1.00
C198   C     0.97080   0.48091   0.30382   0.00000  Uiso   1.00
C199   C     0.96661   0.42973   0.27144   0.00000  Uiso   1.00
C200   C     0.90900   0.44751   0.21139   0.00000  Uiso   1.00
C201   C     0.91561   0.39301   0.19029   0.00000  Uiso   1.00
C202   C     0.97026   0.44843   0.36953   0.00000  Uiso   1.00
C203   C     0.91574   0.48194   0.39198   0.00000  Uiso   1.00
C204   C     0.92542   0.44319   0.45346   0.00000  Uiso   1.00
C205   C     0.05376   0.47659   0.31796   0.00000  Uiso   1.00
C206   C     0.06944   0.53378   0.29705   0.00000  Uiso   1.00
C207   C     0.14942   0.51874   0.31513   0.00000  Uiso   1.00
H208   H     0.13324   0.29822   0.40240   0.00000  Uiso   1.00
H209   H     0.08330   0.25149   0.31719   0.00000  Uiso   1.00
H210   H     0.09004   0.28592   0.49774   0.00000  Uiso   1.00
H211   H     0.24371   0.33775   0.40283   0.00000  Uiso   1.00
H212   H     0.00058   0.23043   0.20613   0.00000  Uiso   1.00
H213   H     0.01480   0.30303   0.58685   0.00000  Uiso   1.00
H214   H     0.33885   0.41233   0.38671   0.00000  Uiso   1.00
H215   H     0.92253   0.53521   0.27452   0.00000  Uiso   1.00
H216   H     0.86103   0.50148   0.18228   0.00000  Uiso   1.00
H217   H     0.86776   0.53591   0.36284   0.00000  Uiso   1.00
H218   H     0.02144   0.58774   0.26793   0.00000  Uiso   1.00
H219   H     0.82017   0.43333   0.09664   0.00000  Uiso   1.00
H220   H     0.83439   0.50593   0.47736   0.00000  Uiso   1.00
H221   H     0.15844   0.61523   0.27722   0.00000  Uiso   1.00
O222   O     0.87370   0.30541   0.09303   0.00000  Uiso   1.00
O223   O     0.89237   0.40067   0.59252   0.00000  Uiso   1.00
O224   O     0.31752   0.54406   0.32994   0.00000  Uiso   1.00
N225   N     0.96657   0.28281   0.19302   0.00000  Uiso   1.00
N226   N     0.97986   0.35069   0.54896   0.00000  Uiso   1.00
N227   N     0.28282   0.45287   0.36186   0.00000  Uiso   1.00
N228   N     0.86949   0.39199   0.13410   0.00000  Uiso   1.00
N229   N     0.88278   0.45987   0.49004   0.00000  Uiso   1.00
N230   N     0.18574   0.56205   0.30294   0.00000  Uiso   1.00
C231   C     0.61773   0.92981   0.32941   0.00000  Uiso   1.00
C232   C     0.61601   0.85919   0.33575   0.00000  Uiso   1.00
C233   C     0.66853   0.80441   0.32681   0.00000  Uiso   1.00
C234   C     0.65697   0.74409   0.33483   0.00000  Uiso   1.00
C235   C     0.66374   0.63522   0.34222   0.00000  Uiso   1.00
C236   C     0.62429   0.93520   0.39381   0.00000  Uiso   1.00
C237   C     0.68375   0.94435   0.43368   0.00000  Uiso   1.00
C238   C     0.67916   0.94803   0.49058   0.00000  Uiso   1.00
C239   C     0.69874   0.95723   0.58808   0.00000  Uiso   1.00
C240   C     0.53484   0.98837   0.27933   0.00000  Uiso   1.00
C241   C     0.51910   0.04223   0.22296   0.00000  Uiso   1.00
C242   C     0.43920   0.09068   0.18348   0.00000  Uiso   1.00
C243   C     0.31991   0.18243   0.10325   0.00000  Uiso   1.00
C244   C     0.50383   0.92009   0.35956   0.00000  Uiso   1.00
C245   C     0.55414   0.85391   0.35213   0.00000  Uiso   1.00
C246   C     0.54250   0.79366   0.36017   0.00000  Uiso   1.00
C247   C     0.59499   0.73880   0.35124   0.00000  Uiso   1.00
C248   C     0.56242   0.92993   0.41019   0.00000  Uiso   1.00
C249   C     0.55773   0.93360   0.46704   0.00000  Uiso   1.00
C250   C     0.61718   0.94274   0.50699   0.00000  Uiso   1.00
C251   C     0.47297   0.98309   0.29571   0.00000  Uiso   1.00
C252   C     0.39308   0.03147   0.25632   0.00000  Uiso   1.00
C253   C     0.37722   0.08539   0.19989   0.00000  Uiso   1.00
H254   H     0.66590   0.93392   0.31666   0.00000  Uiso   1.00
H255   H     0.71641   0.80851   0.31414   0.00000  Uiso   1.00
H256   H     0.73162   0.94844   0.42099   0.00000  Uiso   1.00
H257   H     0.56700   0.04630   0.21030   0.00000  Uiso   1.00
H258   H     0.74513   0.66714   0.31859   0.00000  Uiso   1.00
H259   H     0.77720   0.96221   0.54388   0.00000  Uiso   1.00
H260   H     0.43006   0.16856   0.09960   0.00000  Uiso   1.00
H261   H     0.45566   0.91598   0.37231   0.00000  Uiso   1.00
H262   H     0.49462   0.78959   0.37284   0.00000  Uiso   1.00
H263   H     0.50984   0.92952   0.47970   0.00000  Uiso   1.00
H264   H     0.34522   0.02737   0.26901   0.00000  Uiso   1.00
H265   H     0.56512   0.65178   0.36624   0.00000  Uiso   1.00
H266   H     0.59719   0.94685   0.59153   0.00000  Uiso   1.00
H267   H     0.25005   0.15320   0.14725   0.00000  Uiso   1.00
O268   O     0.68457   0.57663   0.34178   0.00000  Uiso   1.00
O269   O     0.72664   0.96376   0.63734   0.00000  Uiso   1.00
O270   O     0.27120   0.23449   0.05446   0.00000  Uiso   1.00
N271   N     0.69741   0.68088   0.32972   0.00000  Uiso   1.00
N272   N     0.72740   0.95674   0.54036   0.00000  Uiso   1.00
N273   N     0.40285   0.14967   0.12500   0.00000  Uiso   1.00
N274   N     0.60055   0.67261   0.35536   0.00000  Uiso   1.00
N275   N     0.63054   0.94847   0.56600   0.00000  Uiso   1.00
N276   N     0.30599   0.14141   0.15064   0.00000  Uiso   1.00
C277   C     0.79025   0.28978   0.39865   0.00000  Uiso   1.00
C278   C     0.76643   0.35042   0.33522   0.00000  Uiso   1.00
C279   C     0.73489   0.42250   0.32309   0.00000  Uiso   1.00
C280   C     0.71700   0.46960   0.26198   0.00000  Uiso   1.00
C281   C     0.67804   0.56744   0.17069   0.00000  Uiso   1.00
C282   C     0.87802   0.23849   0.41975   0.00000  Uiso   1.00
C283   C     0.94031   0.21644   0.47869   0.00000  Uiso   1.00
C284   C     0.01636   0.16931   0.48872   0.00000  Uiso   1.00
C285   C     0.15064   0.09333   0.52868   0.00000  Uiso   1.00
C286   C     0.74298   0.24991   0.38138   0.00000  Uiso   1.00
C287   C     0.69173   0.23745   0.40808   0.00000  Uiso   1.00
C288   C     0.65410   0.19992   0.38582   0.00000  Uiso   1.00
C289   C     0.57871   0.14167   0.36621   0.00000  Uiso   1.00
C290   C     0.81457   0.24525   0.31168   0.00000  Uiso   1.00
C291   C     0.77964   0.32623   0.28799   0.00000  Uiso   1.00
C292   C     0.76179   0.37324   0.22687   0.00000  Uiso   1.00
C293   C     0.73023   0.44537   0.21465   0.00000  Uiso   1.00
C294   C     0.89123   0.21430   0.37251   0.00000  Uiso   1.00
C295   C     0.96721   0.16718   0.38246   0.00000  Uiso   1.00
C296   C     0.02960   0.14508   0.44140   0.00000  Uiso   1.00
C297   C     0.75619   0.22572   0.33414   0.00000  Uiso   1.00
C298   C     0.71864   0.18819   0.31185   0.00000  Uiso   1.00
C299   C     0.66734   0.17569   0.33850   0.00000  Uiso   1.00
H300   H     0.77997   0.30860   0.43543   0.00000  Uiso   1.00
H301   H     0.72468   0.44120   0.35967   0.00000  Uiso   1.00
H302   H     0.93007   0.23517   0.51523   0.00000  Uiso   1.00
H303   H     0.68153   0.25618   0.44463   0.00000  Uiso   1.00
H304   H     0.66923   0.57753   0.25484   0.00000  Uiso   1.00
H305   H     0.10229   0.14309   0.58288   0.00000  Uiso   1.00
H306   H     0.57820   0.18739   0.43400   0.00000  Uiso   1.00
H307   H     0.82486   0.22642   0.27490   0.00000  Uiso   1.00
H308   H     0.77202   0.35451   0.19033   0.00000  Uiso   1.00
H309   H     0.97741   0.14847   0.34590   0.00000  Uiso   1.00
H310   H     0.72887   0.16948   0.27530   0.00000  Uiso   1.00
H311   H     0.70766   0.50717   0.11740   0.00000  Uiso   1.00
H312   H     0.14072   0.07272   0.44544   0.00000  Uiso   1.00
H313   H     0.61663   0.11703   0.29656   0.00000  Uiso   1.00
O314   O     0.65290   0.62809   0.13339   0.00000  Uiso   1.00
O315   O     0.22106   0.05810   0.56376   0.00000  Uiso   1.00
O316   O     0.53346   0.11623   0.36844   0.00000  Uiso   1.00
N317   N     0.68551   0.54340   0.23410   0.00000  Uiso   1.00
N318   N     0.09040   0.13722   0.54079   0.00000  Uiso   1.00
N319   N     0.60043   0.17863   0.40161   0.00000  Uiso   1.00
N320   N     0.70619   0.50553   0.16014   0.00000  Uiso   1.00
N321   N     0.11108   0.09936   0.46683   0.00000  Uiso   1.00
N322   N     0.62111   0.14076   0.32766   0.00000  Uiso   1.00
C323   C     0.19009   0.76288   0.27083   0.00000  Uiso   1.00
C324   C     0.17282   0.83948   0.26092   0.00000  Uiso   1.00
C325   C     0.09920   0.89439   0.24650   0.00000  Uiso   1.00
C326   C     0.09574   0.96065   0.23931   0.00000  Uiso   1.00
C327   C     0.05863   0.07793   0.22288   0.00000  Uiso   1.00
C328   C     0.25857   0.71544   0.33780   0.00000  Uiso   1.00
C329   C     0.25703   0.66606   0.38803   0.00000  Uiso   1.00
C330   C     0.32577   0.62790   0.44555   0.00000  Uiso   1.00
C331   C     0.42179   0.55257   0.54848   0.00000  Uiso   1.00
C332   C     0.22440   0.74744   0.22259   0.00000  Uiso   1.00
C333   C     0.19416   0.72494   0.17595   0.00000  Uiso   1.00
C334   C     0.23415   0.71371   0.13648   0.00000  Uiso   1.00
C335   C     0.27713   0.68806   0.06052   0.00000  Uiso   1.00
C336   C     0.31488   0.78290   0.28368   0.00000  Uiso   1.00
C337   C     0.24061   0.85035   0.26790   0.00000  Uiso   1.00
C338   C     0.23726   0.91655   0.26072   0.00000  Uiso   1.00
C339   C     0.16364   0.97155   0.24630   0.00000  Uiso   1.00
C340   C     0.32635   0.72631   0.34479   0.00000  Uiso   1.00
C341   C     0.39510   0.68822   0.40225   0.00000  Uiso   1.00
C342   C     0.39367   0.63879   0.45255   0.00000  Uiso   1.00
C343   C     0.29218   0.75832   0.22957   0.00000  Uiso   1.00
C344   C     0.33223   0.74710   0.19017   0.00000  Uiso   1.00
C345   C     0.30205   0.72460   0.14348   0.00000  Uiso   1.00
H346   H     0.13733   0.75440   0.26540   0.00000  Uiso   1.00
H347   H     0.04676   0.88595   0.24111   0.00000  Uiso   1.00
H348   H     0.20458   0.65765   0.38261   0.00000  Uiso   1.00
H349   H     0.14171   0.71653   0.17057   0.00000  Uiso   1.00
H350   H     0.97625   0.03658   0.21728   0.00000  Uiso   1.00
H351   H     0.30902   0.55518   0.51564   0.00000  Uiso   1.00
H352   H     0.17646   0.67933   0.06850   0.00000  Uiso   1.00
H353   H     0.36765   0.79137   0.28912   0.00000  Uiso   1.00
H354   H     0.28972   0.92495   0.26612   0.00000  Uiso   1.00
H355   H     0.44754   0.69665   0.40763   0.00000  Uiso   1.00
H356   H     0.38468   0.75553   0.19558   0.00000  Uiso   1.00
H357   H     0.17345   0.06824   0.23759   0.00000  Uiso   1.00
H358   H     0.50622   0.58683   0.53594   0.00000  Uiso   1.00
H359   H     0.37366   0.71099   0.08880   0.00000  Uiso   1.00
O360   O     0.01944   0.13961   0.21190   0.00000  Uiso   1.00
O361   O     0.45602   0.50801   0.60333   0.00000  Uiso   1.00
O362   O     0.28211   0.67091   0.01669   0.00000  Uiso   1.00
N363   N     0.03335   0.02571   0.22520   0.00000  Uiso   1.00
N364   N     0.34447   0.57563   0.50415   0.00000  Uiso   1.00
N365   N     0.22055   0.69169   0.08613   0.00000  Uiso   1.00
N366   N     0.13946   0.04274   0.23613   0.00000  Uiso   1.00
N367   N     0.45058   0.59266   0.51508   0.00000  Uiso   1.00
N368   N     0.32666   0.70872   0.09705   0.00000  Uiso   1.00
C369   C     0.01929   0.70456   0.06735   0.00000  Uiso   1.00
C370   C     0.96097   0.74017   0.09376   0.00000  Uiso   1.00
C371   C     0.96224   0.79132   0.11792   0.00000  Uiso   1.00
C372   C     0.90369   0.81734   0.13977   0.00000  Uiso   1.00
C373   C     0.82188   0.87637   0.18109   0.00000  Uiso   1.00
C374   C     0.96789   0.71848   0.99875   0.00000  Uiso   1.00
C375   C     0.97499   0.75137   0.94301   0.00000  Uiso   1.00
C376   C     0.92229   0.75911   0.88489   0.00000  Uiso   1.00
C377   C     0.85126   0.78440   0.77870   0.00000  Uiso   1.00
C378   C     0.05622   0.62437   0.10672   0.00000  Uiso   1.00
C379   C     0.13759   0.57813   0.14175   0.00000  Uiso   1.00
C380   C     0.15925   0.50664   0.17451   0.00000  Uiso   1.00
C381   C     0.22536   0.38582   0.23596   0.00000  Uiso   1.00
C382   C     0.91307   0.65982   0.06323   0.00000  Uiso   1.00
C383   C     0.90327   0.71587   0.09152   0.00000  Uiso   1.00
C384   C     0.84471   0.74182   0.11335   0.00000  Uiso   1.00
C385   C     0.84589   0.79300   0.13753   0.00000  Uiso   1.00
C386   C     0.91020   0.69418   0.99650   0.00000  Uiso   1.00
C387   C     0.85747   0.70187   0.93845   0.00000  Uiso   1.00
C388   C     0.86448   0.73477   0.88264   0.00000  Uiso   1.00
C389   C     0.99852   0.60007   0.10448   0.00000  Uiso   1.00
C390   C     0.02006   0.52864   0.13719   0.00000  Uiso   1.00
C391   C     0.10144   0.48230   0.17226   0.00000  Uiso   1.00
H392   H     0.06421   0.72347   0.06909   0.00000  Uiso   1.00
H393   H     0.00689   0.81011   0.11964   0.00000  Uiso   1.00
H394   H     0.01965   0.77016   0.94476   0.00000  Uiso   1.00
H395   H     0.18222   0.59695   0.14347   0.00000  Uiso   1.00
H396   H     0.91788   0.89547   0.17466   0.00000  Uiso   1.00
H397   H     0.94481   0.81120   0.80593   0.00000  Uiso   1.00
H398   H     0.28761   0.44596   0.22495   0.00000  Uiso   1.00
H399   H     0.86815   0.64090   0.06148   0.00000  Uiso   1.00
H400   H     0.80007   0.72301   0.11161   0.00000  Uiso   1.00
H401   H     0.81283   0.68306   0.93673   0.00000  Uiso   1.00
H402   H     0.97539   0.50985   0.13544   0.00000  Uiso   1.00
H403   H     0.75001   0.82478   0.16814   0.00000  Uiso   1.00
H404   H     0.77694   0.74051   0.79941   0.00000  Uiso   1.00
H405   H     0.11974   0.37527   0.21843   0.00000  Uiso   1.00
O406   O     0.79268   0.91565   0.20450   0.00000  Uiso   1.00
O407   O     0.82802   0.80508   0.72074   0.00000  Uiso   1.00
O408   O     0.27777   0.32589   0.27048   0.00000  Uiso   1.00
N409   N     0.88773   0.86756   0.16626   0.00000  Uiso   1.00
N410   N     0.91289   0.78878   0.82152   0.00000  Uiso   1.00
N411   N     0.23339   0.44730   0.21325   0.00000  Uiso   1.00
N412   N     0.79740   0.82951   0.16275   0.00000  Uiso   1.00
N413   N     0.82257   0.75074   0.81801   0.00000  Uiso   1.00
N414   N     0.14306   0.40926   0.20974   0.00000  Uiso   1.00
C415   C     0.41435   0.86451   0.78285   0.00000  Uiso   1.00
C416   C     0.33490   0.93144   0.75692   0.00000  Uiso   1.00
C417   C     0.32599   0.99916   0.75011   0.00000  Uiso   1.00
C418   C     0.24825   0.05335   0.72548   0.00000  Uiso   1.00
C419   C     0.13498   0.15927   0.68786   0.00000  Uiso   1.00
C420   C     0.41580   0.80975   0.83969   0.00000  Uiso   1.00
C421   C     0.47492   0.77513   0.90247   0.00000  Uiso   1.00
C422   C     0.46529   0.72688   0.94752   0.00000  Uiso   1.00
C423   C     0.47765   0.64381   0.03839   0.00000  Uiso   1.00
C424   C     0.40860   0.83580   0.73026   0.00000  Uiso   1.00
C425   C     0.46167   0.82307   0.70105   0.00000  Uiso   1.00
C426   C     0.44598   0.79673   0.65398   0.00000  Uiso   1.00
C427   C     0.44716   0.75412   0.57495   0.00000  Uiso   1.00
C428   C     0.29213   0.84036   0.75121   0.00000  Uiso   1.00
C429   C     0.26852   0.91832   0.73974   0.00000  Uiso   1.00
C430   C     0.19077   0.97243   0.71511   0.00000  Uiso   1.00
C431   C     0.18174   0.04021   0.70826   0.00000  Uiso   1.00
C432   C     0.34942   0.79662   0.82251   0.00000  Uiso   1.00
C433   C     0.33970   0.74841   0.86747   0.00000  Uiso   1.00
C434   C     0.39878   0.71373   0.93031   0.00000  Uiso   1.00
C435   C     0.34221   0.82268   0.71308   0.00000  Uiso   1.00
C436   C     0.32644   0.79635   0.66605   0.00000  Uiso   1.00
C437   C     0.37948   0.78359   0.63677   0.00000  Uiso   1.00
H438   H     0.46604   0.87472   0.79623   0.00000  Uiso   1.00
H439   H     0.37738   0.00929   0.76341   0.00000  Uiso   1.00
H440   H     0.52629   0.78529   0.91575   0.00000  Uiso   1.00
H441   H     0.51303   0.83323   0.71436   0.00000  Uiso   1.00
H442   H     0.24981   0.15268   0.71948   0.00000  Uiso   1.00
H443   H     0.56381   0.68036   0.04068   0.00000  Uiso   1.00
H444   H     0.53586   0.78144   0.61601   0.00000  Uiso   1.00
H445   H     0.24045   0.83014   0.73784   0.00000  Uiso   1.00
H446   H     0.13941   0.96226   0.70182   0.00000  Uiso   1.00
H447   H     0.28832   0.73826   0.85416   0.00000  Uiso   1.00
H448   H     0.27506   0.78620   0.65277   0.00000  Uiso   1.00
H449   H     0.05667   0.11451   0.66949   0.00000  Uiso   1.00
H450   H     0.37067   0.64218   0.99070   0.00000  Uiso   1.00
H451   H     0.34272   0.74327   0.56602   0.00000  Uiso   1.00
O452   O     0.09084   0.22131   0.67187   0.00000  Uiso   1.00
O453   O     0.50281   0.60163   0.09327   0.00000  Uiso   1.00
O454   O     0.46614   0.73425   0.53611   0.00000  Uiso   1.00
N455   N     0.21822   0.12557   0.71265   0.00000  Uiso   1.00
N456   N     0.51179   0.68398   0.01296   0.00000  Uiso   1.00
N457   N     0.48567   0.77847   0.61593   0.00000  Uiso   1.00
N458   N     0.11429   0.10503   0.68575   0.00000  Uiso   1.00
N459   N     0.40786   0.66344   0.98606   0.00000  Uiso   1.00
N460   N     0.38174   0.75793   0.58903   0.00000  Uiso   1.00
C461   C     0.85063   0.74629   0.50972   0.00000  Uiso   1.00
C462   C     0.90735   0.73775   0.57412   0.00000  Uiso   1.00
C463   C     0.90229   0.79192   0.59538   0.00000  Uiso   1.00
C464   C     0.95994   0.77323   0.65575   0.00000  Uiso   1.00
C465   C     0.03883   0.77067   0.75000   0.00000  Uiso   1.00
C466   C     0.90329   0.71875   0.47608   0.00000  Uiso   1.00
C467   C     0.89481   0.75696   0.41491   0.00000  Uiso   1.00
C468   C     0.94903   0.72227   0.39275   0.00000  Uiso   1.00
C469   C     0.02159   0.69020   0.33477   0.00000  Uiso   1.00
C470   C     0.81757   0.69361   0.52654   0.00000  Uiso   1.00
C471   C     0.73702   0.71067   0.50777   0.00000  Uiso   1.00
C472   C     0.71908   0.65480   0.52808   0.00000  Uiso   1.00
C473   C     0.65855   0.58369   0.54844   0.00000  Uiso   1.00
C474   C     0.96200   0.61675   0.57915   0.00000  Uiso   1.00
C475   C     0.96784   0.66738   0.61183   0.00000  Uiso   1.00
C476   C     0.02551   0.64860   0.67219   0.00000  Uiso   1.00
C477   C     0.02054   0.70274   0.69353   0.00000  Uiso   1.00
C478   C     0.96378   0.64839   0.51379   0.00000  Uiso   1.00
C479   C     0.01803   0.61363   0.49172   0.00000  Uiso   1.00
C480   C     0.00964   0.65177   0.43053   0.00000  Uiso   1.00
C481   C     0.87806   0.62324   0.56425   0.00000  Uiso   1.00
C482   C     0.86024   0.56734   0.58459   0.00000  Uiso   1.00
C483   C     0.77968   0.58431   0.56586   0.00000  Uiso   1.00
H484   H     0.80353   0.80107   0.48036   0.00000  Uiso   1.00
H485   H     0.85547   0.84637   0.56618   0.00000  Uiso   1.00
H486   H     0.84798   0.81141   0.38573   0.00000  Uiso   1.00
H487   H     0.69023   0.76512   0.47859   0.00000  Uiso   1.00
H488   H     0.93975   0.86557   0.67794   0.00000  Uiso   1.00
H489   H     0.92395   0.79183   0.29746   0.00000  Uiso   1.00
H490   H     0.59128   0.69423   0.49326   0.00000  Uiso   1.00
H491   H     0.00909   0.56196   0.60850   0.00000  Uiso   1.00
H492   H     0.07231   0.59414   0.70136   0.00000  Uiso   1.00
H493   H     0.06483   0.55918   0.52091   0.00000  Uiso   1.00
H494   H     0.90707   0.51289   0.61377   0.00000  Uiso   1.00
H495   H     0.11575   0.66085   0.78766   0.00000  Uiso   1.00
H496   H     0.09994   0.58711   0.40717   0.00000  Uiso   1.00
H497   H     0.76728   0.48951   0.60297   0.00000  Uiso   1.00
O498   O     0.06564   0.78869   0.79156   0.00000  Uiso   1.00
O499   O     0.04490   0.69196   0.29237   0.00000  Uiso   1.00
O500   O     0.60845   0.56391   0.54926   0.00000  Uiso   1.00
N501   N     0.97248   0.81297   0.69103   0.00000  Uiso   1.00
N502   N     0.95772   0.74404   0.33530   0.00000  Uiso   1.00
N503   N     0.64670   0.65279   0.51834   0.00000  Uiso   1.00
N504   N     0.06719   0.70281   0.75006   0.00000  Uiso   1.00
N505   N     0.05242   0.63388   0.39433   0.00000  Uiso   1.00
N506   N     0.74141   0.54263   0.57738   0.00000  Uiso   1.00
C507   C     0.32116   0.16511   0.54051   0.00000  Uiso   1.00
C508   C     0.32188   0.23602   0.53454   0.00000  Uiso   1.00
C509   C     0.26938   0.28983   0.54445   0.00000  Uiso   1.00
C510   C     0.27993   0.35062   0.53661   0.00000  Uiso   1.00
C511   C     0.27175   0.45973   0.52992   0.00000  Uiso   1.00
C512   C     0.31373   0.16078   0.47561   0.00000  Uiso   1.00
C513   C     0.25437   0.15131   0.43599   0.00000  Uiso   1.00
C514   C     0.25807   0.14875   0.37856   0.00000  Uiso   1.00
C515   C     0.23727   0.14099   0.28042   0.00000  Uiso   1.00
C516   C     0.40470   0.10696   0.58974   0.00000  Uiso   1.00
C517   C     0.42184   0.05222   0.64607   0.00000  Uiso   1.00
C518   C     0.50213   0.00434   0.68472   0.00000  Uiso   1.00
C519   C     0.62258   0.91300   0.76376   0.00000  Uiso   1.00
C520   C     0.43327   0.17739   0.50896   0.00000  Uiso   1.00
C521   C     0.38277   0.24269   0.51740   0.00000  Uiso   1.00
C522   C     0.39341   0.30341   0.50955   0.00000  Uiso   1.00
C523   C     0.34093   0.35730   0.51945   0.00000  Uiso   1.00
C524   C     0.37462   0.16745   0.45848   0.00000  Uiso   1.00
C525   C     0.37841   0.16489   0.40110   0.00000  Uiso   1.00
C526   C     0.31907   0.15543   0.36140   0.00000  Uiso   1.00
C527   C     0.46560   0.11362   0.57261   0.00000  Uiso   1.00
C528   C     0.54587   0.06581   0.61117   0.00000  Uiso   1.00
C529   C     0.56313   0.01102   0.66755   0.00000  Uiso   1.00
H530   H     0.27376   0.15992   0.55384   0.00000  Uiso   1.00
H531   H     0.22226   0.28465   0.55770   0.00000  Uiso   1.00
H532   H     0.20726   0.14615   0.44927   0.00000  Uiso   1.00
H533   H     0.37470   0.04708   0.65931   0.00000  Uiso   1.00
H534   H     0.19200   0.42589   0.55441   0.00000  Uiso   1.00
H535   H     0.16040   0.13382   0.32578   0.00000  Uiso   1.00
H536   H     0.51348   0.92491   0.76869   0.00000  Uiso   1.00
H537   H     0.48068   0.18258   0.49562   0.00000  Uiso   1.00
H538   H     0.44054   0.30856   0.49629   0.00000  Uiso   1.00
H539   H     0.42554   0.17005   0.38785   0.00000  Uiso   1.00
H540   H     0.59298   0.07098   0.59790   0.00000  Uiso   1.00
H541   H     0.36916   0.44530   0.50456   0.00000  Uiso   1.00
H542   H     0.33756   0.15322   0.27593   0.00000  Uiso   1.00
H543   H     0.69064   0.94432   0.71885   0.00000  Uiso   1.00
O544   O     0.25042   0.51807   0.53095   0.00000  Uiso   1.00
O545   O     0.20897   0.13487   0.23101   0.00000  Uiso   1.00
O546   O     0.67220   0.86079   0.81210   0.00000  Uiso   1.00
N547   N     0.23921   0.41317   0.54260   0.00000  Uiso   1.00
N548   N     0.20966   0.14011   0.32884   0.00000  Uiso   1.00
N549   N     0.53976   0.94478   0.74292   0.00000  Uiso   1.00
N550   N     0.33454   0.42361   0.51578   0.00000  Uiso   1.00
N551   N     0.30499   0.15055   0.30201   0.00000  Uiso   1.00
N552   N     0.63509   0.95522   0.71610   0.00000  Uiso   1.00
