data_job_06552
_audit_creation_date              2018-12-19
_audit_creation_method            'Materials Studio'
_symmetry_space_group_name_H-M    'P1'
_symmetry_Int_Tables_number       1
_symmetry_cell_setting            triclinic
loop_
_symmetry_equiv_pos_as_xyz
  x,y,z
_cell_length_a                    21.1639
_cell_length_b                    20.6611
_cell_length_c                    18.3769
_cell_angle_alpha                 75.1864
_cell_angle_beta                  78.9340
_cell_angle_gamma                 74.6757
loop_
_atom_site_label
_atom_site_type_symbol
_atom_site_fract_x
_atom_site_fract_y
_atom_site_fract_z
_atom_site_U_iso_or_equiv
_atom_site_adp_type
_atom_site_occupancy
C1     C     0.39070   0.75452   0.66358   0.00000  Uiso   1.00
C2     C     0.42510   0.68003   0.66167   0.00000  Uiso   1.00
C3     C     0.40418   0.63713   0.62894   0.00000  Uiso   1.00
C4     C     0.44248   0.57072   0.63318   0.00000  Uiso   1.00
C5     C     0.48719   0.45849   0.62481   0.00000  Uiso   1.00
C6     C     0.37678   0.75831   0.74712   0.00000  Uiso   1.00
C7     C     0.31523   0.78124   0.78623   0.00000  Uiso   1.00
C8     C     0.31287   0.78073   0.86240   0.00000  Uiso   1.00
C9     C     0.28257   0.79008   0.98668   0.00000  Uiso   1.00
C10    C     0.44231   0.79667   0.62701   0.00000  Uiso   1.00
C11    C     0.43586   0.85186   0.56514   0.00000  Uiso   1.00
C12    C     0.48866   0.88366   0.54019   0.00000  Uiso   1.00
C13    C     0.56010   0.95257   0.47797   0.00000  Uiso   1.00
C14    C     0.49593   0.71287   0.72931   0.00000  Uiso   1.00
C15    C     0.48226   0.65741   0.69738   0.00000  Uiso   1.00
C16    C     0.52060   0.59105   0.70166   0.00000  Uiso   1.00
C17    C     0.49974   0.54806   0.66894   0.00000  Uiso   1.00
C18    C     0.43394   0.73569   0.78283   0.00000  Uiso   1.00
C19    C     0.43166   0.73515   0.85895   0.00000  Uiso   1.00
C20    C     0.37013   0.75806   0.89817   0.00000  Uiso   1.00
C21    C     0.49947   0.77405   0.66271   0.00000  Uiso   1.00
C22    C     0.55229   0.80577   0.63786   0.00000  Uiso   1.00
C23    C     0.54592   0.86100   0.57595   0.00000  Uiso   1.00
H24    H     0.34619   0.77214   0.63579   0.00000  Uiso   1.00
H25    H     0.35994   0.65466   0.60132   0.00000  Uiso   1.00
H26    H     0.27101   0.79875   0.75859   0.00000  Uiso   1.00
H27    H     0.39162   0.86935   0.53752   0.00000  Uiso   1.00
H28    H     0.40037   0.51443   0.57888   0.00000  Uiso   1.00
H29    H     0.21287   0.81827   0.91047   0.00000  Uiso   1.00
H30    H     0.46719   0.96716   0.44431   0.00000  Uiso   1.00
H31    H     0.54043   0.69526   0.75711   0.00000  Uiso   1.00
H32    H     0.56483   0.57356   0.72929   0.00000  Uiso   1.00
H33    H     0.47590   0.71765   0.88656   0.00000  Uiso   1.00
H34    H     0.59651   0.78825   0.66550   0.00000  Uiso   1.00
H35    H     0.56667   0.44860   0.68275   0.00000  Uiso   1.00
H36    H     0.37916   0.75244   0.01434   0.00000  Uiso   1.00
H37    H     0.63349   0.90134   0.54818   0.00000  Uiso   1.00
O38    O     0.49606   0.40284   0.61035   0.00000  Uiso   1.00
O39    O     0.25006   0.80148   0.04537   0.00000  Uiso   1.00
O40    O     0.58373   0.99682   0.43379   0.00000  Uiso   1.00
N41    N     0.43617   0.51564   0.60712   0.00000  Uiso   1.00
N42    N     0.26086   0.79970   0.91715   0.00000  Uiso   1.00
N43    N     0.49862   0.93892   0.48134   0.00000  Uiso   1.00
N44    N     0.52565   0.48022   0.66302   0.00000  Uiso   1.00
N45    N     0.35034   0.76428   0.97304   0.00000  Uiso   1.00
N46    N     0.58811   0.90350   0.53723   0.00000  Uiso   1.00
C47    C     0.73515   0.42354   0.70404   0.00000  Uiso   1.00
C48    C     0.71369   0.45816   0.62606   0.00000  Uiso   1.00
C49    C     0.68606   0.42926   0.58306   0.00000  Uiso   1.00
C50    C     0.66981   0.46928   0.51318   0.00000  Uiso   1.00
C51    C     0.63485   0.51291   0.39601   0.00000  Uiso   1.00
C52    C     0.80781   0.42494   0.69665   0.00000  Uiso   1.00
C53    C     0.85931   0.36810   0.71301   0.00000  Uiso   1.00
C54    C     0.92229   0.38015   0.70255   0.00000  Uiso   1.00
C55    C     0.03344   0.37220   0.69503   0.00000  Uiso   1.00
C56    C     0.69783   0.47144   0.75677   0.00000  Uiso   1.00
C57    C     0.65687   0.45370   0.82368   0.00000  Uiso   1.00
C58    C     0.62726   0.50490   0.86385   0.00000  Uiso   1.00
C59    C     0.56765   0.56914   0.94967   0.00000  Uiso   1.00
C60    C     0.75540   0.54599   0.65640   0.00000  Uiso   1.00
C61    C     0.72469   0.52467   0.60019   0.00000  Uiso   1.00
C62    C     0.70847   0.56474   0.53035   0.00000  Uiso   1.00
C63    C     0.68083   0.53591   0.48725   0.00000  Uiso   1.00
C64    C     0.81881   0.49144   0.67077   0.00000  Uiso   1.00
C65    C     0.88172   0.50358   0.66030   0.00000  Uiso   1.00
C66    C     0.93331   0.44678   0.67663   0.00000  Uiso   1.00
C67    C     0.70882   0.53795   0.73089   0.00000  Uiso   1.00
C68    C     0.67927   0.58918   0.77097   0.00000  Uiso   1.00
C69    C     0.63828   0.57153   0.83793   0.00000  Uiso   1.00
H70    H     0.72659   0.37176   0.72419   0.00000  Uiso   1.00
H71    H     0.67757   0.37779   0.60310   0.00000  Uiso   1.00
H72    H     0.85079   0.31664   0.73304   0.00000  Uiso   1.00
H73    H     0.64837   0.40222   0.84369   0.00000  Uiso   1.00
H74    H     0.62809   0.41380   0.45743   0.00000  Uiso   1.00
H75    H     0.99333   0.28486   0.73143   0.00000  Uiso   1.00
H76    H     0.56650   0.46533   0.96477   0.00000  Uiso   1.00
H77    H     0.76396   0.59778   0.63626   0.00000  Uiso   1.00
H78    H     0.71699   0.61621   0.51034   0.00000  Uiso   1.00
H79    H     0.89021   0.55506   0.64027   0.00000  Uiso   1.00
H80    H     0.68780   0.64064   0.75093   0.00000  Uiso   1.00
H81    H     0.66009   0.60731   0.38214   0.00000  Uiso   1.00
H82    H     0.02534   0.47837   0.65614   0.00000  Uiso   1.00
H83    H     0.59850   0.65885   0.88947   0.00000  Uiso   1.00
O84    O     0.61254   0.51859   0.33853   0.00000  Uiso   1.00
O85    O     0.09172   0.34944   0.69802   0.00000  Uiso   1.00
O86    O     0.53172   0.58621   0.00414   0.00000  Uiso   1.00
N87    N     0.64206   0.45681   0.45700   0.00000  Uiso   1.00
N88    N     0.98354   0.33627   0.71316   0.00000  Uiso   1.00
N89    N     0.58450   0.50499   0.93132   0.00000  Uiso   1.00
N90    N     0.65927   0.56094   0.41649   0.00000  Uiso   1.00
N91    N     0.00076   0.44040   0.67264   0.00000  Uiso   1.00
N92    N     0.60172   0.60912   0.89080   0.00000  Uiso   1.00
C93    C     0.70752   0.73871   0.26815   0.00000  Uiso   1.00
C94    C     0.64020   0.73282   0.31362   0.00000  Uiso   1.00
C95    C     0.59873   0.69579   0.30134   0.00000  Uiso   1.00
C96    C     0.53921   0.69686   0.34908   0.00000  Uiso   1.00
C97    C     0.43731   0.68214   0.41086   0.00000  Uiso   1.00
C98    C     0.70384   0.81540   0.23819   0.00000  Uiso   1.00
C99    C     0.71587   0.84781   0.16249   0.00000  Uiso   1.00
C100   C     0.70994   0.91840   0.14673   0.00000  Uiso   1.00
C101   C     0.70688   0.03190   0.09140   0.00000  Uiso   1.00
C102   C     0.75663   0.71432   0.32569   0.00000  Uiso   1.00
C103   C     0.81307   0.66175   0.32356   0.00000  Uiso   1.00
C104   C     0.85159   0.64724   0.38147   0.00000  Uiso   1.00
C105   C     0.93050   0.60379   0.46201   0.00000  Uiso   1.00
C106   C     0.67559   0.80644   0.37476   0.00000  Uiso   1.00
C107   C     0.62286   0.76961   0.37153   0.00000  Uiso   1.00
C108   C     0.56340   0.77073   0.41930   0.00000  Uiso   1.00
C109   C     0.52184   0.73371   0.40710   0.00000  Uiso   1.00
C110   C     0.68649   0.85219   0.29609   0.00000  Uiso   1.00
C111   C     0.68054   0.92275   0.28044   0.00000  Uiso   1.00
C112   C     0.69256   0.95526   0.20475   0.00000  Uiso   1.00
C113   C     0.73929   0.75111   0.38360   0.00000  Uiso   1.00
C114   C     0.77773   0.73669   0.44152   0.00000  Uiso   1.00
C115   C     0.83422   0.68410   0.43948   0.00000  Uiso   1.00
H116   H     0.72102   0.71007   0.22306   0.00000  Uiso   1.00
H117   H     0.61216   0.66733   0.25652   0.00000  Uiso   1.00
H118   H     0.72930   0.81933   0.11769   0.00000  Uiso   1.00
H119   H     0.82648   0.63329   0.27874   0.00000  Uiso   1.00
H120   H     0.48381   0.63619   0.31913   0.00000  Uiso   1.00
H121   H     0.73082   0.95668   0.02641   0.00000  Uiso   1.00
H122   H     0.93574   0.56439   0.36601   0.00000  Uiso   1.00
H123   H     0.66208   0.83508   0.41985   0.00000  Uiso   1.00
H124   H     0.54999   0.79920   0.46411   0.00000  Uiso   1.00
H125   H     0.66712   0.95120   0.32527   0.00000  Uiso   1.00
H126   H     0.76430   0.76517   0.48633   0.00000  Uiso   1.00
H127   H     0.43335   0.74323   0.48762   0.00000  Uiso   1.00
H128   H     0.68036   0.06372   0.19489   0.00000  Uiso   1.00
H129   H     0.88527   0.67143   0.53450   0.00000  Uiso   1.00
O130   O     0.38589   0.66387   0.42892   0.00000  Uiso   1.00
O131   O     0.70997   0.08434   0.04488   0.00000  Uiso   1.00
O132   O     0.97881   0.56966   0.49044   0.00000  Uiso   1.00
N133   N     0.48732   0.66630   0.35272   0.00000  Uiso   1.00
N134   N     0.71825   0.96594   0.07904   0.00000  Uiso   1.00
N135   N     0.90984   0.59919   0.39653   0.00000  Uiso   1.00
N136   N     0.46017   0.72389   0.44338   0.00000  Uiso   1.00
N137   N     0.69110   0.02353   0.16970   0.00000  Uiso   1.00
N138   N     0.88269   0.65678   0.48719   0.00000  Uiso   1.00
C139   C     0.87354   0.22813   0.19056   0.00000  Uiso   1.00
C140   C     0.91675   0.22599   0.11419   0.00000  Uiso   1.00
C141   C     0.90209   0.20552   0.05429   0.00000  Uiso   1.00
C142   C     0.94802   0.20722   0.98918   0.00000  Uiso   1.00
C143   C     0.00621   0.20067   0.87135   0.00000  Uiso   1.00
C144   C     0.86090   0.30172   0.20055   0.00000  Uiso   1.00
C145   C     0.79927   0.34490   0.21325   0.00000  Uiso   1.00
C146   C     0.79819   0.41036   0.22085   0.00000  Uiso   1.00
C147   C     0.76967   0.52135   0.23714   0.00000  Uiso   1.00
C148   C     0.91673   0.18373   0.25071   0.00000  Uiso   1.00
C149   C     0.90205   0.12772   0.30561   0.00000  Uiso   1.00
C150   C     0.94797   0.09385   0.35546   0.00000  Uiso   1.00
C151   C     0.00613   0.02165   0.44962   0.00000  Uiso   1.00
C152   C     0.98118   0.26757   0.18148   0.00000  Uiso   1.00
C153   C     0.97522   0.24741   0.10926   0.00000  Uiso   1.00
C154   C     0.02119   0.24915   0.04424   0.00000  Uiso   1.00
C155   C     0.00660   0.22868   0.98424   0.00000  Uiso   1.00
C156   C     0.91936   0.32314   0.19562   0.00000  Uiso   1.00
C157   C     0.91837   0.38854   0.20321   0.00000  Uiso   1.00
C158   C     0.85676   0.43182   0.21591   0.00000  Uiso   1.00
C159   C     0.97520   0.20515   0.24578   0.00000  Uiso   1.00
C160   C     0.02115   0.17136   0.29556   0.00000  Uiso   1.00
C161   C     0.00654   0.11531   0.35052   0.00000  Uiso   1.00
H162   H     0.82802   0.21146   0.19440   0.00000  Uiso   1.00
H163   H     0.85683   0.18895   0.05812   0.00000  Uiso   1.00
H164   H     0.75404   0.32831   0.21707   0.00000  Uiso   1.00
H165   H     0.85680   0.11116   0.30941   0.00000  Uiso   1.00
H166   H     0.91456   0.17346   0.90485   0.00000  Uiso   1.00
H167   H     0.69780   0.46731   0.24003   0.00000  Uiso   1.00
H168   H     0.91449   0.00941   0.43474   0.00000  Uiso   1.00
H169   H     0.02670   0.28425   0.17764   0.00000  Uiso   1.00
H170   H     0.06643   0.26573   0.04044   0.00000  Uiso   1.00
H171   H     0.96363   0.40510   0.19939   0.00000  Uiso   1.00
H172   H     0.06639   0.18795   0.29172   0.00000  Uiso   1.00
H173   H     0.08467   0.23578   0.89049   0.00000  Uiso   1.00
H174   H     0.86791   0.52963   0.22568   0.00000  Uiso   1.00
H175   H     0.08460   0.07173   0.42039   0.00000  Uiso   1.00
O176   O     0.02215   0.19115   0.80771   0.00000  Uiso   1.00
O177   O     0.73778   0.57666   0.24747   0.00000  Uiso   1.00
O178   O     0.02207   0.97590   0.50292   0.00000  Uiso   1.00
N179   N     0.94915   0.19065   0.92030   0.00000  Uiso   1.00
N180   N     0.74649   0.46539   0.23367   0.00000  Uiso   1.00
N181   N     0.94907   0.03730   0.41572   0.00000  Uiso   1.00
N182   N     0.04069   0.22419   0.91258   0.00000  Uiso   1.00
N183   N     0.83803   0.49893   0.22594   0.00000  Uiso   1.00
N184   N     0.04061   0.07084   0.40799   0.00000  Uiso   1.00
C185   C     0.25027   0.26191   0.86180   0.00000  Uiso   1.00
C186   C     0.24155   0.18859   0.87581   0.00000  Uiso   1.00
C187   C     0.20929   0.16470   0.83263   0.00000  Uiso   1.00
C188   C     0.20664   0.09589   0.85473   0.00000  Uiso   1.00
C189   C     0.18879   0.98861   0.86688   0.00000  Uiso   1.00
C190   C     0.32448   0.25629   0.85375   0.00000  Uiso   1.00
C191   C     0.36194   0.28933   0.79202   0.00000  Uiso   1.00
C192   C     0.42909   0.27751   0.79554   0.00000  Uiso   1.00
C193   C     0.53998   0.27538   0.77346   0.00000  Uiso   1.00
C194   C     0.22086   0.28623   0.93534   0.00000  Uiso   1.00
C195   C     0.17121   0.34445   0.94222   0.00000  Uiso   1.00
C196   C     0.15114   0.35785   0.01444   0.00000  Uiso   1.00
C197   C     0.10114   0.40221   0.11905   0.00000  Uiso   1.00
C198   C     0.30293   0.18219   0.97782   0.00000  Uiso   1.00
C199   C     0.27016   0.14529   0.93883   0.00000  Uiso   1.00
C200   C     0.26756   0.07649   0.96100   0.00000  Uiso   1.00
C201   C     0.23530   0.05250   0.91786   0.00000  Uiso   1.00
C202   C     0.35309   0.21299   0.91676   0.00000  Uiso   1.00
C203   C     0.42020   0.20112   0.92039   0.00000  Uiso   1.00
C204   C     0.45775   0.23413   0.85868   0.00000  Uiso   1.00
C205   C     0.24947   0.24292   0.99836   0.00000  Uiso   1.00
C206   C     0.22947   0.25624   0.07059   0.00000  Uiso   1.00
C207   C     0.17979   0.31447   0.07757   0.00000  Uiso   1.00
H208   H     0.22800   0.29563   0.81274   0.00000  Uiso   1.00
H209   H     0.18717   0.19823   0.78386   0.00000  Uiso   1.00
H210   H     0.33979   0.32284   0.74326   0.00000  Uiso   1.00
H211   H     0.14908   0.37795   0.89344   0.00000  Uiso   1.00
H212   H     0.15453   0.07113   0.77963   0.00000  Uiso   1.00
H213   H     0.47633   0.33391   0.69403   0.00000  Uiso   1.00
H214   H     0.07420   0.45013   0.01071   0.00000  Uiso   1.00
H215   H     0.32520   0.14847   0.02689   0.00000  Uiso   1.00
H216   H     0.28970   0.04299   0.00977   0.00000  Uiso   1.00
H217   H     0.44232   0.16761   0.96916   0.00000  Uiso   1.00
H218   H     0.25162   0.22272   0.11934   0.00000  Uiso   1.00
H219   H     0.23775   0.94514   0.96298   0.00000  Uiso   1.00
H220   H     0.55955   0.20792   0.87738   0.00000  Uiso   1.00
H221   H     0.15742   0.32413   0.19406   0.00000  Uiso   1.00
O222   O     0.17105   0.94140   0.85617   0.00000  Uiso   1.00
O223   O     0.59324   0.28616   0.74386   0.00000  Uiso   1.00
O224   O     0.06565   0.43863   0.15934   0.00000  Uiso   1.00
N225   N     0.17898   0.05596   0.82514   0.00000  Uiso   1.00
N226   N     0.47985   0.30163   0.74510   0.00000  Uiso   1.00
N227   N     0.10390   0.41029   0.04117   0.00000  Uiso   1.00
N228   N     0.22376   0.98816   0.92380   0.00000  Uiso   1.00
N229   N     0.52463   0.23384   0.84376   0.00000  Uiso   1.00
N230   N     0.14868   0.34250   0.13983   0.00000  Uiso   1.00
C231   C     0.26900   0.89717   0.19095   0.00000  Uiso   1.00
C232   C     0.20279   0.94040   0.16721   0.00000  Uiso   1.00
C233   C     0.16634   0.92506   0.12123   0.00000  Uiso   1.00
C234   C     0.10700   0.97114   0.10613   0.00000  Uiso   1.00
C235   C     0.00753   0.02924   0.06476   0.00000  Uiso   1.00
C236   C     0.25943   0.88113   0.27754   0.00000  Uiso   1.00
C237   C     0.27062   0.81596   0.32433   0.00000  Uiso   1.00
C238   C     0.25896   0.81215   0.40212   0.00000  Uiso   1.00
C239   C     0.24747   0.77824   0.53205   0.00000  Uiso   1.00
C240   C     0.31696   0.94474   0.16575   0.00000  Uiso   1.00
C241   C     0.37653   0.93305   0.11856   0.00000  Uiso   1.00
C242   C     0.41332   0.98279   0.10224   0.00000  Uiso   1.00
C243   C     0.49116   0.04763   0.05860   0.00000  Uiso   1.00
C244   C     0.22842   0.00629   0.24589   0.00000  Uiso   1.00
C245   C     0.18076   0.99967   0.19705   0.00000  Uiso   1.00
C246   C     0.12145   0.04579   0.18202   0.00000  Uiso   1.00
C247   C     0.08492   0.03052   0.13602   0.00000  Uiso   1.00
C248   C     0.23740   0.94040   0.30739   0.00000  Uiso   1.00
C249   C     0.22572   0.93669   0.38512   0.00000  Uiso   1.00
C250   C     0.23688   0.87153   0.43202   0.00000  Uiso   1.00
C251   C     0.29493   0.00401   0.19560   0.00000  Uiso   1.00
C252   C     0.33163   0.05378   0.17935   0.00000  Uiso   1.00
C253   C     0.39124   0.04216   0.13214   0.00000  Uiso   1.00
H254   H     0.28616   0.85102   0.16772   0.00000  Uiso   1.00
H255   H     0.18341   0.87918   0.09815   0.00000  Uiso   1.00
H256   H     0.28768   0.77010   0.30122   0.00000  Uiso   1.00
H257   H     0.39357   0.88718   0.09548   0.00000  Uiso   1.00
H258   H     0.05977   0.93653   0.03420   0.00000  Uiso   1.00
H259   H     0.27963   0.70653   0.46239   0.00000  Uiso   1.00
H260   H     0.50293   0.95340   0.02855   0.00000  Uiso   1.00
H261   H     0.21127   0.05243   0.26913   0.00000  Uiso   1.00
H262   H     0.10441   0.09165   0.20512   0.00000  Uiso   1.00
H263   H     0.20867   0.98256   0.40820   0.00000  Uiso   1.00
H264   H     0.31456   0.09963   0.20246   0.00000  Uiso   1.00
H265   H     0.99564   0.10897   0.12103   0.00000  Uiso   1.00
H266   H     0.21551   0.87897   0.54922   0.00000  Uiso   1.00
H267   H     0.43880   0.12584   0.11537   0.00000  Uiso   1.00
O268   O     0.95875   0.04490   0.03370   0.00000  Uiso   1.00
O269   O     0.24722   0.74315   0.59547   0.00000  Uiso   1.00
O270   O     0.54017   0.06703   0.02627   0.00000  Uiso   1.00
N271   N     0.05935   0.97174   0.06341   0.00000  Uiso   1.00
N272   N     0.26490   0.75670   0.46374   0.00000  Uiso   1.00
N273   N     0.47367   0.98749   0.05815   0.00000  Uiso   1.00
N274   N     0.02484   0.06453   0.11013   0.00000  Uiso   1.00
N275   N     0.23039   0.84949   0.51046   0.00000  Uiso   1.00
N276   N     0.43916   0.08028   0.10487   0.00000  Uiso   1.00
C277   C     0.60347   0.27662   0.17326   0.00000  Uiso   1.00
C278   C     0.56374   0.34933   0.17639   0.00000  Uiso   1.00
C279   C     0.57801   0.39324   0.21368   0.00000  Uiso   1.00
C280   C     0.53563   0.45769   0.20981   0.00000  Uiso   1.00
C281   C     0.48228   0.56760   0.22069   0.00000  Uiso   1.00
C282   C     0.62282   0.27542   0.08921   0.00000  Uiso   1.00
C283   C     0.68678   0.25717   0.05320   0.00000  Uiso   1.00
C284   C     0.69413   0.25940   0.97594   0.00000  Uiso   1.00
C285   C     0.73250   0.25451   0.85147   0.00000  Uiso   1.00
C286   C     0.55487   0.23004   0.20402   0.00000  Uiso   1.00
C287   C     0.56170   0.17362   0.26453   0.00000  Uiso   1.00
C288   C     0.51185   0.13763   0.28392   0.00000  Uiso   1.00
C289   C     0.44472   0.06228   0.33771   0.00000  Uiso   1.00
C290   C     0.50281   0.31301   0.10008   0.00000  Uiso   1.00
C291   C     0.50907   0.36910   0.13664   0.00000  Uiso   1.00
C292   C     0.46665   0.43350   0.13272   0.00000  Uiso   1.00
C293   C     0.48086   0.47749   0.17000   0.00000  Uiso   1.00
C294   C     0.56816   0.29519   0.04946   0.00000  Uiso   1.00
C295   C     0.57542   0.29743   0.97224   0.00000  Uiso   1.00
C296   C     0.63936   0.27920   0.93612   0.00000  Uiso   1.00
C297   C     0.50020   0.24981   0.16427   0.00000  Uiso   1.00
C298   C     0.45034   0.21389   0.18357   0.00000  Uiso   1.00
C299   C     0.45708   0.15743   0.24410   0.00000  Uiso   1.00
H300   H     0.64603   0.26123   0.20420   0.00000  Uiso   1.00
H301   H     0.62033   0.37792   0.24443   0.00000  Uiso   1.00
H302   H     0.72907   0.24187   0.08397   0.00000  Uiso   1.00
H303   H     0.60401   0.15834   0.29527   0.00000  Uiso   1.00
H304   H     0.56774   0.51603   0.27148   0.00000  Uiso   1.00
H305   H     0.79703   0.22914   0.93315   0.00000  Uiso   1.00
H306   H     0.53332   0.05299   0.37872   0.00000  Uiso   1.00
H307   H     0.46025   0.32840   0.06913   0.00000  Uiso   1.00
H308   H     0.42435   0.44878   0.10196   0.00000  Uiso   1.00
H309   H     0.53310   0.31273   0.94150   0.00000  Uiso   1.00
H310   H     0.40804   0.22920   0.15280   0.00000  Uiso   1.00
H311   H     0.40867   0.57354   0.15584   0.00000  Uiso   1.00
H312   H     0.63797   0.28664   0.81751   0.00000  Uiso   1.00
H313   H     0.37425   0.11050   0.26308   0.00000  Uiso   1.00
O314   O     0.46795   0.62277   0.23767   0.00000  Uiso   1.00
O315   O     0.76878   0.24637   0.79380   0.00000  Uiso   1.00
O316   O     0.42279   0.01527   0.37837   0.00000  Uiso   1.00
N317   N     0.53522   0.51304   0.23977   0.00000  Uiso   1.00
N318   N     0.74960   0.24482   0.92345   0.00000  Uiso   1.00
N319   N     0.50306   0.08013   0.34001   0.00000  Uiso   1.00
N320   N     0.44963   0.54398   0.17755   0.00000  Uiso   1.00
N321   N     0.66401   0.27577   0.86123   0.00000  Uiso   1.00
N322   N     0.41746   0.11107   0.27779   0.00000  Uiso   1.00
C323   C     0.25463   0.63408   0.15533   0.00000  Uiso   1.00
C324   C     0.26871   0.59235   0.23423   0.00000  Uiso   1.00
C325   C     0.30565   0.60695   0.28025   0.00000  Uiso   1.00
C326   C     0.31279   0.56251   0.35049   0.00000  Uiso   1.00
C327   C     0.33900   0.50640   0.46948   0.00000  Uiso   1.00
C328   C     0.17959   0.65405   0.15877   0.00000  Uiso   1.00
C329   C     0.14158   0.72053   0.14133   0.00000  Uiso   1.00
C330   C     0.07369   0.72803   0.14804   0.00000  Uiso   1.00
C331   C     0.96154   0.76771   0.14982   0.00000  Uiso   1.00
C332   C     0.27928   0.58396   0.10240   0.00000  Uiso   1.00
C333   C     0.32509   0.59152   0.03754   0.00000  Uiso   1.00
C334   C     0.34112   0.54001   0.99678   0.00000  Uiso   1.00
C335   C     0.38375   0.47087   0.91103   0.00000  Uiso   1.00
C336   C     0.20164   0.52919   0.19825   0.00000  Uiso   1.00
C337   C     0.23993   0.53538   0.25754   0.00000  Uiso   1.00
C338   C     0.24701   0.49090   0.32773   0.00000  Uiso   1.00
C339   C     0.28395   0.50544   0.37384   0.00000  Uiso   1.00
C340   C     0.15080   0.59708   0.18208   0.00000  Uiso   1.00
C341   C     0.08295   0.60448   0.18882   0.00000  Uiso   1.00
C342   C     0.04485   0.67096   0.17140   0.00000  Uiso   1.00
C343   C     0.25049   0.52699   0.12571   0.00000  Uiso   1.00
C344   C     0.26645   0.47547   0.08503   0.00000  Uiso   1.00
C345   C     0.31228   0.48294   0.02013   0.00000  Uiso   1.00
H346   H     0.27704   0.67843   0.13718   0.00000  Uiso   1.00
H347   H     0.32791   0.65105   0.26219   0.00000  Uiso   1.00
H348   H     0.16387   0.76461   0.12329   0.00000  Uiso   1.00
H349   H     0.34735   0.63561   0.01952   0.00000  Uiso   1.00
H350   H     0.37160   0.59558   0.41108   0.00000  Uiso   1.00
H351   H     0.02572   0.83502   0.11817   0.00000  Uiso   1.00
H352   H     0.41262   0.56301   0.89935   0.00000  Uiso   1.00
H353   H     0.17922   0.48483   0.21640   0.00000  Uiso   1.00
H354   H     0.22473   0.44682   0.34576   0.00000  Uiso   1.00
H355   H     0.06069   0.56038   0.20686   0.00000  Uiso   1.00
H356   H     0.24417   0.43139   0.10309   0.00000  Uiso   1.00
H357   H     0.28785   0.42982   0.47891   0.00000  Uiso   1.00
H358   H     0.94197   0.66927   0.18600   0.00000  Uiso   1.00
H359   H     0.32887   0.39725   0.96718   0.00000  Uiso   1.00
O360   O     0.36140   0.49120   0.52867   0.00000  Uiso   1.00
O361   O     0.90763   0.80534   0.14437   0.00000  Uiso   1.00
O362   O     0.41523   0.44846   0.85729   0.00000  Uiso   1.00
N363   N     0.34565   0.56177   0.40928   0.00000  Uiso   1.00
N364   N     0.02227   0.78564   0.13544   0.00000  Uiso   1.00
N365   N     0.38398   0.53134   0.93086   0.00000  Uiso   1.00
N366   N     0.30059   0.47258   0.44578   0.00000  Uiso   1.00
N367   N     0.97721   0.69645   0.17194   0.00000  Uiso   1.00
N368   N     0.33892   0.44215   0.96735   0.00000  Uiso   1.00
C369   C     0.25137   0.27731   0.52609   0.00000  Uiso   1.00
C370   C     0.31902   0.29167   0.49109   0.00000  Uiso   1.00
C371   C     0.35808   0.31717   0.52443   0.00000  Uiso   1.00
C372   C     0.41838   0.32673   0.48320   0.00000  Uiso   1.00
C373   C     0.52034   0.35134   0.43981   0.00000  Uiso   1.00
C374   C     0.25680   0.20197   0.52732   0.00000  Uiso   1.00
C375   C     0.24352   0.15204   0.59113   0.00000  Uiso   1.00
C376   C     0.25143   0.08610   0.58039   0.00000  Uiso   1.00
C377   C     0.25673   0.97145   0.59324   0.00000  Uiso   1.00
C378   C     0.20409   0.31885   0.46906   0.00000  Uiso   1.00
C379   C     0.14649   0.36720   0.48388   0.00000  Uiso   1.00
C380   C     0.11002   0.39965   0.42410   0.00000  Uiso   1.00
C381   C     0.03348   0.46649   0.34649   0.00000  Uiso   1.00
C382   C     0.28901   0.24896   0.39356   0.00000  Uiso   1.00
C383   C     0.33947   0.27627   0.41910   0.00000  Uiso   1.00
C384   C     0.39973   0.28580   0.37780   0.00000  Uiso   1.00
C385   C     0.43887   0.31131   0.41108   0.00000  Uiso   1.00
C386   C     0.27724   0.18657   0.45533   0.00000  Uiso   1.00
C387   C     0.28517   0.12068   0.44449   0.00000  Uiso   1.00
C388   C     0.27192   0.07067   0.50827   0.00000  Uiso   1.00
C389   C     0.22454   0.30346   0.39707   0.00000  Uiso   1.00
C390   C     0.18814   0.33584   0.33725   0.00000  Uiso   1.00
C391   C     0.13050   0.38422   0.35198   0.00000  Uiso   1.00
H392   H     0.23545   0.28929   0.58214   0.00000  Uiso   1.00
H393   H     0.34224   0.32907   0.58015   0.00000  Uiso   1.00
H394   H     0.22769   0.16398   0.64683   0.00000  Uiso   1.00
H395   H     0.13068   0.37910   0.53960   0.00000  Uiso   1.00
H396   H     0.46967   0.36636   0.54620   0.00000  Uiso   1.00
H397   H     0.22812   0.01825   0.68680   0.00000  Uiso   1.00
H398   H     0.02354   0.47188   0.46069   0.00000  Uiso   1.00
H399   H     0.30493   0.23697   0.33751   0.00000  Uiso   1.00
H400   H     0.41554   0.27388   0.32209   0.00000  Uiso   1.00
H401   H     0.30099   0.10879   0.38878   0.00000  Uiso   1.00
H402   H     0.20398   0.32391   0.28155   0.00000  Uiso   1.00
H403   H     0.52916   0.32156   0.33676   0.00000  Uiso   1.00
H404   H     0.28760   0.97346   0.47736   0.00000  Uiso   1.00
H405   H     0.08304   0.42708   0.25124   0.00000  Uiso   1.00
O406   O     0.57093   0.36916   0.43576   0.00000  Uiso   1.00
O407   O     0.25401   0.91247   0.62022   0.00000  Uiso   1.00
O408   O     0.98562   0.50761   0.32357   0.00000  Uiso   1.00
N409   N     0.46848   0.35076   0.49902   0.00000  Uiso   1.00
N410   N     0.24266   0.02530   0.63047   0.00000  Uiso   1.00
N411   N     0.05139   0.44939   0.41908   0.00000  Uiso   1.00
N412   N     0.50050   0.32666   0.38632   0.00000  Uiso   1.00
N413   N     0.27467   0.00120   0.51777   0.00000  Uiso   1.00
N414   N     0.08340   0.42529   0.30638   0.00000  Uiso   1.00
C415   C     0.04733   0.75844   0.65865   0.00000  Uiso   1.00
C416   C     0.04758   0.76770   0.73829   0.00000  Uiso   1.00
C417   C     0.07884   0.81168   0.75620   0.00000  Uiso   1.00
C418   C     0.07324   0.81268   0.83245   0.00000  Uiso   1.00
C419   C     0.07907   0.83333   0.94757   0.00000  Uiso   1.00
C420   C     0.07470   0.68200   0.66073   0.00000  Uiso   1.00
C421   C     0.12875   0.65394   0.61341   0.00000  Uiso   1.00
C422   C     0.14597   0.58280   0.62436   0.00000  Uiso   1.00
C423   C     0.19387   0.47042   0.61901   0.00000  Uiso   1.00
C424   C     0.97482   0.77324   0.64790   0.00000  Uiso   1.00
C425   C     0.94488   0.82187   0.58979   0.00000  Uiso   1.00
C426   C     0.87801   0.82752   0.58993   0.00000  Uiso   1.00
C427   C     0.77083   0.85680   0.56466   0.00000  Uiso   1.00
C428   C     0.98181   0.68199   0.76222   0.00000  Uiso   1.00
C429   C     0.01199   0.72617   0.79455   0.00000  Uiso   1.00
C430   C     0.00635   0.72710   0.87079   0.00000  Uiso   1.00
C431   C     0.03759   0.77108   0.88881   0.00000  Uiso   1.00
C432   C     0.03911   0.64048   0.71698   0.00000  Uiso   1.00
C433   C     0.05625   0.56936   0.72800   0.00000  Uiso   1.00
C434   C     0.11032   0.54119   0.68072   0.00000  Uiso   1.00
C435   C     0.93923   0.73171   0.70416   0.00000  Uiso   1.00
C436   C     0.87239   0.73729   0.70438   0.00000  Uiso   1.00
C437   C     0.84236   0.78592   0.64628   0.00000  Uiso   1.00
H438   H     0.07504   0.79077   0.61485   0.00000  Uiso   1.00
H439   H     0.10638   0.84380   0.71265   0.00000  Uiso   1.00
H440   H     0.15627   0.68609   0.56988   0.00000  Uiso   1.00
H441   H     0.97244   0.85399   0.54626   0.00000  Uiso   1.00
H442   H     0.12545   0.88427   0.84589   0.00000  Uiso   1.00
H443   H     0.23064   0.55172   0.54483   0.00000  Uiso   1.00
H444   H     0.84299   0.90578   0.49503   0.00000  Uiso   1.00
H445   H     0.95410   0.64966   0.80602   0.00000  Uiso   1.00
H446   H     0.97880   0.69496   0.91431   0.00000  Uiso   1.00
H447   H     0.02870   0.53724   0.77154   0.00000  Uiso   1.00
H448   H     0.84487   0.70515   0.74792   0.00000  Uiso   1.00
H449   H     0.02191   0.76346   0.00957   0.00000  Uiso   1.00
H450   H     0.12710   0.43091   0.70850   0.00000  Uiso   1.00
H451   H     0.73945   0.78497   0.65871   0.00000  Uiso   1.00
O452   O     0.09213   0.85619   0.99552   0.00000  Uiso   1.00
O453   O     0.23013   0.41990   0.60053   0.00000  Uiso   1.00
O454   O     0.72154   0.88442   0.53520   0.00000  Uiso   1.00
N455   N     0.09768   0.84964   0.86955   0.00000  Uiso   1.00
N456   N     0.19603   0.53872   0.58808   0.00000  Uiso   1.00
N457   N     0.83362   0.86972   0.54151   0.00000  Uiso   1.00
N458   N     0.04196   0.78463   0.95762   0.00000  Uiso   1.00
N459   N     0.14032   0.47371   0.67616   0.00000  Uiso   1.00
N460   N     0.77790   0.80472   0.62958   0.00000  Uiso   1.00
C461   C     0.77551   0.67545   0.03421   0.00000  Uiso   1.00
C462   C     0.80499   0.73687   0.99243   0.00000  Uiso   1.00
C463   C     0.83978   0.76906   0.02353   0.00000  Uiso   1.00
C464   C     0.86270   0.82442   0.97595   0.00000  Uiso   1.00
C465   C     0.91019   0.91642   0.92263   0.00000  Uiso   1.00
C466   C     0.70211   0.69772   0.02591   0.00000  Uiso   1.00
C467   C     0.65041   0.69698   0.08517   0.00000  Uiso   1.00
C468   C     0.58673   0.71938   0.06576   0.00000  Uiso   1.00
C469   C     0.47450   0.75055   0.06444   0.00000  Uiso   1.00
C470   C     0.80494   0.61991   0.98848   0.00000  Uiso   1.00
C471   C     0.83968   0.55374   0.01626   0.00000  Uiso   1.00
C472   C     0.86256   0.51063   0.96534   0.00000  Uiso   1.00
C473   C     0.90998   0.42099   0.90589   0.00000  Uiso   1.00
C474   C     0.75436   0.71653   0.89440   0.00000  Uiso   1.00
C475   C     0.79349   0.75918   0.91649   0.00000  Uiso   1.00
C476   C     0.81638   0.81451   0.86885   0.00000  Uiso   1.00
C477   C     0.85120   0.84678   0.89987   0.00000  Uiso   1.00
C478   C     0.69062   0.72003   0.94998   0.00000  Uiso   1.00
C479   C     0.62701   0.74243   0.93048   0.00000  Uiso   1.00
C480   C     0.57522   0.74174   0.98969   0.00000  Uiso   1.00
C481   C     0.79345   0.64222   0.91254   0.00000  Uiso   1.00
C482   C     0.81628   0.59920   0.86157   0.00000  Uiso   1.00
C483   C     0.85105   0.53298   0.88927   0.00000  Uiso   1.00
H484   H     0.78445   0.65808   0.09333   0.00000  Uiso   1.00
H485   H     0.84865   0.75178   0.08230   0.00000  Uiso   1.00
H486   H     0.65931   0.67971   0.14393   0.00000  Uiso   1.00
H487   H     0.84856   0.53649   0.07503   0.00000  Uiso   1.00
H488   H     0.91475   0.86552   0.03659   0.00000  Uiso   1.00
H489   H     0.51551   0.71353   0.16653   0.00000  Uiso   1.00
H490   H     0.91457   0.41154   0.02124   0.00000  Uiso   1.00
H491   H     0.74541   0.73390   0.83528   0.00000  Uiso   1.00
H492   H     0.80748   0.83177   0.81008   0.00000  Uiso   1.00
H493   H     0.61814   0.75970   0.87171   0.00000  Uiso   1.00
H494   H     0.80738   0.61648   0.80281   0.00000  Uiso   1.00
H495   H     0.88132   0.93045   0.81565   0.00000  Uiso   1.00
H496   H     0.48209   0.77845   0.94559   0.00000  Uiso   1.00
H497   H     0.88114   0.47646   0.80030   0.00000  Uiso   1.00
O498   O     0.93955   0.96101   0.91421   0.00000  Uiso   1.00
O499   O     0.41577   0.76159   0.08469   0.00000  Uiso   1.00
O500   O     0.93932   0.36539   0.89407   0.00000  Uiso   1.00
N501   N     0.89838   0.86736   0.98805   0.00000  Uiso   1.00
N502   N     0.52512   0.72527   0.10953   0.00000  Uiso   1.00
N503   N     0.89818   0.44293   0.97370   0.00000  Uiso   1.00
N504   N     0.88039   0.90230   0.86916   0.00000  Uiso   1.00
N505   N     0.50713   0.76020   0.99064   0.00000  Uiso   1.00
N506   N     0.88020   0.47786   0.85482   0.00000  Uiso   1.00
C507   C     0.75974   0.12415   0.70495   0.00000  Uiso   1.00
C508   C     0.83409   0.09449   0.70083   0.00000  Uiso   1.00
C509   C     0.87913   0.12196   0.72208   0.00000  Uiso   1.00
C510   C     0.94500   0.08717   0.71396   0.00000  Uiso   1.00
C511   C     0.05740   0.05027   0.71183   0.00000  Uiso   1.00
C512   C     0.74317   0.13533   0.62484   0.00000  Uiso   1.00
C513   C     0.71176   0.19714   0.58221   0.00000  Uiso   1.00
C514   C     0.70108   0.19672   0.51013   0.00000  Uiso   1.00
C515   C     0.67228   0.22321   0.39005   0.00000  Uiso   1.00
C516   C     0.72724   0.06682   0.75340   0.00000  Uiso   1.00
C517   C     0.68243   0.07103   0.81886   0.00000  Uiso   1.00
C518   C     0.65833   0.01294   0.85500   0.00000  Uiso   1.00
C519   C     0.60480   0.93306   0.93453   0.00000  Uiso   1.00
C520   C     0.79662   0.01350   0.65274   0.00000  Uiso   1.00
C521   C     0.85412   0.03439   0.67246   0.00000  Uiso   1.00
C522   C     0.91993   0.99954   0.66431   0.00000  Uiso   1.00
C523   C     0.96507   0.02696   0.68555   0.00000  Uiso   1.00
C524   C     0.76320   0.07523   0.59648   0.00000  Uiso   1.00
C525   C     0.75256   0.07472   0.52444   0.00000  Uiso   1.00
C526   C     0.72114   0.13651   0.48171   0.00000  Uiso   1.00
C527   C     0.74727   0.00672   0.72504   0.00000  Uiso   1.00
C528   C     0.72323   0.94861   0.76108   0.00000  Uiso   1.00
C529   C     0.67839   0.95273   0.82659   0.00000  Uiso   1.00
H530   H     0.74414   0.17095   0.72703   0.00000  Uiso   1.00
H531   H     0.86361   0.16848   0.74402   0.00000  Uiso   1.00
H532   H     0.69626   0.24364   0.60418   0.00000  Uiso   1.00
H533   H     0.66694   0.11755   0.84079   0.00000  Uiso   1.00
H534   H     0.00490   0.13926   0.75033   0.00000  Uiso   1.00
H535   H     0.65200   0.29773   0.45547   0.00000  Uiso   1.00
H536   H     0.59017   0.03185   0.95440   0.00000  Uiso   1.00
H537   H     0.81221   0.96671   0.63065   0.00000  Uiso   1.00
H538   H     0.93542   0.95304   0.64236   0.00000  Uiso   1.00
H539   H     0.76806   0.02820   0.50251   0.00000  Uiso   1.00
H540   H     0.73874   0.90211   0.73912   0.00000  Uiso   1.00
H541   H     0.06318   0.96439   0.66781   0.00000  Uiso   1.00
H542   H     0.71028   0.12287   0.37295   0.00000  Uiso   1.00
H543   H     0.64845   0.85699   0.87189   0.00000  Uiso   1.00
O544   O     0.11386   0.04653   0.71848   0.00000  Uiso   1.00
O545   O     0.65086   0.25444   0.33165   0.00000  Uiso   1.00
O546   O     0.56975   0.90560   0.98624   0.00000  Uiso   1.00
N547   N     0.00170   0.09997   0.72931   0.00000  Uiso   1.00
N548   N     0.67178   0.24814   0.45364   0.00000  Uiso   1.00
N549   N     0.61396   0.99957   0.92009   0.00000  Uiso   1.00
N550   N     0.03307   0.00588   0.68491   0.00000  Uiso   1.00
N551   N     0.70314   0.15405   0.40924   0.00000  Uiso   1.00
N552   N     0.64532   0.90547   0.87569   0.00000  Uiso   1.00
