data_job_03349
_audit_creation_date              2018-12-19
_audit_creation_method            'Materials Studio'
_symmetry_space_group_name_H-M    'P1'
_symmetry_Int_Tables_number       1
_symmetry_cell_setting            triclinic
loop_
_symmetry_equiv_pos_as_xyz
  x,y,z
_cell_length_a                    24.1695
_cell_length_b                    11.4214
_cell_length_c                    23.3526
_cell_angle_alpha                 90.0000
_cell_angle_beta                  90.0000
_cell_angle_gamma                 90.0000
loop_
_atom_site_label
_atom_site_type_symbol
_atom_site_fract_x
_atom_site_fract_y
_atom_site_fract_z
_atom_site_U_iso_or_equiv
_atom_site_adp_type
_atom_site_occupancy
C1     C     0.11143   0.66024   0.87854   0.00000  Uiso   1.00
C2     C     0.13932   0.72057   0.82794   0.00000  Uiso   1.00
C3     C     0.18919   0.68776   0.80324   0.00000  Uiso   1.00
C4     C     0.20773   0.75422   0.75731   0.00000  Uiso   1.00
C5     C     0.25567   0.83337   0.68188   0.00000  Uiso   1.00
C6     C     0.10304   0.75477   0.92383   0.00000  Uiso   1.00
C7     C     0.12240   0.75069   0.97974   0.00000  Uiso   1.00
C8     C     0.11039   0.84595   0.01453   0.00000  Uiso   1.00
C9     C     0.10196   0.97814   0.08798   0.00000  Uiso   1.00
C10    C     0.05371   0.62627   0.85805   0.00000  Uiso   1.00
C11    C     0.03158   0.51416   0.85867   0.00000  Uiso   1.00
C12    C     0.97803   0.50123   0.83809   0.00000  Uiso   1.00
C13    C     0.89302   0.43391   0.80940   0.00000  Uiso   1.00
C14    C     0.05568   0.83664   0.84089   0.00000  Uiso   1.00
C15    C     0.10904   0.81639   0.80750   0.00000  Uiso   1.00
C16    C     0.12751   0.88293   0.76159   0.00000  Uiso   1.00
C17    C     0.17740   0.85021   0.73682   0.00000  Uiso   1.00
C18    C     0.07276   0.85059   0.90338   0.00000  Uiso   1.00
C19    C     0.06072   0.94586   0.93810   0.00000  Uiso   1.00
C20    C     0.08005   0.94193   0.99405   0.00000  Uiso   1.00
C21    C     0.02343   0.72209   0.83760   0.00000  Uiso   1.00
C22    C     0.96991   0.70933   0.81702   0.00000  Uiso   1.00
C23    C     0.94770   0.59722   0.81760   0.00000  Uiso   1.00
H24    H     0.13500   0.58565   0.89446   0.00000  Uiso   1.00
H25    H     0.21261   0.61361   0.81908   0.00000  Uiso   1.00
H26    H     0.14582   0.67653   0.99556   0.00000  Uiso   1.00
H27    H     0.05503   0.44003   0.87449   0.00000  Uiso   1.00
H28    H     0.28532   0.68688   0.72650   0.00000  Uiso   1.00
H29    H     0.14447   0.81954   0.09862   0.00000  Uiso   1.00
H30    H     0.95301   0.32084   0.84334   0.00000  Uiso   1.00
H31    H     0.03210   0.91124   0.82498   0.00000  Uiso   1.00
H32    H     0.10407   0.95707   0.74578   0.00000  Uiso   1.00
H33    H     0.03728   0.01999   0.92226   0.00000  Uiso   1.00
H34    H     0.94648   0.78350   0.80120   0.00000  Uiso   1.00
H35    H     0.19722   0.96565   0.66701   0.00000  Uiso   1.00
H36    H     0.05637   0.09831   0.03913   0.00000  Uiso   1.00
H37    H     0.86491   0.59961   0.78385   0.00000  Uiso   1.00
O38    O     0.29048   0.85056   0.64592   0.00000  Uiso   1.00
O39    O     0.10568   0.02459   0.13413   0.00000  Uiso   1.00
O40    O     0.85449   0.37031   0.79921   0.00000  Uiso   1.00
N41    N     0.25470   0.74619   0.72336   0.00000  Uiso   1.00
N42    N     0.12303   0.87022   0.07127   0.00000  Uiso   1.00
N43    N     0.94402   0.40399   0.83262   0.00000  Uiso   1.00
N44    N     0.20730   0.89619   0.69135   0.00000  Uiso   1.00
N45    N     0.07562   0.02023   0.03926   0.00000  Uiso   1.00
N46    N     0.89662   0.55399   0.80061   0.00000  Uiso   1.00
C47    C     0.38857   0.33976   0.87854   0.00000  Uiso   1.00
C48    C     0.36068   0.27943   0.82794   0.00000  Uiso   1.00
C49    C     0.31081   0.31224   0.80324   0.00000  Uiso   1.00
C50    C     0.29227   0.24578   0.75731   0.00000  Uiso   1.00
C51    C     0.24433   0.16663   0.68188   0.00000  Uiso   1.00
C52    C     0.39696   0.24523   0.92383   0.00000  Uiso   1.00
C53    C     0.37760   0.24931   0.97974   0.00000  Uiso   1.00
C54    C     0.38961   0.15405   0.01453   0.00000  Uiso   1.00
C55    C     0.39804   0.02186   0.08798   0.00000  Uiso   1.00
C56    C     0.44629   0.37373   0.85805   0.00000  Uiso   1.00
C57    C     0.46842   0.48584   0.85867   0.00000  Uiso   1.00
C58    C     0.52197   0.49877   0.83809   0.00000  Uiso   1.00
C59    C     0.60698   0.56609   0.80940   0.00000  Uiso   1.00
C60    C     0.44432   0.16336   0.84089   0.00000  Uiso   1.00
C61    C     0.39096   0.18361   0.80750   0.00000  Uiso   1.00
C62    C     0.37249   0.11707   0.76159   0.00000  Uiso   1.00
C63    C     0.32260   0.14979   0.73682   0.00000  Uiso   1.00
C64    C     0.42724   0.14941   0.90338   0.00000  Uiso   1.00
C65    C     0.43928   0.05414   0.93810   0.00000  Uiso   1.00
C66    C     0.41995   0.05807   0.99405   0.00000  Uiso   1.00
C67    C     0.47657   0.27791   0.83760   0.00000  Uiso   1.00
C68    C     0.53009   0.29067   0.81702   0.00000  Uiso   1.00
C69    C     0.55230   0.40278   0.81760   0.00000  Uiso   1.00
H70    H     0.36500   0.41435   0.89446   0.00000  Uiso   1.00
H71    H     0.28739   0.38639   0.81908   0.00000  Uiso   1.00
H72    H     0.35418   0.32347   0.99556   0.00000  Uiso   1.00
H73    H     0.44497   0.55997   0.87449   0.00000  Uiso   1.00
H74    H     0.21468   0.31312   0.72650   0.00000  Uiso   1.00
H75    H     0.35553   0.18046   0.09862   0.00000  Uiso   1.00
H76    H     0.54699   0.67916   0.84334   0.00000  Uiso   1.00
H77    H     0.46790   0.08876   0.82498   0.00000  Uiso   1.00
H78    H     0.39593   0.04293   0.74578   0.00000  Uiso   1.00
H79    H     0.46272   0.98001   0.92226   0.00000  Uiso   1.00
H80    H     0.55352   0.21650   0.80120   0.00000  Uiso   1.00
H81    H     0.30278   0.03435   0.66701   0.00000  Uiso   1.00
H82    H     0.44363   0.90169   0.03913   0.00000  Uiso   1.00
H83    H     0.63509   0.40039   0.78385   0.00000  Uiso   1.00
O84    O     0.20952   0.14944   0.64592   0.00000  Uiso   1.00
O85    O     0.39432   0.97541   0.13413   0.00000  Uiso   1.00
O86    O     0.64551   0.62969   0.79921   0.00000  Uiso   1.00
N87    N     0.24530   0.25381   0.72336   0.00000  Uiso   1.00
N88    N     0.37697   0.12978   0.07127   0.00000  Uiso   1.00
N89    N     0.55598   0.59601   0.83262   0.00000  Uiso   1.00
N90    N     0.29270   0.10381   0.69135   0.00000  Uiso   1.00
N91    N     0.42438   0.97977   0.03926   0.00000  Uiso   1.00
N92    N     0.60338   0.44601   0.80061   0.00000  Uiso   1.00
C93    C     0.88857   0.66024   0.62146   0.00000  Uiso   1.00
C94    C     0.86068   0.72057   0.67206   0.00000  Uiso   1.00
C95    C     0.81081   0.68776   0.69676   0.00000  Uiso   1.00
C96    C     0.79227   0.75422   0.74269   0.00000  Uiso   1.00
C97    C     0.74433   0.83337   0.81812   0.00000  Uiso   1.00
C98    C     0.89696   0.75477   0.57617   0.00000  Uiso   1.00
C99    C     0.87760   0.75069   0.52026   0.00000  Uiso   1.00
C100   C     0.88961   0.84595   0.48547   0.00000  Uiso   1.00
C101   C     0.89804   0.97814   0.41202   0.00000  Uiso   1.00
C102   C     0.94629   0.62627   0.64195   0.00000  Uiso   1.00
C103   C     0.96842   0.51416   0.64133   0.00000  Uiso   1.00
C104   C     0.02197   0.50123   0.66191   0.00000  Uiso   1.00
C105   C     0.10698   0.43391   0.69060   0.00000  Uiso   1.00
C106   C     0.94432   0.83664   0.65911   0.00000  Uiso   1.00
C107   C     0.89096   0.81639   0.69250   0.00000  Uiso   1.00
C108   C     0.87249   0.88293   0.73841   0.00000  Uiso   1.00
C109   C     0.82260   0.85021   0.76318   0.00000  Uiso   1.00
C110   C     0.92724   0.85059   0.59662   0.00000  Uiso   1.00
C111   C     0.93928   0.94586   0.56190   0.00000  Uiso   1.00
C112   C     0.91995   0.94193   0.50595   0.00000  Uiso   1.00
C113   C     0.97657   0.72209   0.66240   0.00000  Uiso   1.00
C114   C     0.03009   0.70933   0.68298   0.00000  Uiso   1.00
C115   C     0.05230   0.59722   0.68240   0.00000  Uiso   1.00
H116   H     0.86500   0.58565   0.60554   0.00000  Uiso   1.00
H117   H     0.78739   0.61361   0.68092   0.00000  Uiso   1.00
H118   H     0.85418   0.67653   0.50444   0.00000  Uiso   1.00
H119   H     0.94497   0.44003   0.62551   0.00000  Uiso   1.00
H120   H     0.71468   0.68688   0.77350   0.00000  Uiso   1.00
H121   H     0.85553   0.81954   0.40138   0.00000  Uiso   1.00
H122   H     0.04699   0.32084   0.65666   0.00000  Uiso   1.00
H123   H     0.96790   0.91124   0.67502   0.00000  Uiso   1.00
H124   H     0.89593   0.95707   0.75422   0.00000  Uiso   1.00
H125   H     0.96272   0.01999   0.57774   0.00000  Uiso   1.00
H126   H     0.05352   0.78350   0.69880   0.00000  Uiso   1.00
H127   H     0.80278   0.96565   0.83299   0.00000  Uiso   1.00
H128   H     0.94363   0.09831   0.46087   0.00000  Uiso   1.00
H129   H     0.13509   0.59961   0.71615   0.00000  Uiso   1.00
O130   O     0.70952   0.85056   0.85408   0.00000  Uiso   1.00
O131   O     0.89432   0.02459   0.36587   0.00000  Uiso   1.00
O132   O     0.14551   0.37031   0.70079   0.00000  Uiso   1.00
N133   N     0.74530   0.74619   0.77664   0.00000  Uiso   1.00
N134   N     0.87697   0.87022   0.42873   0.00000  Uiso   1.00
N135   N     0.05598   0.40399   0.66738   0.00000  Uiso   1.00
N136   N     0.79270   0.89619   0.80865   0.00000  Uiso   1.00
N137   N     0.92438   0.02023   0.46074   0.00000  Uiso   1.00
N138   N     0.10338   0.55399   0.69939   0.00000  Uiso   1.00
C139   C     0.61143   0.33976   0.62146   0.00000  Uiso   1.00
C140   C     0.63932   0.27943   0.67206   0.00000  Uiso   1.00
C141   C     0.68919   0.31224   0.69676   0.00000  Uiso   1.00
C142   C     0.70773   0.24578   0.74269   0.00000  Uiso   1.00
C143   C     0.75567   0.16663   0.81812   0.00000  Uiso   1.00
C144   C     0.60304   0.24523   0.57617   0.00000  Uiso   1.00
C145   C     0.62240   0.24931   0.52026   0.00000  Uiso   1.00
C146   C     0.61039   0.15405   0.48547   0.00000  Uiso   1.00
C147   C     0.60196   0.02186   0.41202   0.00000  Uiso   1.00
C148   C     0.55371   0.37373   0.64195   0.00000  Uiso   1.00
C149   C     0.53158   0.48584   0.64133   0.00000  Uiso   1.00
C150   C     0.47803   0.49877   0.66191   0.00000  Uiso   1.00
C151   C     0.39302   0.56609   0.69060   0.00000  Uiso   1.00
C152   C     0.55568   0.16336   0.65911   0.00000  Uiso   1.00
C153   C     0.60904   0.18361   0.69250   0.00000  Uiso   1.00
C154   C     0.62751   0.11707   0.73841   0.00000  Uiso   1.00
C155   C     0.67740   0.14979   0.76318   0.00000  Uiso   1.00
C156   C     0.57276   0.14941   0.59662   0.00000  Uiso   1.00
C157   C     0.56072   0.05414   0.56190   0.00000  Uiso   1.00
C158   C     0.58005   0.05807   0.50595   0.00000  Uiso   1.00
C159   C     0.52343   0.27791   0.66240   0.00000  Uiso   1.00
C160   C     0.46991   0.29067   0.68298   0.00000  Uiso   1.00
C161   C     0.44770   0.40278   0.68240   0.00000  Uiso   1.00
H162   H     0.63500   0.41435   0.60554   0.00000  Uiso   1.00
H163   H     0.71261   0.38639   0.68092   0.00000  Uiso   1.00
H164   H     0.64582   0.32347   0.50444   0.00000  Uiso   1.00
H165   H     0.55503   0.55997   0.62551   0.00000  Uiso   1.00
H166   H     0.78532   0.31312   0.77350   0.00000  Uiso   1.00
H167   H     0.64447   0.18046   0.40138   0.00000  Uiso   1.00
H168   H     0.45301   0.67916   0.65666   0.00000  Uiso   1.00
H169   H     0.53210   0.08876   0.67502   0.00000  Uiso   1.00
H170   H     0.60407   0.04293   0.75422   0.00000  Uiso   1.00
H171   H     0.53728   0.98001   0.57774   0.00000  Uiso   1.00
H172   H     0.44648   0.21650   0.69880   0.00000  Uiso   1.00
H173   H     0.69722   0.03435   0.83299   0.00000  Uiso   1.00
H174   H     0.55637   0.90169   0.46087   0.00000  Uiso   1.00
H175   H     0.36491   0.40039   0.71615   0.00000  Uiso   1.00
O176   O     0.79048   0.14944   0.85408   0.00000  Uiso   1.00
O177   O     0.60568   0.97541   0.36587   0.00000  Uiso   1.00
O178   O     0.35449   0.62969   0.70079   0.00000  Uiso   1.00
N179   N     0.75470   0.25381   0.77664   0.00000  Uiso   1.00
N180   N     0.62303   0.12978   0.42873   0.00000  Uiso   1.00
N181   N     0.44402   0.59601   0.66738   0.00000  Uiso   1.00
N182   N     0.70730   0.10381   0.80865   0.00000  Uiso   1.00
N183   N     0.57562   0.97977   0.46074   0.00000  Uiso   1.00
N184   N     0.39662   0.44601   0.69939   0.00000  Uiso   1.00
C185   C     0.88857   0.33976   0.12146   0.00000  Uiso   1.00
C186   C     0.86068   0.27943   0.17206   0.00000  Uiso   1.00
C187   C     0.81081   0.31224   0.19676   0.00000  Uiso   1.00
C188   C     0.79227   0.24578   0.24269   0.00000  Uiso   1.00
C189   C     0.74433   0.16663   0.31812   0.00000  Uiso   1.00
C190   C     0.89696   0.24523   0.07617   0.00000  Uiso   1.00
C191   C     0.87760   0.24931   0.02026   0.00000  Uiso   1.00
C192   C     0.88961   0.15405   0.98547   0.00000  Uiso   1.00
C193   C     0.89804   0.02186   0.91202   0.00000  Uiso   1.00
C194   C     0.94629   0.37373   0.14195   0.00000  Uiso   1.00
C195   C     0.96842   0.48584   0.14133   0.00000  Uiso   1.00
C196   C     0.02197   0.49877   0.16191   0.00000  Uiso   1.00
C197   C     0.10698   0.56609   0.19060   0.00000  Uiso   1.00
C198   C     0.94432   0.16336   0.15911   0.00000  Uiso   1.00
C199   C     0.89096   0.18361   0.19250   0.00000  Uiso   1.00
C200   C     0.87249   0.11707   0.23841   0.00000  Uiso   1.00
C201   C     0.82260   0.14979   0.26318   0.00000  Uiso   1.00
C202   C     0.92724   0.14941   0.09662   0.00000  Uiso   1.00
C203   C     0.93928   0.05414   0.06190   0.00000  Uiso   1.00
C204   C     0.91995   0.05807   0.00595   0.00000  Uiso   1.00
C205   C     0.97657   0.27791   0.16240   0.00000  Uiso   1.00
C206   C     0.03009   0.29067   0.18298   0.00000  Uiso   1.00
C207   C     0.05230   0.40278   0.18240   0.00000  Uiso   1.00
H208   H     0.86500   0.41435   0.10554   0.00000  Uiso   1.00
H209   H     0.78739   0.38639   0.18092   0.00000  Uiso   1.00
H210   H     0.85418   0.32347   0.00444   0.00000  Uiso   1.00
H211   H     0.94497   0.55997   0.12551   0.00000  Uiso   1.00
H212   H     0.71468   0.31312   0.27350   0.00000  Uiso   1.00
H213   H     0.85553   0.18046   0.90138   0.00000  Uiso   1.00
H214   H     0.04699   0.67916   0.15666   0.00000  Uiso   1.00
H215   H     0.96790   0.08876   0.17502   0.00000  Uiso   1.00
H216   H     0.89593   0.04293   0.25422   0.00000  Uiso   1.00
H217   H     0.96272   0.98001   0.07774   0.00000  Uiso   1.00
H218   H     0.05352   0.21650   0.19880   0.00000  Uiso   1.00
H219   H     0.80278   0.03435   0.33299   0.00000  Uiso   1.00
H220   H     0.94363   0.90169   0.96087   0.00000  Uiso   1.00
H221   H     0.13509   0.40039   0.21615   0.00000  Uiso   1.00
O222   O     0.70952   0.14944   0.35408   0.00000  Uiso   1.00
O223   O     0.89432   0.97541   0.86587   0.00000  Uiso   1.00
O224   O     0.14551   0.62969   0.20079   0.00000  Uiso   1.00
N225   N     0.74530   0.25381   0.27664   0.00000  Uiso   1.00
N226   N     0.87697   0.12978   0.92873   0.00000  Uiso   1.00
N227   N     0.05598   0.59601   0.16738   0.00000  Uiso   1.00
N228   N     0.79270   0.10381   0.30865   0.00000  Uiso   1.00
N229   N     0.92438   0.97977   0.96074   0.00000  Uiso   1.00
N230   N     0.10338   0.44601   0.19939   0.00000  Uiso   1.00
C231   C     0.61143   0.66024   0.12146   0.00000  Uiso   1.00
C232   C     0.63932   0.72057   0.17206   0.00000  Uiso   1.00
C233   C     0.68919   0.68776   0.19676   0.00000  Uiso   1.00
C234   C     0.70773   0.75422   0.24269   0.00000  Uiso   1.00
C235   C     0.75567   0.83337   0.31812   0.00000  Uiso   1.00
C236   C     0.60304   0.75477   0.07617   0.00000  Uiso   1.00
C237   C     0.62240   0.75069   0.02026   0.00000  Uiso   1.00
C238   C     0.61039   0.84595   0.98547   0.00000  Uiso   1.00
C239   C     0.60196   0.97814   0.91202   0.00000  Uiso   1.00
C240   C     0.55371   0.62627   0.14195   0.00000  Uiso   1.00
C241   C     0.53158   0.51416   0.14133   0.00000  Uiso   1.00
C242   C     0.47803   0.50123   0.16191   0.00000  Uiso   1.00
C243   C     0.39302   0.43391   0.19060   0.00000  Uiso   1.00
C244   C     0.55568   0.83664   0.15911   0.00000  Uiso   1.00
C245   C     0.60904   0.81639   0.19250   0.00000  Uiso   1.00
C246   C     0.62751   0.88293   0.23841   0.00000  Uiso   1.00
C247   C     0.67740   0.85021   0.26318   0.00000  Uiso   1.00
C248   C     0.57276   0.85059   0.09662   0.00000  Uiso   1.00
C249   C     0.56072   0.94586   0.06190   0.00000  Uiso   1.00
C250   C     0.58005   0.94193   0.00595   0.00000  Uiso   1.00
C251   C     0.52343   0.72209   0.16240   0.00000  Uiso   1.00
C252   C     0.46991   0.70933   0.18298   0.00000  Uiso   1.00
C253   C     0.44770   0.59722   0.18240   0.00000  Uiso   1.00
H254   H     0.63500   0.58565   0.10554   0.00000  Uiso   1.00
H255   H     0.71261   0.61361   0.18092   0.00000  Uiso   1.00
H256   H     0.64582   0.67653   0.00444   0.00000  Uiso   1.00
H257   H     0.55503   0.44003   0.12551   0.00000  Uiso   1.00
H258   H     0.78532   0.68688   0.27350   0.00000  Uiso   1.00
H259   H     0.64447   0.81954   0.90138   0.00000  Uiso   1.00
H260   H     0.45301   0.32084   0.15666   0.00000  Uiso   1.00
H261   H     0.53210   0.91124   0.17502   0.00000  Uiso   1.00
H262   H     0.60407   0.95707   0.25422   0.00000  Uiso   1.00
H263   H     0.53728   0.01999   0.07774   0.00000  Uiso   1.00
H264   H     0.44648   0.78350   0.19880   0.00000  Uiso   1.00
H265   H     0.69722   0.96565   0.33299   0.00000  Uiso   1.00
H266   H     0.55637   0.09831   0.96087   0.00000  Uiso   1.00
H267   H     0.36491   0.59961   0.21615   0.00000  Uiso   1.00
O268   O     0.79048   0.85056   0.35408   0.00000  Uiso   1.00
O269   O     0.60568   0.02459   0.86587   0.00000  Uiso   1.00
O270   O     0.35449   0.37031   0.20079   0.00000  Uiso   1.00
N271   N     0.75470   0.74619   0.27664   0.00000  Uiso   1.00
N272   N     0.62303   0.87022   0.92873   0.00000  Uiso   1.00
N273   N     0.44402   0.40399   0.16738   0.00000  Uiso   1.00
N274   N     0.70730   0.89619   0.30865   0.00000  Uiso   1.00
N275   N     0.57562   0.02023   0.96074   0.00000  Uiso   1.00
N276   N     0.39662   0.55399   0.19939   0.00000  Uiso   1.00
C277   C     0.11143   0.33976   0.37854   0.00000  Uiso   1.00
C278   C     0.13932   0.27943   0.32794   0.00000  Uiso   1.00
C279   C     0.18919   0.31224   0.30324   0.00000  Uiso   1.00
C280   C     0.20773   0.24578   0.25731   0.00000  Uiso   1.00
C281   C     0.25567   0.16663   0.18188   0.00000  Uiso   1.00
C282   C     0.10304   0.24523   0.42383   0.00000  Uiso   1.00
C283   C     0.12240   0.24931   0.47974   0.00000  Uiso   1.00
C284   C     0.11039   0.15405   0.51453   0.00000  Uiso   1.00
C285   C     0.10196   0.02186   0.58798   0.00000  Uiso   1.00
C286   C     0.05371   0.37373   0.35805   0.00000  Uiso   1.00
C287   C     0.03158   0.48584   0.35867   0.00000  Uiso   1.00
C288   C     0.97803   0.49877   0.33809   0.00000  Uiso   1.00
C289   C     0.89302   0.56609   0.30940   0.00000  Uiso   1.00
C290   C     0.05568   0.16336   0.34089   0.00000  Uiso   1.00
C291   C     0.10904   0.18361   0.30750   0.00000  Uiso   1.00
C292   C     0.12751   0.11707   0.26159   0.00000  Uiso   1.00
C293   C     0.17740   0.14979   0.23682   0.00000  Uiso   1.00
C294   C     0.07276   0.14941   0.40338   0.00000  Uiso   1.00
C295   C     0.06072   0.05414   0.43810   0.00000  Uiso   1.00
C296   C     0.08005   0.05807   0.49405   0.00000  Uiso   1.00
C297   C     0.02343   0.27791   0.33760   0.00000  Uiso   1.00
C298   C     0.96991   0.29067   0.31702   0.00000  Uiso   1.00
C299   C     0.94770   0.40278   0.31760   0.00000  Uiso   1.00
H300   H     0.13500   0.41435   0.39446   0.00000  Uiso   1.00
H301   H     0.21261   0.38639   0.31908   0.00000  Uiso   1.00
H302   H     0.14582   0.32347   0.49556   0.00000  Uiso   1.00
H303   H     0.05503   0.55997   0.37449   0.00000  Uiso   1.00
H304   H     0.28532   0.31312   0.22650   0.00000  Uiso   1.00
H305   H     0.14447   0.18046   0.59862   0.00000  Uiso   1.00
H306   H     0.95301   0.67916   0.34334   0.00000  Uiso   1.00
H307   H     0.03210   0.08876   0.32498   0.00000  Uiso   1.00
H308   H     0.10407   0.04293   0.24578   0.00000  Uiso   1.00
H309   H     0.03728   0.98001   0.42226   0.00000  Uiso   1.00
H310   H     0.94648   0.21650   0.30120   0.00000  Uiso   1.00
H311   H     0.19722   0.03435   0.16701   0.00000  Uiso   1.00
H312   H     0.05637   0.90169   0.53913   0.00000  Uiso   1.00
H313   H     0.86491   0.40039   0.28385   0.00000  Uiso   1.00
O314   O     0.29048   0.14944   0.14592   0.00000  Uiso   1.00
O315   O     0.10568   0.97541   0.63413   0.00000  Uiso   1.00
O316   O     0.85449   0.62969   0.29921   0.00000  Uiso   1.00
N317   N     0.25470   0.25381   0.22336   0.00000  Uiso   1.00
N318   N     0.12303   0.12978   0.57127   0.00000  Uiso   1.00
N319   N     0.94402   0.59601   0.33262   0.00000  Uiso   1.00
N320   N     0.20730   0.10381   0.19135   0.00000  Uiso   1.00
N321   N     0.07562   0.97977   0.53926   0.00000  Uiso   1.00
N322   N     0.89662   0.44601   0.30061   0.00000  Uiso   1.00
C323   C     0.38857   0.66024   0.37854   0.00000  Uiso   1.00
C324   C     0.36068   0.72057   0.32794   0.00000  Uiso   1.00
C325   C     0.31081   0.68776   0.30324   0.00000  Uiso   1.00
C326   C     0.29227   0.75422   0.25731   0.00000  Uiso   1.00
C327   C     0.24433   0.83337   0.18188   0.00000  Uiso   1.00
C328   C     0.39696   0.75477   0.42383   0.00000  Uiso   1.00
C329   C     0.37760   0.75069   0.47974   0.00000  Uiso   1.00
C330   C     0.38961   0.84595   0.51453   0.00000  Uiso   1.00
C331   C     0.39804   0.97814   0.58798   0.00000  Uiso   1.00
C332   C     0.44629   0.62627   0.35805   0.00000  Uiso   1.00
C333   C     0.46842   0.51416   0.35867   0.00000  Uiso   1.00
C334   C     0.52197   0.50123   0.33809   0.00000  Uiso   1.00
C335   C     0.60698   0.43391   0.30940   0.00000  Uiso   1.00
C336   C     0.44432   0.83664   0.34089   0.00000  Uiso   1.00
C337   C     0.39096   0.81639   0.30750   0.00000  Uiso   1.00
C338   C     0.37249   0.88293   0.26159   0.00000  Uiso   1.00
C339   C     0.32260   0.85021   0.23682   0.00000  Uiso   1.00
C340   C     0.42724   0.85059   0.40338   0.00000  Uiso   1.00
C341   C     0.43928   0.94586   0.43810   0.00000  Uiso   1.00
C342   C     0.41995   0.94193   0.49405   0.00000  Uiso   1.00
C343   C     0.47657   0.72209   0.33760   0.00000  Uiso   1.00
C344   C     0.53009   0.70933   0.31702   0.00000  Uiso   1.00
C345   C     0.55230   0.59722   0.31760   0.00000  Uiso   1.00
H346   H     0.36500   0.58565   0.39446   0.00000  Uiso   1.00
H347   H     0.28739   0.61361   0.31908   0.00000  Uiso   1.00
H348   H     0.35418   0.67653   0.49556   0.00000  Uiso   1.00
H349   H     0.44497   0.44003   0.37449   0.00000  Uiso   1.00
H350   H     0.21468   0.68688   0.22650   0.00000  Uiso   1.00
H351   H     0.35553   0.81954   0.59862   0.00000  Uiso   1.00
H352   H     0.54699   0.32084   0.34334   0.00000  Uiso   1.00
H353   H     0.46790   0.91124   0.32498   0.00000  Uiso   1.00
H354   H     0.39593   0.95707   0.24578   0.00000  Uiso   1.00
H355   H     0.46272   0.01999   0.42226   0.00000  Uiso   1.00
H356   H     0.55352   0.78350   0.30120   0.00000  Uiso   1.00
H357   H     0.30278   0.96565   0.16701   0.00000  Uiso   1.00
H358   H     0.44363   0.09831   0.53913   0.00000  Uiso   1.00
H359   H     0.63509   0.59961   0.28385   0.00000  Uiso   1.00
O360   O     0.20952   0.85056   0.14592   0.00000  Uiso   1.00
O361   O     0.39432   0.02459   0.63413   0.00000  Uiso   1.00
O362   O     0.64551   0.37031   0.29921   0.00000  Uiso   1.00
N363   N     0.24530   0.74619   0.22336   0.00000  Uiso   1.00
N364   N     0.37697   0.87022   0.57127   0.00000  Uiso   1.00
N365   N     0.55598   0.40399   0.33262   0.00000  Uiso   1.00
N366   N     0.29270   0.89619   0.19135   0.00000  Uiso   1.00
N367   N     0.42438   0.02023   0.53926   0.00000  Uiso   1.00
N368   N     0.60338   0.55399   0.30061   0.00000  Uiso   1.00
