data_job_01630
_audit_creation_date              2018-12-19
_audit_creation_method            'Materials Studio'
_symmetry_space_group_name_H-M    'P1'
_symmetry_Int_Tables_number       1
_symmetry_cell_setting            triclinic
loop_
_symmetry_equiv_pos_as_xyz
  x,y,z
_cell_length_a                    41.6598
_cell_length_b                    33.0801
_cell_length_c                    7.2568
_cell_angle_alpha                 90.0000
_cell_angle_beta                  90.0000
_cell_angle_gamma                 90.0000
loop_
_atom_site_label
_atom_site_type_symbol
_atom_site_fract_x
_atom_site_fract_y
_atom_site_fract_z
_atom_site_U_iso_or_equiv
_atom_site_adp_type
_atom_site_occupancy
C1     C     0.09470   0.55249   0.42786   0.00000  Uiso   1.00
C2     C     0.07074   0.52254   0.34662   0.00000  Uiso   1.00
C3     C     0.05060   0.49733   0.44659   0.00000  Uiso   1.00
C4     C     0.03043   0.47211   0.34664   0.00000  Uiso   1.00
C5     C     0.99324   0.42559   0.24984   0.00000  Uiso   1.00
C6     C     0.12728   0.54134   0.34669   0.00000  Uiso   1.00
C7     C     0.15468   0.53196   0.44674   0.00000  Uiso   1.00
C8     C     0.18211   0.52258   0.34684   0.00000  Uiso   1.00
C9     C     0.23271   0.50528   0.25016   0.00000  Uiso   1.00
C10    C     0.08608   0.59361   0.34681   0.00000  Uiso   1.00
C11    C     0.07884   0.62817   0.44695   0.00000  Uiso   1.00
C12    C     0.07159   0.66280   0.34715   0.00000  Uiso   1.00
C13    C     0.05822   0.72665   0.25065   0.00000  Uiso   1.00
C14    C     0.09471   0.55253   0.07257   0.00000  Uiso   1.00
C15    C     0.07075   0.52256   0.15363   0.00000  Uiso   1.00
C16    C     0.05060   0.49738   0.05350   0.00000  Uiso   1.00
C17    C     0.03043   0.47214   0.15332   0.00000  Uiso   1.00
C18    C     0.12729   0.54137   0.15372   0.00000  Uiso   1.00
C19    C     0.15468   0.53200   0.05365   0.00000  Uiso   1.00
C20    C     0.18211   0.52260   0.15351   0.00000  Uiso   1.00
C21    C     0.08608   0.59363   0.15383   0.00000  Uiso   1.00
C22    C     0.07885   0.62822   0.05386   0.00000  Uiso   1.00
C23    C     0.07160   0.66282   0.15382   0.00000  Uiso   1.00
H24    H     0.09470   0.55247   0.57811   0.00000  Uiso   1.00
H25    H     0.05060   0.49732   0.59594   0.00000  Uiso   1.00
H26    H     0.15467   0.53194   0.59607   0.00000  Uiso   1.00
H27    H     0.07884   0.62814   0.59628   0.00000  Uiso   1.00
H28    H     0.00173   0.43617   0.53060   0.00000  Uiso   1.00
H29    H     0.22115   0.50920   0.53090   0.00000  Uiso   1.00
H30    H     0.06127   0.71204   0.53134   0.00000  Uiso   1.00
H31    H     0.09471   0.55255   0.92232   0.00000  Uiso   1.00
H32    H     0.05061   0.49740   0.90417   0.00000  Uiso   1.00
H33    H     0.15468   0.53203   0.90431   0.00000  Uiso   1.00
H34    H     0.07885   0.62822   0.90452   0.00000  Uiso   1.00
H35    H     0.00173   0.43624   0.96914   0.00000  Uiso   1.00
H36    H     0.22116   0.50927   0.96943   0.00000  Uiso   1.00
H37    H     0.06127   0.71211   0.96987   0.00000  Uiso   1.00
O38    O     0.97273   0.39992   0.24976   0.00000  Uiso   1.00
O39    O     0.26061   0.49573   0.25015   0.00000  Uiso   1.00
O40    O     0.05084   0.76186   0.25073   0.00000  Uiso   1.00
N41    N     0.00777   0.44376   0.40095   0.00000  Uiso   1.00
N42    N     0.21293   0.51203   0.40123   0.00000  Uiso   1.00
N43    N     0.06345   0.70168   0.40164   0.00000  Uiso   1.00
N44    N     0.00778   0.44380   0.09883   0.00000  Uiso   1.00
N45    N     0.21293   0.51207   0.09911   0.00000  Uiso   1.00
N46    N     0.06346   0.70171   0.09952   0.00000  Uiso   1.00
C47    C     0.40530   0.44751   0.92786   0.00000  Uiso   1.00
C48    C     0.42926   0.47746   0.84662   0.00000  Uiso   1.00
C49    C     0.44940   0.50267   0.94659   0.00000  Uiso   1.00
C50    C     0.46957   0.52789   0.84664   0.00000  Uiso   1.00
C51    C     0.50676   0.57441   0.74984   0.00000  Uiso   1.00
C52    C     0.37272   0.45866   0.84669   0.00000  Uiso   1.00
C53    C     0.34532   0.46804   0.94674   0.00000  Uiso   1.00
C54    C     0.31789   0.47742   0.84684   0.00000  Uiso   1.00
C55    C     0.26729   0.49472   0.75016   0.00000  Uiso   1.00
C56    C     0.41392   0.40639   0.84681   0.00000  Uiso   1.00
C57    C     0.42116   0.37183   0.94695   0.00000  Uiso   1.00
C58    C     0.42841   0.33720   0.84715   0.00000  Uiso   1.00
C59    C     0.44178   0.27335   0.75065   0.00000  Uiso   1.00
C60    C     0.40529   0.44747   0.57257   0.00000  Uiso   1.00
C61    C     0.42925   0.47744   0.65363   0.00000  Uiso   1.00
C62    C     0.44940   0.50262   0.55350   0.00000  Uiso   1.00
C63    C     0.46957   0.52786   0.65332   0.00000  Uiso   1.00
C64    C     0.37271   0.45863   0.65372   0.00000  Uiso   1.00
C65    C     0.34532   0.46800   0.55365   0.00000  Uiso   1.00
C66    C     0.31789   0.47740   0.65351   0.00000  Uiso   1.00
C67    C     0.41392   0.40637   0.65383   0.00000  Uiso   1.00
C68    C     0.42115   0.37178   0.55386   0.00000  Uiso   1.00
C69    C     0.42840   0.33718   0.65382   0.00000  Uiso   1.00
H70    H     0.40530   0.44753   0.07811   0.00000  Uiso   1.00
H71    H     0.44940   0.50268   0.09594   0.00000  Uiso   1.00
H72    H     0.34533   0.46806   0.09607   0.00000  Uiso   1.00
H73    H     0.42116   0.37186   0.09628   0.00000  Uiso   1.00
H74    H     0.49827   0.56383   0.03060   0.00000  Uiso   1.00
H75    H     0.27885   0.49080   0.03090   0.00000  Uiso   1.00
H76    H     0.43873   0.28796   0.03134   0.00000  Uiso   1.00
H77    H     0.40529   0.44745   0.42232   0.00000  Uiso   1.00
H78    H     0.44939   0.50260   0.40417   0.00000  Uiso   1.00
H79    H     0.34532   0.46797   0.40431   0.00000  Uiso   1.00
H80    H     0.42115   0.37178   0.40452   0.00000  Uiso   1.00
H81    H     0.49827   0.56376   0.46914   0.00000  Uiso   1.00
H82    H     0.27884   0.49073   0.46943   0.00000  Uiso   1.00
H83    H     0.43873   0.28789   0.46987   0.00000  Uiso   1.00
O84    O     0.52727   0.60008   0.74976   0.00000  Uiso   1.00
O85    O     0.23939   0.50427   0.75015   0.00000  Uiso   1.00
O86    O     0.44916   0.23814   0.75073   0.00000  Uiso   1.00
N87    N     0.49223   0.55624   0.90095   0.00000  Uiso   1.00
N88    N     0.28707   0.48797   0.90123   0.00000  Uiso   1.00
N89    N     0.43655   0.29832   0.90164   0.00000  Uiso   1.00
N90    N     0.49222   0.55620   0.59883   0.00000  Uiso   1.00
N91    N     0.28707   0.48793   0.59911   0.00000  Uiso   1.00
N92    N     0.43654   0.29829   0.59952   0.00000  Uiso   1.00
C93    C     0.90530   0.05249   0.07214   0.00000  Uiso   1.00
C94    C     0.92926   0.02254   0.15338   0.00000  Uiso   1.00
C95    C     0.94940   0.99733   0.05341   0.00000  Uiso   1.00
C96    C     0.96957   0.97211   0.15336   0.00000  Uiso   1.00
C97    C     0.00676   0.92559   0.25016   0.00000  Uiso   1.00
C98    C     0.87272   0.04134   0.15331   0.00000  Uiso   1.00
C99    C     0.84532   0.03196   0.05326   0.00000  Uiso   1.00
C100   C     0.81789   0.02258   0.15316   0.00000  Uiso   1.00
C101   C     0.76729   0.00528   0.24984   0.00000  Uiso   1.00
C102   C     0.91392   0.09361   0.15319   0.00000  Uiso   1.00
C103   C     0.92116   0.12817   0.05305   0.00000  Uiso   1.00
C104   C     0.92841   0.16280   0.15285   0.00000  Uiso   1.00
C105   C     0.94178   0.22665   0.24935   0.00000  Uiso   1.00
C106   C     0.90529   0.05253   0.42743   0.00000  Uiso   1.00
C107   C     0.92925   0.02256   0.34637   0.00000  Uiso   1.00
C108   C     0.94940   0.99738   0.44650   0.00000  Uiso   1.00
C109   C     0.96957   0.97214   0.34668   0.00000  Uiso   1.00
C110   C     0.87271   0.04137   0.34628   0.00000  Uiso   1.00
C111   C     0.84532   0.03200   0.44635   0.00000  Uiso   1.00
C112   C     0.81789   0.02260   0.34649   0.00000  Uiso   1.00
C113   C     0.91392   0.09363   0.34617   0.00000  Uiso   1.00
C114   C     0.92115   0.12822   0.44614   0.00000  Uiso   1.00
C115   C     0.92840   0.16282   0.34618   0.00000  Uiso   1.00
H116   H     0.90530   0.05247   0.92189   0.00000  Uiso   1.00
H117   H     0.94940   0.99732   0.90406   0.00000  Uiso   1.00
H118   H     0.84533   0.03194   0.90393   0.00000  Uiso   1.00
H119   H     0.92116   0.12814   0.90372   0.00000  Uiso   1.00
H120   H     0.99827   0.93617   0.96940   0.00000  Uiso   1.00
H121   H     0.77885   0.00920   0.96910   0.00000  Uiso   1.00
H122   H     0.93873   0.21204   0.96866   0.00000  Uiso   1.00
H123   H     0.90529   0.05255   0.57768   0.00000  Uiso   1.00
H124   H     0.94939   0.99740   0.59583   0.00000  Uiso   1.00
H125   H     0.84532   0.03203   0.59569   0.00000  Uiso   1.00
H126   H     0.92115   0.12822   0.59548   0.00000  Uiso   1.00
H127   H     0.99827   0.93624   0.53086   0.00000  Uiso   1.00
H128   H     0.77884   0.00927   0.53057   0.00000  Uiso   1.00
H129   H     0.93873   0.21211   0.53013   0.00000  Uiso   1.00
O130   O     0.02727   0.89992   0.25024   0.00000  Uiso   1.00
O131   O     0.73939   0.99573   0.24985   0.00000  Uiso   1.00
O132   O     0.94916   0.26186   0.24927   0.00000  Uiso   1.00
N133   N     0.99223   0.94376   0.09905   0.00000  Uiso   1.00
N134   N     0.78707   0.01203   0.09877   0.00000  Uiso   1.00
N135   N     0.93655   0.20168   0.09836   0.00000  Uiso   1.00
N136   N     0.99222   0.94380   0.40117   0.00000  Uiso   1.00
N137   N     0.78707   0.01207   0.40089   0.00000  Uiso   1.00
N138   N     0.93654   0.20171   0.40048   0.00000  Uiso   1.00
C139   C     0.59470   0.94751   0.57214   0.00000  Uiso   1.00
C140   C     0.57074   0.97746   0.65338   0.00000  Uiso   1.00
C141   C     0.55060   0.00267   0.55341   0.00000  Uiso   1.00
C142   C     0.53043   0.02789   0.65336   0.00000  Uiso   1.00
C143   C     0.49324   0.07441   0.75016   0.00000  Uiso   1.00
C144   C     0.62728   0.95866   0.65331   0.00000  Uiso   1.00
C145   C     0.65468   0.96804   0.55326   0.00000  Uiso   1.00
C146   C     0.68211   0.97742   0.65316   0.00000  Uiso   1.00
C147   C     0.73271   0.99472   0.74984   0.00000  Uiso   1.00
C148   C     0.58608   0.90639   0.65319   0.00000  Uiso   1.00
C149   C     0.57884   0.87183   0.55305   0.00000  Uiso   1.00
C150   C     0.57159   0.83720   0.65285   0.00000  Uiso   1.00
C151   C     0.55822   0.77335   0.74935   0.00000  Uiso   1.00
C152   C     0.59471   0.94747   0.92743   0.00000  Uiso   1.00
C153   C     0.57075   0.97744   0.84637   0.00000  Uiso   1.00
C154   C     0.55060   0.00262   0.94650   0.00000  Uiso   1.00
C155   C     0.53043   0.02786   0.84668   0.00000  Uiso   1.00
C156   C     0.62729   0.95863   0.84628   0.00000  Uiso   1.00
C157   C     0.65468   0.96800   0.94635   0.00000  Uiso   1.00
C158   C     0.68211   0.97740   0.84649   0.00000  Uiso   1.00
C159   C     0.58608   0.90637   0.84617   0.00000  Uiso   1.00
C160   C     0.57885   0.87178   0.94614   0.00000  Uiso   1.00
C161   C     0.57160   0.83718   0.84618   0.00000  Uiso   1.00
H162   H     0.59470   0.94753   0.42189   0.00000  Uiso   1.00
H163   H     0.55060   0.00268   0.40406   0.00000  Uiso   1.00
H164   H     0.65467   0.96806   0.40393   0.00000  Uiso   1.00
H165   H     0.57884   0.87186   0.40372   0.00000  Uiso   1.00
H166   H     0.50173   0.06383   0.46940   0.00000  Uiso   1.00
H167   H     0.72115   0.99080   0.46910   0.00000  Uiso   1.00
H168   H     0.56127   0.78796   0.46866   0.00000  Uiso   1.00
H169   H     0.59471   0.94745   0.07768   0.00000  Uiso   1.00
H170   H     0.55061   0.00260   0.09583   0.00000  Uiso   1.00
H171   H     0.65468   0.96797   0.09569   0.00000  Uiso   1.00
H172   H     0.57885   0.87178   0.09548   0.00000  Uiso   1.00
H173   H     0.50173   0.06376   0.03086   0.00000  Uiso   1.00
H174   H     0.72116   0.99073   0.03057   0.00000  Uiso   1.00
H175   H     0.56127   0.78789   0.03013   0.00000  Uiso   1.00
O176   O     0.47273   0.10008   0.75024   0.00000  Uiso   1.00
O177   O     0.76061   0.00427   0.74985   0.00000  Uiso   1.00
O178   O     0.55084   0.73814   0.74927   0.00000  Uiso   1.00
N179   N     0.50777   0.05624   0.59905   0.00000  Uiso   1.00
N180   N     0.71293   0.98797   0.59877   0.00000  Uiso   1.00
N181   N     0.56345   0.79832   0.59836   0.00000  Uiso   1.00
N182   N     0.50778   0.05620   0.90117   0.00000  Uiso   1.00
N183   N     0.71293   0.98793   0.90089   0.00000  Uiso   1.00
N184   N     0.56346   0.79829   0.90048   0.00000  Uiso   1.00
C185   C     0.90530   0.44751   0.57214   0.00000  Uiso   1.00
C186   C     0.92926   0.47746   0.65338   0.00000  Uiso   1.00
C187   C     0.94940   0.50267   0.55341   0.00000  Uiso   1.00
C188   C     0.96957   0.52789   0.65336   0.00000  Uiso   1.00
C189   C     0.00676   0.57441   0.75016   0.00000  Uiso   1.00
C190   C     0.87272   0.45866   0.65331   0.00000  Uiso   1.00
C191   C     0.84532   0.46804   0.55326   0.00000  Uiso   1.00
C192   C     0.81789   0.47742   0.65316   0.00000  Uiso   1.00
C193   C     0.76729   0.49472   0.74984   0.00000  Uiso   1.00
C194   C     0.91392   0.40639   0.65319   0.00000  Uiso   1.00
C195   C     0.92116   0.37183   0.55305   0.00000  Uiso   1.00
C196   C     0.92841   0.33720   0.65285   0.00000  Uiso   1.00
C197   C     0.94178   0.27335   0.74935   0.00000  Uiso   1.00
C198   C     0.90529   0.44747   0.92743   0.00000  Uiso   1.00
C199   C     0.92925   0.47744   0.84637   0.00000  Uiso   1.00
C200   C     0.94940   0.50262   0.94650   0.00000  Uiso   1.00
C201   C     0.96957   0.52786   0.84668   0.00000  Uiso   1.00
C202   C     0.87271   0.45863   0.84628   0.00000  Uiso   1.00
C203   C     0.84532   0.46800   0.94635   0.00000  Uiso   1.00
C204   C     0.81789   0.47740   0.84649   0.00000  Uiso   1.00
C205   C     0.91392   0.40637   0.84617   0.00000  Uiso   1.00
C206   C     0.92115   0.37178   0.94614   0.00000  Uiso   1.00
C207   C     0.92840   0.33718   0.84618   0.00000  Uiso   1.00
H208   H     0.90530   0.44753   0.42189   0.00000  Uiso   1.00
H209   H     0.94940   0.50268   0.40406   0.00000  Uiso   1.00
H210   H     0.84533   0.46806   0.40393   0.00000  Uiso   1.00
H211   H     0.92116   0.37186   0.40372   0.00000  Uiso   1.00
H212   H     0.99827   0.56383   0.46940   0.00000  Uiso   1.00
H213   H     0.77885   0.49080   0.46910   0.00000  Uiso   1.00
H214   H     0.93873   0.28796   0.46866   0.00000  Uiso   1.00
H215   H     0.90529   0.44745   0.07768   0.00000  Uiso   1.00
H216   H     0.94939   0.50260   0.09583   0.00000  Uiso   1.00
H217   H     0.84532   0.46797   0.09569   0.00000  Uiso   1.00
H218   H     0.92115   0.37178   0.09548   0.00000  Uiso   1.00
H219   H     0.99827   0.56376   0.03086   0.00000  Uiso   1.00
H220   H     0.77884   0.49073   0.03057   0.00000  Uiso   1.00
H221   H     0.93873   0.28789   0.03013   0.00000  Uiso   1.00
O222   O     0.02727   0.60008   0.75024   0.00000  Uiso   1.00
O223   O     0.73939   0.50427   0.74985   0.00000  Uiso   1.00
O224   O     0.94916   0.23814   0.74927   0.00000  Uiso   1.00
N225   N     0.99223   0.55624   0.59905   0.00000  Uiso   1.00
N226   N     0.78707   0.48797   0.59877   0.00000  Uiso   1.00
N227   N     0.93655   0.29832   0.59836   0.00000  Uiso   1.00
N228   N     0.99222   0.55620   0.90117   0.00000  Uiso   1.00
N229   N     0.78707   0.48793   0.90089   0.00000  Uiso   1.00
N230   N     0.93654   0.29829   0.90048   0.00000  Uiso   1.00
C231   C     0.59470   0.55249   0.07214   0.00000  Uiso   1.00
C232   C     0.57074   0.52254   0.15338   0.00000  Uiso   1.00
C233   C     0.55060   0.49733   0.05341   0.00000  Uiso   1.00
C234   C     0.53043   0.47211   0.15336   0.00000  Uiso   1.00
C235   C     0.49324   0.42559   0.25016   0.00000  Uiso   1.00
C236   C     0.62728   0.54134   0.15331   0.00000  Uiso   1.00
C237   C     0.65468   0.53196   0.05326   0.00000  Uiso   1.00
C238   C     0.68211   0.52258   0.15316   0.00000  Uiso   1.00
C239   C     0.73271   0.50528   0.24984   0.00000  Uiso   1.00
C240   C     0.58608   0.59361   0.15319   0.00000  Uiso   1.00
C241   C     0.57884   0.62817   0.05305   0.00000  Uiso   1.00
C242   C     0.57159   0.66280   0.15285   0.00000  Uiso   1.00
C243   C     0.55822   0.72665   0.24935   0.00000  Uiso   1.00
C244   C     0.59471   0.55253   0.42743   0.00000  Uiso   1.00
C245   C     0.57075   0.52256   0.34637   0.00000  Uiso   1.00
C246   C     0.55060   0.49738   0.44650   0.00000  Uiso   1.00
C247   C     0.53043   0.47214   0.34668   0.00000  Uiso   1.00
C248   C     0.62729   0.54137   0.34628   0.00000  Uiso   1.00
C249   C     0.65468   0.53200   0.44635   0.00000  Uiso   1.00
C250   C     0.68211   0.52260   0.34649   0.00000  Uiso   1.00
C251   C     0.58608   0.59363   0.34617   0.00000  Uiso   1.00
C252   C     0.57885   0.62822   0.44614   0.00000  Uiso   1.00
C253   C     0.57160   0.66282   0.34618   0.00000  Uiso   1.00
H254   H     0.59470   0.55247   0.92189   0.00000  Uiso   1.00
H255   H     0.55060   0.49732   0.90406   0.00000  Uiso   1.00
H256   H     0.65467   0.53194   0.90393   0.00000  Uiso   1.00
H257   H     0.57884   0.62814   0.90372   0.00000  Uiso   1.00
H258   H     0.50173   0.43617   0.96940   0.00000  Uiso   1.00
H259   H     0.72115   0.50920   0.96910   0.00000  Uiso   1.00
H260   H     0.56127   0.71204   0.96866   0.00000  Uiso   1.00
H261   H     0.59471   0.55255   0.57768   0.00000  Uiso   1.00
H262   H     0.55061   0.49740   0.59583   0.00000  Uiso   1.00
H263   H     0.65468   0.53203   0.59569   0.00000  Uiso   1.00
H264   H     0.57885   0.62822   0.59548   0.00000  Uiso   1.00
H265   H     0.50173   0.43624   0.53086   0.00000  Uiso   1.00
H266   H     0.72116   0.50927   0.53057   0.00000  Uiso   1.00
H267   H     0.56127   0.71211   0.53013   0.00000  Uiso   1.00
O268   O     0.47273   0.39992   0.25024   0.00000  Uiso   1.00
O269   O     0.76061   0.49573   0.24985   0.00000  Uiso   1.00
O270   O     0.55084   0.76186   0.24927   0.00000  Uiso   1.00
N271   N     0.50777   0.44376   0.09905   0.00000  Uiso   1.00
N272   N     0.71293   0.51203   0.09877   0.00000  Uiso   1.00
N273   N     0.56345   0.70168   0.09836   0.00000  Uiso   1.00
N274   N     0.50778   0.44380   0.40117   0.00000  Uiso   1.00
N275   N     0.71293   0.51207   0.40089   0.00000  Uiso   1.00
N276   N     0.56346   0.70171   0.40048   0.00000  Uiso   1.00
C277   C     0.09470   0.94751   0.92786   0.00000  Uiso   1.00
C278   C     0.07074   0.97746   0.84662   0.00000  Uiso   1.00
C279   C     0.05060   0.00267   0.94659   0.00000  Uiso   1.00
C280   C     0.03043   0.02789   0.84664   0.00000  Uiso   1.00
C281   C     0.99324   0.07441   0.74984   0.00000  Uiso   1.00
C282   C     0.12728   0.95866   0.84669   0.00000  Uiso   1.00
C283   C     0.15468   0.96804   0.94674   0.00000  Uiso   1.00
C284   C     0.18211   0.97742   0.84684   0.00000  Uiso   1.00
C285   C     0.23271   0.99472   0.75016   0.00000  Uiso   1.00
C286   C     0.08608   0.90639   0.84681   0.00000  Uiso   1.00
C287   C     0.07884   0.87183   0.94695   0.00000  Uiso   1.00
C288   C     0.07159   0.83720   0.84715   0.00000  Uiso   1.00
C289   C     0.05822   0.77335   0.75065   0.00000  Uiso   1.00
C290   C     0.09471   0.94747   0.57257   0.00000  Uiso   1.00
C291   C     0.07075   0.97744   0.65363   0.00000  Uiso   1.00
C292   C     0.05060   0.00262   0.55350   0.00000  Uiso   1.00
C293   C     0.03043   0.02786   0.65332   0.00000  Uiso   1.00
C294   C     0.12729   0.95863   0.65372   0.00000  Uiso   1.00
C295   C     0.15468   0.96800   0.55365   0.00000  Uiso   1.00
C296   C     0.18211   0.97740   0.65351   0.00000  Uiso   1.00
C297   C     0.08608   0.90637   0.65383   0.00000  Uiso   1.00
C298   C     0.07885   0.87178   0.55386   0.00000  Uiso   1.00
C299   C     0.07160   0.83718   0.65382   0.00000  Uiso   1.00
H300   H     0.09470   0.94753   0.07811   0.00000  Uiso   1.00
H301   H     0.05060   0.00268   0.09594   0.00000  Uiso   1.00
H302   H     0.15467   0.96806   0.09607   0.00000  Uiso   1.00
H303   H     0.07884   0.87186   0.09628   0.00000  Uiso   1.00
H304   H     0.00173   0.06383   0.03060   0.00000  Uiso   1.00
H305   H     0.22115   0.99080   0.03090   0.00000  Uiso   1.00
H306   H     0.06127   0.78796   0.03134   0.00000  Uiso   1.00
H307   H     0.09471   0.94745   0.42232   0.00000  Uiso   1.00
H308   H     0.05061   0.00260   0.40417   0.00000  Uiso   1.00
H309   H     0.15468   0.96797   0.40431   0.00000  Uiso   1.00
H310   H     0.07885   0.87178   0.40452   0.00000  Uiso   1.00
H311   H     0.00173   0.06376   0.46914   0.00000  Uiso   1.00
H312   H     0.22116   0.99073   0.46943   0.00000  Uiso   1.00
H313   H     0.06127   0.78789   0.46987   0.00000  Uiso   1.00
O314   O     0.97273   0.10008   0.74976   0.00000  Uiso   1.00
O315   O     0.26061   0.00427   0.75015   0.00000  Uiso   1.00
O316   O     0.05084   0.73814   0.75073   0.00000  Uiso   1.00
N317   N     0.00777   0.05624   0.90095   0.00000  Uiso   1.00
N318   N     0.21293   0.98797   0.90123   0.00000  Uiso   1.00
N319   N     0.06345   0.79832   0.90164   0.00000  Uiso   1.00
N320   N     0.00778   0.05620   0.59883   0.00000  Uiso   1.00
N321   N     0.21293   0.98793   0.59911   0.00000  Uiso   1.00
N322   N     0.06346   0.79829   0.59952   0.00000  Uiso   1.00
C323   C     0.40530   0.05249   0.42786   0.00000  Uiso   1.00
C324   C     0.42926   0.02254   0.34662   0.00000  Uiso   1.00
C325   C     0.44940   0.99733   0.44659   0.00000  Uiso   1.00
C326   C     0.46957   0.97211   0.34664   0.00000  Uiso   1.00
C327   C     0.50676   0.92559   0.24984   0.00000  Uiso   1.00
C328   C     0.37272   0.04134   0.34669   0.00000  Uiso   1.00
C329   C     0.34532   0.03196   0.44674   0.00000  Uiso   1.00
C330   C     0.31789   0.02258   0.34684   0.00000  Uiso   1.00
C331   C     0.26729   0.00528   0.25016   0.00000  Uiso   1.00
C332   C     0.41392   0.09361   0.34681   0.00000  Uiso   1.00
C333   C     0.42116   0.12817   0.44695   0.00000  Uiso   1.00
C334   C     0.42841   0.16280   0.34715   0.00000  Uiso   1.00
C335   C     0.44178   0.22665   0.25065   0.00000  Uiso   1.00
C336   C     0.40529   0.05253   0.07257   0.00000  Uiso   1.00
C337   C     0.42925   0.02256   0.15363   0.00000  Uiso   1.00
C338   C     0.44940   0.99738   0.05350   0.00000  Uiso   1.00
C339   C     0.46957   0.97214   0.15332   0.00000  Uiso   1.00
C340   C     0.37271   0.04137   0.15372   0.00000  Uiso   1.00
C341   C     0.34532   0.03200   0.05365   0.00000  Uiso   1.00
C342   C     0.31789   0.02260   0.15351   0.00000  Uiso   1.00
C343   C     0.41392   0.09363   0.15383   0.00000  Uiso   1.00
C344   C     0.42115   0.12822   0.05386   0.00000  Uiso   1.00
C345   C     0.42840   0.16282   0.15382   0.00000  Uiso   1.00
H346   H     0.40530   0.05247   0.57811   0.00000  Uiso   1.00
H347   H     0.44940   0.99732   0.59594   0.00000  Uiso   1.00
H348   H     0.34533   0.03194   0.59607   0.00000  Uiso   1.00
H349   H     0.42116   0.12814   0.59628   0.00000  Uiso   1.00
H350   H     0.49827   0.93617   0.53060   0.00000  Uiso   1.00
H351   H     0.27885   0.00920   0.53090   0.00000  Uiso   1.00
H352   H     0.43873   0.21204   0.53134   0.00000  Uiso   1.00
H353   H     0.40529   0.05255   0.92232   0.00000  Uiso   1.00
H354   H     0.44939   0.99740   0.90417   0.00000  Uiso   1.00
H355   H     0.34532   0.03203   0.90431   0.00000  Uiso   1.00
H356   H     0.42115   0.12822   0.90452   0.00000  Uiso   1.00
H357   H     0.49827   0.93624   0.96914   0.00000  Uiso   1.00
H358   H     0.27884   0.00927   0.96943   0.00000  Uiso   1.00
H359   H     0.43873   0.21211   0.96987   0.00000  Uiso   1.00
O360   O     0.52727   0.89992   0.24976   0.00000  Uiso   1.00
O361   O     0.23939   0.99573   0.25015   0.00000  Uiso   1.00
O362   O     0.44916   0.26186   0.25073   0.00000  Uiso   1.00
N363   N     0.49223   0.94376   0.40095   0.00000  Uiso   1.00
N364   N     0.28707   0.01203   0.40123   0.00000  Uiso   1.00
N365   N     0.43655   0.20168   0.40164   0.00000  Uiso   1.00
N366   N     0.49222   0.94380   0.09883   0.00000  Uiso   1.00
N367   N     0.28707   0.01207   0.09911   0.00000  Uiso   1.00
N368   N     0.43654   0.20171   0.09952   0.00000  Uiso   1.00
