data_job_03394
_audit_creation_date              2018-12-19
_audit_creation_method            'Materials Studio'
_symmetry_space_group_name_H-M    'P1'
_symmetry_Int_Tables_number       1
_symmetry_cell_setting            triclinic
loop_
_symmetry_equiv_pos_as_xyz
  x,y,z
_cell_length_a                    40.5348
_cell_length_b                    24.0728
_cell_length_c                    13.2629
_cell_angle_alpha                 90.0000
_cell_angle_beta                  90.0000
_cell_angle_gamma                 90.0000
loop_
_atom_site_label
_atom_site_type_symbol
_atom_site_fract_x
_atom_site_fract_y
_atom_site_fract_z
_atom_site_U_iso_or_equiv
_atom_site_adp_type
_atom_site_occupancy
C1     C     0.66655   0.98837   0.77326   0.00000  Uiso   1.00
C2     C     0.63185   0.99099   0.81738   0.00000  Uiso   1.00
C3     C     0.60364   0.00742   0.76614   0.00000  Uiso   1.00
C4     C     0.57424   0.00697   0.81984   0.00000  Uiso   1.00
C5     C     0.52052   0.01355   0.87296   0.00000  Uiso   1.00
C6     C     0.68800   0.02466   0.84098   0.00000  Uiso   1.00
C7     C     0.70701   0.06938   0.80957   0.00000  Uiso   1.00
C8     C     0.72488   0.09727   0.88315   0.00000  Uiso   1.00
C9     C     0.75836   0.15608   0.97289   0.00000  Uiso   1.00
C10    C     0.67841   0.92891   0.78923   0.00000  Uiso   1.00
C11    C     0.68937   0.89313   0.71432   0.00000  Uiso   1.00
C12    C     0.69917   0.84040   0.74433   0.00000  Uiso   1.00
C13    C     0.71777   0.75054   0.75372   0.00000  Uiso   1.00
C14    C     0.66451   0.95836   0.95976   0.00000  Uiso   1.00
C15    C     0.63074   0.97469   0.91868   0.00000  Uiso   1.00
C16    C     0.60138   0.97422   0.97248   0.00000  Uiso   1.00
C17    C     0.57313   0.99064   0.92133   0.00000  Uiso   1.00
C18    C     0.68689   0.00836   0.94228   0.00000  Uiso   1.00
C19    C     0.70474   0.03618   0.01592   0.00000  Uiso   1.00
C20    C     0.72377   0.08094   0.98464   0.00000  Uiso   1.00
C21    C     0.67730   0.91260   0.89053   0.00000  Uiso   1.00
C22    C     0.68710   0.85992   0.92067   0.00000  Uiso   1.00
C23    C     0.69806   0.82407   0.84582   0.00000  Uiso   1.00
H24    H     0.66742   0.00107   0.69439   0.00000  Uiso   1.00
H25    H     0.60451   0.02004   0.68774   0.00000  Uiso   1.00
H26    H     0.70786   0.08199   0.73117   0.00000  Uiso   1.00
H27    H     0.69022   0.90576   0.63593   0.00000  Uiso   1.00
H28    H     0.53427   0.03390   0.72505   0.00000  Uiso   1.00
H29    H     0.75221   0.16451   0.81662   0.00000  Uiso   1.00
H30    H     0.71501   0.79290   0.61579   0.00000  Uiso   1.00
H31    H     0.66365   0.94567   0.03864   0.00000  Uiso   1.00
H32    H     0.60053   0.96160   0.05088   0.00000  Uiso   1.00
H33    H     0.70388   0.02355   0.09431   0.00000  Uiso   1.00
H34    H     0.68624   0.84732   0.99907   0.00000  Uiso   1.00
H35    H     0.53104   0.98647   0.01979   0.00000  Uiso   1.00
H36    H     0.74898   0.11708   0.11136   0.00000  Uiso   1.00
H37    H     0.71178   0.74547   0.91053   0.00000  Uiso   1.00
O38    O     0.49120   0.02169   0.87427   0.00000  Uiso   1.00
O39    O     0.77713   0.19303   0.99440   0.00000  Uiso   1.00
O40    O     0.72832   0.70548   0.73092   0.00000  Uiso   1.00
N41    N     0.54217   0.02054   0.79273   0.00000  Uiso   1.00
N42    N     0.74592   0.14266   0.87835   0.00000  Uiso   1.00
N43    N     0.71116   0.79524   0.69059   0.00000  Uiso   1.00
N44    N     0.54043   0.99502   0.95133   0.00000  Uiso   1.00
N45    N     0.74419   0.11714   0.03694   0.00000  Uiso   1.00
N46    N     0.70942   0.76971   0.84919   0.00000  Uiso   1.00
C47    C     0.83345   0.01163   0.27326   0.00000  Uiso   1.00
C48    C     0.86815   0.00901   0.31738   0.00000  Uiso   1.00
C49    C     0.89636   0.99258   0.26614   0.00000  Uiso   1.00
C50    C     0.92576   0.99303   0.31984   0.00000  Uiso   1.00
C51    C     0.97948   0.98645   0.37296   0.00000  Uiso   1.00
C52    C     0.81200   0.97534   0.34098   0.00000  Uiso   1.00
C53    C     0.79299   0.93062   0.30957   0.00000  Uiso   1.00
C54    C     0.77512   0.90273   0.38315   0.00000  Uiso   1.00
C55    C     0.74164   0.84392   0.47289   0.00000  Uiso   1.00
C56    C     0.82159   0.07109   0.28923   0.00000  Uiso   1.00
C57    C     0.81063   0.10687   0.21432   0.00000  Uiso   1.00
C58    C     0.80083   0.15960   0.24433   0.00000  Uiso   1.00
C59    C     0.78223   0.24946   0.25372   0.00000  Uiso   1.00
C60    C     0.83549   0.04164   0.45976   0.00000  Uiso   1.00
C61    C     0.86926   0.02531   0.41868   0.00000  Uiso   1.00
C62    C     0.89862   0.02578   0.47248   0.00000  Uiso   1.00
C63    C     0.92687   0.00936   0.42133   0.00000  Uiso   1.00
C64    C     0.81311   0.99164   0.44228   0.00000  Uiso   1.00
C65    C     0.79526   0.96382   0.51592   0.00000  Uiso   1.00
C66    C     0.77623   0.91906   0.48464   0.00000  Uiso   1.00
C67    C     0.82270   0.08740   0.39053   0.00000  Uiso   1.00
C68    C     0.81290   0.14008   0.42067   0.00000  Uiso   1.00
C69    C     0.80194   0.17593   0.34582   0.00000  Uiso   1.00
H70    H     0.83258   0.99893   0.19439   0.00000  Uiso   1.00
H71    H     0.89549   0.97996   0.18774   0.00000  Uiso   1.00
H72    H     0.79214   0.91801   0.23117   0.00000  Uiso   1.00
H73    H     0.80978   0.09424   0.13593   0.00000  Uiso   1.00
H74    H     0.96573   0.96610   0.22505   0.00000  Uiso   1.00
H75    H     0.74779   0.83549   0.31662   0.00000  Uiso   1.00
H76    H     0.78499   0.20710   0.11579   0.00000  Uiso   1.00
H77    H     0.83635   0.05433   0.53864   0.00000  Uiso   1.00
H78    H     0.89947   0.03840   0.55088   0.00000  Uiso   1.00
H79    H     0.79612   0.97645   0.59431   0.00000  Uiso   1.00
H80    H     0.81376   0.15268   0.49907   0.00000  Uiso   1.00
H81    H     0.96896   0.01353   0.51979   0.00000  Uiso   1.00
H82    H     0.75102   0.88292   0.61136   0.00000  Uiso   1.00
H83    H     0.78822   0.25453   0.41053   0.00000  Uiso   1.00
O84    O     0.00880   0.97831   0.37427   0.00000  Uiso   1.00
O85    O     0.72287   0.80697   0.49440   0.00000  Uiso   1.00
O86    O     0.77168   0.29452   0.23092   0.00000  Uiso   1.00
N87    N     0.95783   0.97946   0.29273   0.00000  Uiso   1.00
N88    N     0.75408   0.85734   0.37835   0.00000  Uiso   1.00
N89    N     0.78884   0.20476   0.19059   0.00000  Uiso   1.00
N90    N     0.95957   0.00498   0.45133   0.00000  Uiso   1.00
N91    N     0.75581   0.88286   0.53694   0.00000  Uiso   1.00
N92    N     0.79058   0.23029   0.34919   0.00000  Uiso   1.00
C93    C     0.33345   0.48837   0.72674   0.00000  Uiso   1.00
C94    C     0.36815   0.49099   0.68262   0.00000  Uiso   1.00
C95    C     0.39636   0.50742   0.73386   0.00000  Uiso   1.00
C96    C     0.42576   0.50697   0.68016   0.00000  Uiso   1.00
C97    C     0.47948   0.51355   0.62704   0.00000  Uiso   1.00
C98    C     0.31200   0.52466   0.65902   0.00000  Uiso   1.00
C99    C     0.29299   0.56938   0.69043   0.00000  Uiso   1.00
C100   C     0.27512   0.59727   0.61685   0.00000  Uiso   1.00
C101   C     0.24164   0.65608   0.52711   0.00000  Uiso   1.00
C102   C     0.32159   0.42891   0.71077   0.00000  Uiso   1.00
C103   C     0.31063   0.39313   0.78568   0.00000  Uiso   1.00
C104   C     0.30083   0.34040   0.75567   0.00000  Uiso   1.00
C105   C     0.28223   0.25054   0.74628   0.00000  Uiso   1.00
C106   C     0.33549   0.45836   0.54024   0.00000  Uiso   1.00
C107   C     0.36926   0.47469   0.58132   0.00000  Uiso   1.00
C108   C     0.39862   0.47422   0.52752   0.00000  Uiso   1.00
C109   C     0.42687   0.49064   0.57867   0.00000  Uiso   1.00
C110   C     0.31311   0.50836   0.55772   0.00000  Uiso   1.00
C111   C     0.29526   0.53618   0.48408   0.00000  Uiso   1.00
C112   C     0.27623   0.58094   0.51536   0.00000  Uiso   1.00
C113   C     0.32270   0.41260   0.60947   0.00000  Uiso   1.00
C114   C     0.31290   0.35992   0.57933   0.00000  Uiso   1.00
C115   C     0.30194   0.32407   0.65418   0.00000  Uiso   1.00
H116   H     0.33258   0.50107   0.80561   0.00000  Uiso   1.00
H117   H     0.39549   0.52004   0.81226   0.00000  Uiso   1.00
H118   H     0.29214   0.58199   0.76883   0.00000  Uiso   1.00
H119   H     0.30978   0.40576   0.86407   0.00000  Uiso   1.00
H120   H     0.46573   0.53390   0.77495   0.00000  Uiso   1.00
H121   H     0.24779   0.66451   0.68338   0.00000  Uiso   1.00
H122   H     0.28499   0.29290   0.88421   0.00000  Uiso   1.00
H123   H     0.33635   0.44567   0.46136   0.00000  Uiso   1.00
H124   H     0.39947   0.46160   0.44912   0.00000  Uiso   1.00
H125   H     0.29612   0.52355   0.40569   0.00000  Uiso   1.00
H126   H     0.31376   0.34732   0.50093   0.00000  Uiso   1.00
H127   H     0.46896   0.48647   0.48021   0.00000  Uiso   1.00
H128   H     0.25102   0.61708   0.38864   0.00000  Uiso   1.00
H129   H     0.28822   0.24547   0.58947   0.00000  Uiso   1.00
O130   O     0.50880   0.52169   0.62573   0.00000  Uiso   1.00
O131   O     0.22287   0.69303   0.50560   0.00000  Uiso   1.00
O132   O     0.27168   0.20548   0.76908   0.00000  Uiso   1.00
N133   N     0.45783   0.52054   0.70727   0.00000  Uiso   1.00
N134   N     0.25408   0.64266   0.62165   0.00000  Uiso   1.00
N135   N     0.28884   0.29524   0.80941   0.00000  Uiso   1.00
N136   N     0.45957   0.49502   0.54867   0.00000  Uiso   1.00
N137   N     0.25581   0.61714   0.46306   0.00000  Uiso   1.00
N138   N     0.29058   0.26971   0.65081   0.00000  Uiso   1.00
C139   C     0.16655   0.51163   0.22674   0.00000  Uiso   1.00
C140   C     0.13185   0.50901   0.18262   0.00000  Uiso   1.00
C141   C     0.10364   0.49258   0.23386   0.00000  Uiso   1.00
C142   C     0.07424   0.49303   0.18016   0.00000  Uiso   1.00
C143   C     0.02052   0.48645   0.12704   0.00000  Uiso   1.00
C144   C     0.18800   0.47534   0.15902   0.00000  Uiso   1.00
C145   C     0.20701   0.43062   0.19043   0.00000  Uiso   1.00
C146   C     0.22488   0.40273   0.11685   0.00000  Uiso   1.00
C147   C     0.25836   0.34392   0.02711   0.00000  Uiso   1.00
C148   C     0.17841   0.57109   0.21077   0.00000  Uiso   1.00
C149   C     0.18937   0.60687   0.28568   0.00000  Uiso   1.00
C150   C     0.19917   0.65960   0.25567   0.00000  Uiso   1.00
C151   C     0.21777   0.74946   0.24628   0.00000  Uiso   1.00
C152   C     0.16451   0.54164   0.04024   0.00000  Uiso   1.00
C153   C     0.13074   0.52531   0.08132   0.00000  Uiso   1.00
C154   C     0.10138   0.52578   0.02752   0.00000  Uiso   1.00
C155   C     0.07313   0.50936   0.07867   0.00000  Uiso   1.00
C156   C     0.18689   0.49164   0.05772   0.00000  Uiso   1.00
C157   C     0.20474   0.46382   0.98408   0.00000  Uiso   1.00
C158   C     0.22377   0.41906   0.01536   0.00000  Uiso   1.00
C159   C     0.17730   0.58740   0.10947   0.00000  Uiso   1.00
C160   C     0.18710   0.64008   0.07933   0.00000  Uiso   1.00
C161   C     0.19806   0.67593   0.15418   0.00000  Uiso   1.00
H162   H     0.16742   0.49893   0.30561   0.00000  Uiso   1.00
H163   H     0.10451   0.47996   0.31226   0.00000  Uiso   1.00
H164   H     0.20786   0.41801   0.26883   0.00000  Uiso   1.00
H165   H     0.19022   0.59424   0.36407   0.00000  Uiso   1.00
H166   H     0.03427   0.46610   0.27495   0.00000  Uiso   1.00
H167   H     0.25221   0.33549   0.18338   0.00000  Uiso   1.00
H168   H     0.21501   0.70710   0.38421   0.00000  Uiso   1.00
H169   H     0.16365   0.55433   0.96136   0.00000  Uiso   1.00
H170   H     0.10053   0.53840   0.94912   0.00000  Uiso   1.00
H171   H     0.20388   0.47645   0.90569   0.00000  Uiso   1.00
H172   H     0.18624   0.65268   0.00093   0.00000  Uiso   1.00
H173   H     0.03104   0.51353   0.98021   0.00000  Uiso   1.00
H174   H     0.24898   0.38292   0.88864   0.00000  Uiso   1.00
H175   H     0.21178   0.75453   0.08947   0.00000  Uiso   1.00
O176   O     0.99120   0.47831   0.12573   0.00000  Uiso   1.00
O177   O     0.27713   0.30697   0.00560   0.00000  Uiso   1.00
O178   O     0.22832   0.79452   0.26908   0.00000  Uiso   1.00
N179   N     0.04217   0.47946   0.20727   0.00000  Uiso   1.00
N180   N     0.24592   0.35734   0.12165   0.00000  Uiso   1.00
N181   N     0.21116   0.70476   0.30941   0.00000  Uiso   1.00
N182   N     0.04043   0.50498   0.04867   0.00000  Uiso   1.00
N183   N     0.24419   0.38286   0.96306   0.00000  Uiso   1.00
N184   N     0.20942   0.73029   0.15081   0.00000  Uiso   1.00
C185   C     0.33345   0.01163   0.22674   0.00000  Uiso   1.00
C186   C     0.36815   0.00901   0.18262   0.00000  Uiso   1.00
C187   C     0.39636   0.99258   0.23386   0.00000  Uiso   1.00
C188   C     0.42576   0.99303   0.18016   0.00000  Uiso   1.00
C189   C     0.47948   0.98645   0.12704   0.00000  Uiso   1.00
C190   C     0.31200   0.97534   0.15902   0.00000  Uiso   1.00
C191   C     0.29299   0.93062   0.19043   0.00000  Uiso   1.00
C192   C     0.27512   0.90273   0.11685   0.00000  Uiso   1.00
C193   C     0.24164   0.84392   0.02711   0.00000  Uiso   1.00
C194   C     0.32159   0.07109   0.21077   0.00000  Uiso   1.00
C195   C     0.31063   0.10687   0.28568   0.00000  Uiso   1.00
C196   C     0.30083   0.15960   0.25567   0.00000  Uiso   1.00
C197   C     0.28223   0.24946   0.24628   0.00000  Uiso   1.00
C198   C     0.33549   0.04164   0.04024   0.00000  Uiso   1.00
C199   C     0.36926   0.02531   0.08132   0.00000  Uiso   1.00
C200   C     0.39862   0.02578   0.02752   0.00000  Uiso   1.00
C201   C     0.42687   0.00936   0.07867   0.00000  Uiso   1.00
C202   C     0.31311   0.99164   0.05772   0.00000  Uiso   1.00
C203   C     0.29526   0.96382   0.98408   0.00000  Uiso   1.00
C204   C     0.27623   0.91906   0.01536   0.00000  Uiso   1.00
C205   C     0.32270   0.08740   0.10947   0.00000  Uiso   1.00
C206   C     0.31290   0.14008   0.07933   0.00000  Uiso   1.00
C207   C     0.30194   0.17593   0.15418   0.00000  Uiso   1.00
H208   H     0.33258   0.99893   0.30561   0.00000  Uiso   1.00
H209   H     0.39549   0.97996   0.31226   0.00000  Uiso   1.00
H210   H     0.29214   0.91801   0.26883   0.00000  Uiso   1.00
H211   H     0.30978   0.09424   0.36407   0.00000  Uiso   1.00
H212   H     0.46573   0.96610   0.27495   0.00000  Uiso   1.00
H213   H     0.24779   0.83549   0.18338   0.00000  Uiso   1.00
H214   H     0.28499   0.20710   0.38421   0.00000  Uiso   1.00
H215   H     0.33635   0.05433   0.96136   0.00000  Uiso   1.00
H216   H     0.39947   0.03840   0.94912   0.00000  Uiso   1.00
H217   H     0.29612   0.97645   0.90569   0.00000  Uiso   1.00
H218   H     0.31376   0.15268   0.00093   0.00000  Uiso   1.00
H219   H     0.46896   0.01353   0.98021   0.00000  Uiso   1.00
H220   H     0.25102   0.88292   0.88864   0.00000  Uiso   1.00
H221   H     0.28822   0.25453   0.08947   0.00000  Uiso   1.00
O222   O     0.50880   0.97831   0.12573   0.00000  Uiso   1.00
O223   O     0.22287   0.80697   0.00560   0.00000  Uiso   1.00
O224   O     0.27168   0.29452   0.26908   0.00000  Uiso   1.00
N225   N     0.45783   0.97946   0.20727   0.00000  Uiso   1.00
N226   N     0.25408   0.85734   0.12165   0.00000  Uiso   1.00
N227   N     0.28884   0.20476   0.30941   0.00000  Uiso   1.00
N228   N     0.45957   0.00498   0.04867   0.00000  Uiso   1.00
N229   N     0.25581   0.88286   0.96306   0.00000  Uiso   1.00
N230   N     0.29058   0.23029   0.15081   0.00000  Uiso   1.00
C231   C     0.16655   0.98837   0.72674   0.00000  Uiso   1.00
C232   C     0.13185   0.99099   0.68262   0.00000  Uiso   1.00
C233   C     0.10364   0.00742   0.73386   0.00000  Uiso   1.00
C234   C     0.07424   0.00697   0.68016   0.00000  Uiso   1.00
C235   C     0.02052   0.01355   0.62704   0.00000  Uiso   1.00
C236   C     0.18800   0.02466   0.65902   0.00000  Uiso   1.00
C237   C     0.20701   0.06938   0.69043   0.00000  Uiso   1.00
C238   C     0.22488   0.09727   0.61685   0.00000  Uiso   1.00
C239   C     0.25836   0.15608   0.52711   0.00000  Uiso   1.00
C240   C     0.17841   0.92891   0.71077   0.00000  Uiso   1.00
C241   C     0.18937   0.89313   0.78568   0.00000  Uiso   1.00
C242   C     0.19917   0.84040   0.75567   0.00000  Uiso   1.00
C243   C     0.21777   0.75054   0.74628   0.00000  Uiso   1.00
C244   C     0.16451   0.95836   0.54024   0.00000  Uiso   1.00
C245   C     0.13074   0.97469   0.58132   0.00000  Uiso   1.00
C246   C     0.10138   0.97422   0.52752   0.00000  Uiso   1.00
C247   C     0.07313   0.99064   0.57867   0.00000  Uiso   1.00
C248   C     0.18689   0.00836   0.55772   0.00000  Uiso   1.00
C249   C     0.20474   0.03618   0.48408   0.00000  Uiso   1.00
C250   C     0.22377   0.08094   0.51536   0.00000  Uiso   1.00
C251   C     0.17730   0.91260   0.60947   0.00000  Uiso   1.00
C252   C     0.18710   0.85992   0.57933   0.00000  Uiso   1.00
C253   C     0.19806   0.82407   0.65418   0.00000  Uiso   1.00
H254   H     0.16742   0.00107   0.80561   0.00000  Uiso   1.00
H255   H     0.10451   0.02004   0.81226   0.00000  Uiso   1.00
H256   H     0.20786   0.08199   0.76883   0.00000  Uiso   1.00
H257   H     0.19022   0.90576   0.86407   0.00000  Uiso   1.00
H258   H     0.03427   0.03390   0.77495   0.00000  Uiso   1.00
H259   H     0.25221   0.16451   0.68338   0.00000  Uiso   1.00
H260   H     0.21501   0.79290   0.88421   0.00000  Uiso   1.00
H261   H     0.16365   0.94567   0.46136   0.00000  Uiso   1.00
H262   H     0.10053   0.96160   0.44912   0.00000  Uiso   1.00
H263   H     0.20388   0.02355   0.40569   0.00000  Uiso   1.00
H264   H     0.18624   0.84732   0.50093   0.00000  Uiso   1.00
H265   H     0.03104   0.98647   0.48021   0.00000  Uiso   1.00
H266   H     0.24898   0.11708   0.38864   0.00000  Uiso   1.00
H267   H     0.21178   0.74547   0.58947   0.00000  Uiso   1.00
O268   O     0.99120   0.02169   0.62573   0.00000  Uiso   1.00
O269   O     0.27713   0.19303   0.50560   0.00000  Uiso   1.00
O270   O     0.22832   0.70548   0.76908   0.00000  Uiso   1.00
N271   N     0.04217   0.02054   0.70727   0.00000  Uiso   1.00
N272   N     0.24592   0.14266   0.62165   0.00000  Uiso   1.00
N273   N     0.21116   0.79524   0.80941   0.00000  Uiso   1.00
N274   N     0.04043   0.99502   0.54867   0.00000  Uiso   1.00
N275   N     0.24419   0.11714   0.46306   0.00000  Uiso   1.00
N276   N     0.20942   0.76971   0.65081   0.00000  Uiso   1.00
C277   C     0.66655   0.51163   0.27326   0.00000  Uiso   1.00
C278   C     0.63185   0.50901   0.31738   0.00000  Uiso   1.00
C279   C     0.60364   0.49258   0.26614   0.00000  Uiso   1.00
C280   C     0.57424   0.49303   0.31984   0.00000  Uiso   1.00
C281   C     0.52052   0.48645   0.37296   0.00000  Uiso   1.00
C282   C     0.68800   0.47534   0.34098   0.00000  Uiso   1.00
C283   C     0.70701   0.43062   0.30957   0.00000  Uiso   1.00
C284   C     0.72488   0.40273   0.38315   0.00000  Uiso   1.00
C285   C     0.75836   0.34392   0.47289   0.00000  Uiso   1.00
C286   C     0.67841   0.57109   0.28923   0.00000  Uiso   1.00
C287   C     0.68937   0.60687   0.21432   0.00000  Uiso   1.00
C288   C     0.69917   0.65960   0.24433   0.00000  Uiso   1.00
C289   C     0.71777   0.74946   0.25372   0.00000  Uiso   1.00
C290   C     0.66451   0.54164   0.45976   0.00000  Uiso   1.00
C291   C     0.63074   0.52531   0.41868   0.00000  Uiso   1.00
C292   C     0.60138   0.52578   0.47248   0.00000  Uiso   1.00
C293   C     0.57313   0.50936   0.42133   0.00000  Uiso   1.00
C294   C     0.68689   0.49164   0.44228   0.00000  Uiso   1.00
C295   C     0.70474   0.46382   0.51592   0.00000  Uiso   1.00
C296   C     0.72377   0.41906   0.48464   0.00000  Uiso   1.00
C297   C     0.67730   0.58740   0.39053   0.00000  Uiso   1.00
C298   C     0.68710   0.64008   0.42067   0.00000  Uiso   1.00
C299   C     0.69806   0.67593   0.34582   0.00000  Uiso   1.00
H300   H     0.66742   0.49893   0.19439   0.00000  Uiso   1.00
H301   H     0.60451   0.47996   0.18774   0.00000  Uiso   1.00
H302   H     0.70786   0.41801   0.23117   0.00000  Uiso   1.00
H303   H     0.69022   0.59424   0.13593   0.00000  Uiso   1.00
H304   H     0.53427   0.46610   0.22505   0.00000  Uiso   1.00
H305   H     0.75221   0.33549   0.31662   0.00000  Uiso   1.00
H306   H     0.71501   0.70710   0.11579   0.00000  Uiso   1.00
H307   H     0.66365   0.55433   0.53864   0.00000  Uiso   1.00
H308   H     0.60053   0.53840   0.55088   0.00000  Uiso   1.00
H309   H     0.70388   0.47645   0.59431   0.00000  Uiso   1.00
H310   H     0.68624   0.65268   0.49907   0.00000  Uiso   1.00
H311   H     0.53104   0.51353   0.51979   0.00000  Uiso   1.00
H312   H     0.74898   0.38292   0.61136   0.00000  Uiso   1.00
H313   H     0.71178   0.75453   0.41053   0.00000  Uiso   1.00
O314   O     0.49120   0.47831   0.37427   0.00000  Uiso   1.00
O315   O     0.77713   0.30697   0.49440   0.00000  Uiso   1.00
O316   O     0.72832   0.79452   0.23092   0.00000  Uiso   1.00
N317   N     0.54217   0.47946   0.29273   0.00000  Uiso   1.00
N318   N     0.74592   0.35734   0.37835   0.00000  Uiso   1.00
N319   N     0.71116   0.70476   0.19059   0.00000  Uiso   1.00
N320   N     0.54043   0.50498   0.45133   0.00000  Uiso   1.00
N321   N     0.74419   0.38286   0.53694   0.00000  Uiso   1.00
N322   N     0.70942   0.73029   0.34919   0.00000  Uiso   1.00
C323   C     0.83345   0.48837   0.77326   0.00000  Uiso   1.00
C324   C     0.86815   0.49099   0.81738   0.00000  Uiso   1.00
C325   C     0.89636   0.50742   0.76614   0.00000  Uiso   1.00
C326   C     0.92576   0.50697   0.81984   0.00000  Uiso   1.00
C327   C     0.97948   0.51355   0.87296   0.00000  Uiso   1.00
C328   C     0.81200   0.52466   0.84098   0.00000  Uiso   1.00
C329   C     0.79299   0.56938   0.80957   0.00000  Uiso   1.00
C330   C     0.77512   0.59727   0.88315   0.00000  Uiso   1.00
C331   C     0.74164   0.65608   0.97289   0.00000  Uiso   1.00
C332   C     0.82159   0.42891   0.78923   0.00000  Uiso   1.00
C333   C     0.81063   0.39313   0.71432   0.00000  Uiso   1.00
C334   C     0.80083   0.34040   0.74433   0.00000  Uiso   1.00
C335   C     0.78223   0.25054   0.75372   0.00000  Uiso   1.00
C336   C     0.83549   0.45836   0.95976   0.00000  Uiso   1.00
C337   C     0.86926   0.47469   0.91868   0.00000  Uiso   1.00
C338   C     0.89862   0.47422   0.97248   0.00000  Uiso   1.00
C339   C     0.92687   0.49064   0.92133   0.00000  Uiso   1.00
C340   C     0.81311   0.50836   0.94228   0.00000  Uiso   1.00
C341   C     0.79526   0.53618   0.01592   0.00000  Uiso   1.00
C342   C     0.77623   0.58094   0.98464   0.00000  Uiso   1.00
C343   C     0.82270   0.41260   0.89053   0.00000  Uiso   1.00
C344   C     0.81290   0.35992   0.92067   0.00000  Uiso   1.00
C345   C     0.80194   0.32407   0.84582   0.00000  Uiso   1.00
H346   H     0.83258   0.50107   0.69439   0.00000  Uiso   1.00
H347   H     0.89549   0.52004   0.68774   0.00000  Uiso   1.00
H348   H     0.79214   0.58199   0.73117   0.00000  Uiso   1.00
H349   H     0.80978   0.40576   0.63593   0.00000  Uiso   1.00
H350   H     0.96573   0.53390   0.72505   0.00000  Uiso   1.00
H351   H     0.74779   0.66451   0.81662   0.00000  Uiso   1.00
H352   H     0.78499   0.29290   0.61579   0.00000  Uiso   1.00
H353   H     0.83635   0.44567   0.03864   0.00000  Uiso   1.00
H354   H     0.89947   0.46160   0.05088   0.00000  Uiso   1.00
H355   H     0.79612   0.52355   0.09431   0.00000  Uiso   1.00
H356   H     0.81376   0.34732   0.99907   0.00000  Uiso   1.00
H357   H     0.96896   0.48647   0.01979   0.00000  Uiso   1.00
H358   H     0.75102   0.61708   0.11136   0.00000  Uiso   1.00
H359   H     0.78822   0.24547   0.91053   0.00000  Uiso   1.00
O360   O     0.00880   0.52169   0.87427   0.00000  Uiso   1.00
O361   O     0.72287   0.69303   0.99440   0.00000  Uiso   1.00
O362   O     0.77168   0.20548   0.73092   0.00000  Uiso   1.00
N363   N     0.95783   0.52054   0.79273   0.00000  Uiso   1.00
N364   N     0.75408   0.64266   0.87835   0.00000  Uiso   1.00
N365   N     0.78884   0.29524   0.69059   0.00000  Uiso   1.00
N366   N     0.95957   0.49502   0.95133   0.00000  Uiso   1.00
N367   N     0.75581   0.61714   0.03694   0.00000  Uiso   1.00
N368   N     0.79058   0.26971   0.84919   0.00000  Uiso   1.00
