data_job_01116
_audit_creation_date              2018-12-19
_audit_creation_method            'Materials Studio'
_symmetry_space_group_name_H-M    'P1'
_symmetry_Int_Tables_number       1
_symmetry_cell_setting            triclinic
loop_
_symmetry_equiv_pos_as_xyz
  x,y,z
_cell_length_a                    24.5212
_cell_length_b                    13.1367
_cell_length_c                    15.8046
_cell_angle_alpha                 90.0000
_cell_angle_beta                  141.3981
_cell_angle_gamma                 90.0000
loop_
_atom_site_label
_atom_site_type_symbol
_atom_site_fract_x
_atom_site_fract_y
_atom_site_fract_z
_atom_site_U_iso_or_equiv
_atom_site_adp_type
_atom_site_occupancy
C1     C     0.81294   0.81925   0.25732   0.00000  Uiso   1.00
C2     C     0.90839   0.79060   0.38740   0.00000  Uiso   1.00
C3     C     0.96027   0.82341   0.51698   0.00000  Uiso   1.00
C4     C     0.04595   0.78864   0.62270   0.00000  Uiso   1.00
C5     C     0.18922   0.75412   0.82821   0.00000  Uiso   1.00
C6     C     0.80866   0.86575   0.16381   0.00000  Uiso   1.00
C7     C     0.77668   0.96175   0.10538   0.00000  Uiso   1.00
C8     C     0.77839   0.99022   0.02287   0.00000  Uiso   1.00
C9     C     0.76677   0.07234   0.88117   0.00000  Uiso   1.00
C10    C     0.76282   0.71910   0.19151   0.00000  Uiso   1.00
C11    C     0.69229   0.69180   0.15632   0.00000  Uiso   1.00
C12    C     0.65539   0.59682   0.09710   0.00000  Uiso   1.00
C13    C     0.57260   0.45124   0.99840   0.00000  Uiso   1.00
C14    C     0.87283   0.69914   0.21467   0.00000  Uiso   1.00
C15    C     0.94091   0.72536   0.36423   0.00000  Uiso   1.00
C16    C     0.02653   0.69052   0.46979   0.00000  Uiso   1.00
C17    C     0.07854   0.72328   0.59950   0.00000  Uiso   1.00
C18    C     0.84118   0.80051   0.14065   0.00000  Uiso   1.00
C19    C     0.84294   0.82885   0.05820   0.00000  Uiso   1.00
C20    C     0.81098   0.92487   0.99966   0.00000  Uiso   1.00
C21    C     0.79535   0.65386   0.16834   0.00000  Uiso   1.00
C22    C     0.75855   0.55890   0.10915   0.00000  Uiso   1.00
C23    C     0.68798   0.53146   0.07389   0.00000  Uiso   1.00
H24    H     0.78761   0.87005   0.27534   0.00000  Uiso   1.00
H25    H     0.93508   0.87391   0.53486   0.00000  Uiso   1.00
H26    H     0.75150   0.01221   0.12331   0.00000  Uiso   1.00
H27    H     0.66713   0.74231   0.17426   0.00000  Uiso   1.00
H28    H     0.11293   0.84946   0.81236   0.00000  Uiso   1.00
H29    H     0.72582   0.14106   0.94456   0.00000  Uiso   1.00
H30    H     0.54790   0.57191   0.05198   0.00000  Uiso   1.00
H31    H     0.89815   0.64834   0.19663   0.00000  Uiso   1.00
H32    H     0.05169   0.64004   0.45184   0.00000  Uiso   1.00
H33    H     0.86811   0.77834   0.04029   0.00000  Uiso   1.00
H34    H     0.78374   0.50844   0.09124   0.00000  Uiso   1.00
H35    H     0.20757   0.65964   0.74497   0.00000  Uiso   1.00
H36    H     0.82046   0.95124   0.87717   0.00000  Uiso   1.00
H37    H     0.64254   0.38209   0.98460   0.00000  Uiso   1.00
O38    O     0.25926   0.75311   0.94796   0.00000  Uiso   1.00
O39    O     0.75138   0.13567   0.80942   0.00000  Uiso   1.00
O40    O     0.51796   0.38896   0.95037   0.00000  Uiso   1.00
N41    N     0.11413   0.80590   0.76148   0.00000  Uiso   1.00
N42    N     0.75222   0.07854   0.95016   0.00000  Uiso   1.00
N43    N     0.58586   0.54645   0.05056   0.00000  Uiso   1.00
N44    N     0.16505   0.70376   0.72522   0.00000  Uiso   1.00
N45    N     0.80314   0.97640   0.91390   0.00000  Uiso   1.00
N46    N     0.63679   0.44431   0.01430   0.00000  Uiso   1.00
C47    C     0.18706   0.31925   0.24268   0.00000  Uiso   1.00
C48    C     0.09161   0.29060   0.11260   0.00000  Uiso   1.00
C49    C     0.03973   0.32341   0.98302   0.00000  Uiso   1.00
C50    C     0.95405   0.28864   0.87730   0.00000  Uiso   1.00
C51    C     0.81078   0.25412   0.67179   0.00000  Uiso   1.00
C52    C     0.19134   0.36575   0.33619   0.00000  Uiso   1.00
C53    C     0.22332   0.46175   0.39462   0.00000  Uiso   1.00
C54    C     0.22161   0.49022   0.47713   0.00000  Uiso   1.00
C55    C     0.23323   0.57234   0.61883   0.00000  Uiso   1.00
C56    C     0.23718   0.21910   0.30849   0.00000  Uiso   1.00
C57    C     0.30771   0.19180   0.34368   0.00000  Uiso   1.00
C58    C     0.34461   0.09682   0.40290   0.00000  Uiso   1.00
C59    C     0.42740   0.95124   0.50160   0.00000  Uiso   1.00
C60    C     0.12717   0.19914   0.28533   0.00000  Uiso   1.00
C61    C     0.05909   0.22536   0.13577   0.00000  Uiso   1.00
C62    C     0.97347   0.19052   0.03021   0.00000  Uiso   1.00
C63    C     0.92146   0.22328   0.90050   0.00000  Uiso   1.00
C64    C     0.15882   0.30051   0.35935   0.00000  Uiso   1.00
C65    C     0.15706   0.32885   0.44180   0.00000  Uiso   1.00
C66    C     0.18902   0.42487   0.50034   0.00000  Uiso   1.00
C67    C     0.20465   0.15386   0.33166   0.00000  Uiso   1.00
C68    C     0.24145   0.05890   0.39085   0.00000  Uiso   1.00
C69    C     0.31202   0.03146   0.42611   0.00000  Uiso   1.00
H70    H     0.21239   0.37005   0.22466   0.00000  Uiso   1.00
H71    H     0.06492   0.37391   0.96514   0.00000  Uiso   1.00
H72    H     0.24850   0.51221   0.37669   0.00000  Uiso   1.00
H73    H     0.33287   0.24231   0.32574   0.00000  Uiso   1.00
H74    H     0.88707   0.34946   0.68764   0.00000  Uiso   1.00
H75    H     0.27418   0.64106   0.55544   0.00000  Uiso   1.00
H76    H     0.45210   0.07191   0.44802   0.00000  Uiso   1.00
H77    H     0.10185   0.14834   0.30337   0.00000  Uiso   1.00
H78    H     0.94831   0.14004   0.04816   0.00000  Uiso   1.00
H79    H     0.13189   0.27834   0.45971   0.00000  Uiso   1.00
H80    H     0.21626   0.00844   0.40876   0.00000  Uiso   1.00
H81    H     0.79243   0.15964   0.75503   0.00000  Uiso   1.00
H82    H     0.17954   0.45124   0.62283   0.00000  Uiso   1.00
H83    H     0.35746   0.88209   0.51540   0.00000  Uiso   1.00
O84    O     0.74074   0.25311   0.55204   0.00000  Uiso   1.00
O85    O     0.24862   0.63567   0.69058   0.00000  Uiso   1.00
O86    O     0.48204   0.88896   0.54963   0.00000  Uiso   1.00
N87    N     0.88587   0.30590   0.73852   0.00000  Uiso   1.00
N88    N     0.24778   0.57854   0.54984   0.00000  Uiso   1.00
N89    N     0.41414   0.04645   0.44944   0.00000  Uiso   1.00
N90    N     0.83495   0.20376   0.77478   0.00000  Uiso   1.00
N91    N     0.19686   0.47640   0.58610   0.00000  Uiso   1.00
N92    N     0.36321   0.94431   0.48570   0.00000  Uiso   1.00
C93    C     0.18706   0.18075   0.74268   0.00000  Uiso   1.00
C94    C     0.09161   0.20940   0.61260   0.00000  Uiso   1.00
C95    C     0.03973   0.17659   0.48302   0.00000  Uiso   1.00
C96    C     0.95405   0.21136   0.37730   0.00000  Uiso   1.00
C97    C     0.81078   0.24588   0.17179   0.00000  Uiso   1.00
C98    C     0.19134   0.13425   0.83619   0.00000  Uiso   1.00
C99    C     0.22332   0.03825   0.89462   0.00000  Uiso   1.00
C100   C     0.22161   0.00978   0.97713   0.00000  Uiso   1.00
C101   C     0.23323   0.92766   0.11883   0.00000  Uiso   1.00
C102   C     0.23718   0.28090   0.80849   0.00000  Uiso   1.00
C103   C     0.30771   0.30820   0.84368   0.00000  Uiso   1.00
C104   C     0.34461   0.40318   0.90290   0.00000  Uiso   1.00
C105   C     0.42740   0.54876   0.00160   0.00000  Uiso   1.00
C106   C     0.12717   0.30086   0.78533   0.00000  Uiso   1.00
C107   C     0.05909   0.27464   0.63577   0.00000  Uiso   1.00
C108   C     0.97347   0.30948   0.53021   0.00000  Uiso   1.00
C109   C     0.92146   0.27672   0.40050   0.00000  Uiso   1.00
C110   C     0.15882   0.19949   0.85935   0.00000  Uiso   1.00
C111   C     0.15706   0.17115   0.94180   0.00000  Uiso   1.00
C112   C     0.18902   0.07513   0.00034   0.00000  Uiso   1.00
C113   C     0.20465   0.34614   0.83166   0.00000  Uiso   1.00
C114   C     0.24145   0.44110   0.89085   0.00000  Uiso   1.00
C115   C     0.31202   0.46854   0.92611   0.00000  Uiso   1.00
H116   H     0.21239   0.12995   0.72466   0.00000  Uiso   1.00
H117   H     0.06492   0.12609   0.46514   0.00000  Uiso   1.00
H118   H     0.24850   0.98779   0.87669   0.00000  Uiso   1.00
H119   H     0.33287   0.25769   0.82574   0.00000  Uiso   1.00
H120   H     0.88707   0.15054   0.18764   0.00000  Uiso   1.00
H121   H     0.27418   0.85894   0.05544   0.00000  Uiso   1.00
H122   H     0.45210   0.42809   0.94802   0.00000  Uiso   1.00
H123   H     0.10185   0.35166   0.80337   0.00000  Uiso   1.00
H124   H     0.94831   0.35996   0.54816   0.00000  Uiso   1.00
H125   H     0.13189   0.22166   0.95971   0.00000  Uiso   1.00
H126   H     0.21626   0.49156   0.90876   0.00000  Uiso   1.00
H127   H     0.79243   0.34036   0.25503   0.00000  Uiso   1.00
H128   H     0.17954   0.04876   0.12283   0.00000  Uiso   1.00
H129   H     0.35746   0.61791   0.01540   0.00000  Uiso   1.00
O130   O     0.74074   0.24689   0.05204   0.00000  Uiso   1.00
O131   O     0.24862   0.86433   0.19058   0.00000  Uiso   1.00
O132   O     0.48204   0.61104   0.04963   0.00000  Uiso   1.00
N133   N     0.88587   0.19410   0.23852   0.00000  Uiso   1.00
N134   N     0.24778   0.92146   0.04984   0.00000  Uiso   1.00
N135   N     0.41414   0.45355   0.94944   0.00000  Uiso   1.00
N136   N     0.83495   0.29624   0.27478   0.00000  Uiso   1.00
N137   N     0.19686   0.02360   0.08610   0.00000  Uiso   1.00
N138   N     0.36321   0.55569   0.98570   0.00000  Uiso   1.00
C139   C     0.81294   0.68075   0.75732   0.00000  Uiso   1.00
C140   C     0.90839   0.70940   0.88740   0.00000  Uiso   1.00
C141   C     0.96027   0.67659   0.01698   0.00000  Uiso   1.00
C142   C     0.04595   0.71136   0.12270   0.00000  Uiso   1.00
C143   C     0.18922   0.74588   0.32821   0.00000  Uiso   1.00
C144   C     0.80866   0.63425   0.66381   0.00000  Uiso   1.00
C145   C     0.77668   0.53825   0.60538   0.00000  Uiso   1.00
C146   C     0.77839   0.50978   0.52287   0.00000  Uiso   1.00
C147   C     0.76677   0.42766   0.38117   0.00000  Uiso   1.00
C148   C     0.76282   0.78090   0.69151   0.00000  Uiso   1.00
C149   C     0.69229   0.80820   0.65632   0.00000  Uiso   1.00
C150   C     0.65539   0.90318   0.59710   0.00000  Uiso   1.00
C151   C     0.57260   0.04876   0.49840   0.00000  Uiso   1.00
C152   C     0.87283   0.80086   0.71467   0.00000  Uiso   1.00
C153   C     0.94091   0.77464   0.86423   0.00000  Uiso   1.00
C154   C     0.02653   0.80948   0.96979   0.00000  Uiso   1.00
C155   C     0.07854   0.77672   0.09950   0.00000  Uiso   1.00
C156   C     0.84118   0.69949   0.64065   0.00000  Uiso   1.00
C157   C     0.84294   0.67115   0.55820   0.00000  Uiso   1.00
C158   C     0.81098   0.57513   0.49966   0.00000  Uiso   1.00
C159   C     0.79535   0.84614   0.66834   0.00000  Uiso   1.00
C160   C     0.75855   0.94110   0.60915   0.00000  Uiso   1.00
C161   C     0.68798   0.96854   0.57389   0.00000  Uiso   1.00
H162   H     0.78761   0.62995   0.77534   0.00000  Uiso   1.00
H163   H     0.93508   0.62609   0.03486   0.00000  Uiso   1.00
H164   H     0.75150   0.48779   0.62331   0.00000  Uiso   1.00
H165   H     0.66713   0.75769   0.67426   0.00000  Uiso   1.00
H166   H     0.11293   0.65054   0.31236   0.00000  Uiso   1.00
H167   H     0.72582   0.35894   0.44456   0.00000  Uiso   1.00
H168   H     0.54790   0.92809   0.55198   0.00000  Uiso   1.00
H169   H     0.89815   0.85166   0.69663   0.00000  Uiso   1.00
H170   H     0.05169   0.85996   0.95184   0.00000  Uiso   1.00
H171   H     0.86811   0.72166   0.54029   0.00000  Uiso   1.00
H172   H     0.78374   0.99156   0.59124   0.00000  Uiso   1.00
H173   H     0.20757   0.84036   0.24497   0.00000  Uiso   1.00
H174   H     0.82046   0.54876   0.37717   0.00000  Uiso   1.00
H175   H     0.64254   0.11791   0.48460   0.00000  Uiso   1.00
O176   O     0.25926   0.74689   0.44796   0.00000  Uiso   1.00
O177   O     0.75138   0.36433   0.30942   0.00000  Uiso   1.00
O178   O     0.51796   0.11104   0.45037   0.00000  Uiso   1.00
N179   N     0.11413   0.69410   0.26148   0.00000  Uiso   1.00
N180   N     0.75222   0.42146   0.45016   0.00000  Uiso   1.00
N181   N     0.58586   0.95355   0.55056   0.00000  Uiso   1.00
N182   N     0.16505   0.79624   0.22522   0.00000  Uiso   1.00
N183   N     0.80314   0.52360   0.41390   0.00000  Uiso   1.00
N184   N     0.63679   0.05569   0.51430   0.00000  Uiso   1.00
