data_job_04807
_audit_creation_date              2018-12-19
_audit_creation_method            'Materials Studio'
_symmetry_space_group_name_H-M    'P1'
_symmetry_Int_Tables_number       1
_symmetry_cell_setting            triclinic
loop_
_symmetry_equiv_pos_as_xyz
  x,y,z
_cell_length_a                    22.9815
_cell_length_b                    10.1996
_cell_length_c                    20.9851
_cell_angle_alpha                 90.0000
_cell_angle_beta                  147.0740
_cell_angle_gamma                 90.0000
loop_
_atom_site_label
_atom_site_type_symbol
_atom_site_fract_x
_atom_site_fract_y
_atom_site_fract_z
_atom_site_U_iso_or_equiv
_atom_site_adp_type
_atom_site_occupancy
C1     C     0.83618   0.97127   0.68404   0.00000  Uiso   1.00
C2     C     0.84130   0.04492   0.75191   0.00000  Uiso   1.00
C3     C     0.82958   0.17927   0.74890   0.00000  Uiso   1.00
C4     C     0.83692   0.22770   0.81732   0.00000  Uiso   1.00
C5     C     0.84213   0.35469   0.91228   0.00000  Uiso   1.00
C6     C     0.94140   0.89629   0.77529   0.00000  Uiso   1.00
C7     C     0.01382   0.90568   0.79192   0.00000  Uiso   1.00
C8     C     0.10541   0.82898   0.88002   0.00000  Uiso   1.00
C9     C     0.26598   0.72516   0.01121   0.00000  Uiso   1.00
C10    C     0.74907   0.86781   0.61186   0.00000  Uiso   1.00
C11    C     0.65979   0.85322   0.49107   0.00000  Uiso   1.00
C12    C     0.58947   0.75251   0.44157   0.00000  Uiso   1.00
C13    C     0.45141   0.60447   0.31901   0.00000  Uiso   1.00
C14    C     0.87005   0.81835   0.81091   0.00000  Uiso   1.00
C15    C     0.85971   0.96185   0.82082   0.00000  Uiso   1.00
C16    C     0.86706   0.01009   0.88927   0.00000  Uiso   1.00
C17    C     0.85535   0.14449   0.88635   0.00000  Uiso   1.00
C18    C     0.95980   0.81324   0.84420   0.00000  Uiso   1.00
C19    C     0.05130   0.73649   0.93229   0.00000  Uiso   1.00
C20    C     0.12385   0.74577   0.94905   0.00000  Uiso   1.00
C21    C     0.76746   0.78475   0.68077   0.00000  Uiso   1.00
C22    C     0.69727   0.68404   0.63144   0.00000  Uiso   1.00
C23    C     0.60790   0.66930   0.51061   0.00000  Uiso   1.00
H24    H     0.82186   0.03593   0.63039   0.00000  Uiso   1.00
H25    H     0.81536   0.24352   0.69557   0.00000  Uiso   1.00
H26    H     0.99956   0.96996   0.73858   0.00000  Uiso   1.00
H27    H     0.64558   0.91751   0.43778   0.00000  Uiso   1.00
H28    H     0.81629   0.43705   0.79825   0.00000  Uiso   1.00
H29    H     0.20468   0.86019   0.88891   0.00000  Uiso   1.00
H30    H     0.45825   0.74959   0.25461   0.00000  Uiso   1.00
H31    H     0.88438   0.75368   0.86456   0.00000  Uiso   1.00
H32    H     0.88130   0.94579   0.94258   0.00000  Uiso   1.00
H33    H     0.06551   0.67222   0.98559   0.00000  Uiso   1.00
H34    H     0.71153   0.61978   0.68480   0.00000  Uiso   1.00
H35    H     0.86982   0.19539   0.99874   0.00000  Uiso   1.00
H36    H     0.25820   0.61853   0.08940   0.00000  Uiso   1.00
H37    H     0.51178   0.50794   0.45511   0.00000  Uiso   1.00
O38    O     0.83993   0.44769   0.94563   0.00000  Uiso   1.00
O39    O     0.34947   0.69086   0.06455   0.00000  Uiso   1.00
O40    O     0.37018   0.54577   0.23237   0.00000  Uiso   1.00
N41    N     0.82929   0.35381   0.83471   0.00000  Uiso   1.00
N42    N     0.19242   0.81450   0.91948   0.00000  Uiso   1.00
N43    N     0.49458   0.71108   0.32647   0.00000  Uiso   1.00
N44    N     0.85809   0.22378   0.94259   0.00000  Uiso   1.00
N45    N     0.22122   0.68447   0.02736   0.00000  Uiso   1.00
N46    N     0.52339   0.58105   0.43435   0.00000  Uiso   1.00
C47    C     0.33618   0.47127   0.68404   0.00000  Uiso   1.00
C48    C     0.34130   0.54492   0.75191   0.00000  Uiso   1.00
C49    C     0.32958   0.67927   0.74890   0.00000  Uiso   1.00
C50    C     0.33692   0.72770   0.81732   0.00000  Uiso   1.00
C51    C     0.34213   0.85469   0.91228   0.00000  Uiso   1.00
C52    C     0.44140   0.39629   0.77529   0.00000  Uiso   1.00
C53    C     0.51382   0.40568   0.79192   0.00000  Uiso   1.00
C54    C     0.60541   0.32898   0.88002   0.00000  Uiso   1.00
C55    C     0.76598   0.22516   0.01121   0.00000  Uiso   1.00
C56    C     0.24907   0.36781   0.61186   0.00000  Uiso   1.00
C57    C     0.15979   0.35322   0.49107   0.00000  Uiso   1.00
C58    C     0.08947   0.25251   0.44157   0.00000  Uiso   1.00
C59    C     0.95141   0.10447   0.31901   0.00000  Uiso   1.00
C60    C     0.37005   0.31835   0.81091   0.00000  Uiso   1.00
C61    C     0.35971   0.46185   0.82082   0.00000  Uiso   1.00
C62    C     0.36706   0.51009   0.88927   0.00000  Uiso   1.00
C63    C     0.35535   0.64449   0.88635   0.00000  Uiso   1.00
C64    C     0.45980   0.31324   0.84420   0.00000  Uiso   1.00
C65    C     0.55130   0.23649   0.93229   0.00000  Uiso   1.00
C66    C     0.62385   0.24577   0.94905   0.00000  Uiso   1.00
C67    C     0.26746   0.28475   0.68077   0.00000  Uiso   1.00
C68    C     0.19727   0.18404   0.63144   0.00000  Uiso   1.00
C69    C     0.10790   0.16930   0.51061   0.00000  Uiso   1.00
H70    H     0.32186   0.53593   0.63039   0.00000  Uiso   1.00
H71    H     0.31536   0.74352   0.69557   0.00000  Uiso   1.00
H72    H     0.49956   0.46996   0.73858   0.00000  Uiso   1.00
H73    H     0.14558   0.41751   0.43778   0.00000  Uiso   1.00
H74    H     0.31629   0.93705   0.79825   0.00000  Uiso   1.00
H75    H     0.70468   0.36019   0.88891   0.00000  Uiso   1.00
H76    H     0.95825   0.24959   0.25461   0.00000  Uiso   1.00
H77    H     0.38438   0.25368   0.86456   0.00000  Uiso   1.00
H78    H     0.38130   0.44579   0.94258   0.00000  Uiso   1.00
H79    H     0.56551   0.17222   0.98559   0.00000  Uiso   1.00
H80    H     0.21153   0.11978   0.68480   0.00000  Uiso   1.00
H81    H     0.36982   0.69539   0.99874   0.00000  Uiso   1.00
H82    H     0.75820   0.11853   0.08940   0.00000  Uiso   1.00
H83    H     0.01178   0.00794   0.45511   0.00000  Uiso   1.00
O84    O     0.33993   0.94769   0.94563   0.00000  Uiso   1.00
O85    O     0.84947   0.19086   0.06455   0.00000  Uiso   1.00
O86    O     0.87018   0.04577   0.23237   0.00000  Uiso   1.00
N87    N     0.32929   0.85381   0.83471   0.00000  Uiso   1.00
N88    N     0.69242   0.31450   0.91948   0.00000  Uiso   1.00
N89    N     0.99458   0.21108   0.32647   0.00000  Uiso   1.00
N90    N     0.35809   0.72378   0.94259   0.00000  Uiso   1.00
N91    N     0.72122   0.18447   0.02736   0.00000  Uiso   1.00
N92    N     0.02339   0.08105   0.43435   0.00000  Uiso   1.00
C93    C     0.16382   0.97127   0.31596   0.00000  Uiso   1.00
C94    C     0.15870   0.04492   0.24809   0.00000  Uiso   1.00
C95    C     0.17042   0.17927   0.25110   0.00000  Uiso   1.00
C96    C     0.16308   0.22770   0.18268   0.00000  Uiso   1.00
C97    C     0.15787   0.35469   0.08772   0.00000  Uiso   1.00
C98    C     0.05860   0.89629   0.22471   0.00000  Uiso   1.00
C99    C     0.98618   0.90568   0.20808   0.00000  Uiso   1.00
C100   C     0.89459   0.82898   0.11998   0.00000  Uiso   1.00
C101   C     0.73402   0.72516   0.98879   0.00000  Uiso   1.00
C102   C     0.25093   0.86781   0.38814   0.00000  Uiso   1.00
C103   C     0.34021   0.85322   0.50893   0.00000  Uiso   1.00
C104   C     0.41053   0.75251   0.55843   0.00000  Uiso   1.00
C105   C     0.54859   0.60447   0.68099   0.00000  Uiso   1.00
C106   C     0.12995   0.81835   0.18909   0.00000  Uiso   1.00
C107   C     0.14029   0.96185   0.17918   0.00000  Uiso   1.00
C108   C     0.13294   0.01009   0.11073   0.00000  Uiso   1.00
C109   C     0.14465   0.14449   0.11365   0.00000  Uiso   1.00
C110   C     0.04020   0.81324   0.15580   0.00000  Uiso   1.00
C111   C     0.94870   0.73649   0.06771   0.00000  Uiso   1.00
C112   C     0.87615   0.74577   0.05095   0.00000  Uiso   1.00
C113   C     0.23254   0.78475   0.31923   0.00000  Uiso   1.00
C114   C     0.30273   0.68404   0.36856   0.00000  Uiso   1.00
C115   C     0.39210   0.66930   0.48939   0.00000  Uiso   1.00
H116   H     0.17814   0.03593   0.36961   0.00000  Uiso   1.00
H117   H     0.18464   0.24352   0.30443   0.00000  Uiso   1.00
H118   H     0.00044   0.96996   0.26142   0.00000  Uiso   1.00
H119   H     0.35442   0.91751   0.56222   0.00000  Uiso   1.00
H120   H     0.18371   0.43705   0.20175   0.00000  Uiso   1.00
H121   H     0.79532   0.86019   0.11109   0.00000  Uiso   1.00
H122   H     0.54175   0.74959   0.74539   0.00000  Uiso   1.00
H123   H     0.11562   0.75368   0.13544   0.00000  Uiso   1.00
H124   H     0.11870   0.94579   0.05742   0.00000  Uiso   1.00
H125   H     0.93449   0.67222   0.01441   0.00000  Uiso   1.00
H126   H     0.28847   0.61978   0.31520   0.00000  Uiso   1.00
H127   H     0.13018   0.19539   0.00126   0.00000  Uiso   1.00
H128   H     0.74180   0.61853   0.91060   0.00000  Uiso   1.00
H129   H     0.48822   0.50794   0.54489   0.00000  Uiso   1.00
O130   O     0.16007   0.44769   0.05437   0.00000  Uiso   1.00
O131   O     0.65053   0.69086   0.93545   0.00000  Uiso   1.00
O132   O     0.62982   0.54577   0.76763   0.00000  Uiso   1.00
N133   N     0.17071   0.35381   0.16529   0.00000  Uiso   1.00
N134   N     0.80758   0.81450   0.08052   0.00000  Uiso   1.00
N135   N     0.50542   0.71108   0.67353   0.00000  Uiso   1.00
N136   N     0.14191   0.22378   0.05741   0.00000  Uiso   1.00
N137   N     0.77878   0.68447   0.97264   0.00000  Uiso   1.00
N138   N     0.47661   0.58105   0.56565   0.00000  Uiso   1.00
C139   C     0.66382   0.47127   0.31596   0.00000  Uiso   1.00
C140   C     0.65870   0.54492   0.24809   0.00000  Uiso   1.00
C141   C     0.67042   0.67927   0.25110   0.00000  Uiso   1.00
C142   C     0.66308   0.72770   0.18268   0.00000  Uiso   1.00
C143   C     0.65787   0.85469   0.08772   0.00000  Uiso   1.00
C144   C     0.55860   0.39629   0.22471   0.00000  Uiso   1.00
C145   C     0.48618   0.40568   0.20808   0.00000  Uiso   1.00
C146   C     0.39459   0.32898   0.11998   0.00000  Uiso   1.00
C147   C     0.23402   0.22516   0.98879   0.00000  Uiso   1.00
C148   C     0.75093   0.36781   0.38814   0.00000  Uiso   1.00
C149   C     0.84021   0.35322   0.50893   0.00000  Uiso   1.00
C150   C     0.91053   0.25251   0.55843   0.00000  Uiso   1.00
C151   C     0.04859   0.10447   0.68099   0.00000  Uiso   1.00
C152   C     0.62995   0.31835   0.18909   0.00000  Uiso   1.00
C153   C     0.64029   0.46185   0.17918   0.00000  Uiso   1.00
C154   C     0.63294   0.51009   0.11073   0.00000  Uiso   1.00
C155   C     0.64465   0.64449   0.11365   0.00000  Uiso   1.00
C156   C     0.54020   0.31324   0.15580   0.00000  Uiso   1.00
C157   C     0.44870   0.23649   0.06771   0.00000  Uiso   1.00
C158   C     0.37615   0.24577   0.05095   0.00000  Uiso   1.00
C159   C     0.73254   0.28475   0.31923   0.00000  Uiso   1.00
C160   C     0.80273   0.18404   0.36856   0.00000  Uiso   1.00
C161   C     0.89210   0.16930   0.48939   0.00000  Uiso   1.00
H162   H     0.67814   0.53593   0.36961   0.00000  Uiso   1.00
H163   H     0.68464   0.74352   0.30443   0.00000  Uiso   1.00
H164   H     0.50044   0.46996   0.26142   0.00000  Uiso   1.00
H165   H     0.85442   0.41751   0.56222   0.00000  Uiso   1.00
H166   H     0.68371   0.93705   0.20175   0.00000  Uiso   1.00
H167   H     0.29532   0.36019   0.11109   0.00000  Uiso   1.00
H168   H     0.04175   0.24959   0.74539   0.00000  Uiso   1.00
H169   H     0.61562   0.25368   0.13544   0.00000  Uiso   1.00
H170   H     0.61870   0.44579   0.05742   0.00000  Uiso   1.00
H171   H     0.43449   0.17222   0.01441   0.00000  Uiso   1.00
H172   H     0.78847   0.11978   0.31520   0.00000  Uiso   1.00
H173   H     0.63018   0.69539   0.00126   0.00000  Uiso   1.00
H174   H     0.24180   0.11853   0.91060   0.00000  Uiso   1.00
H175   H     0.98822   0.00794   0.54489   0.00000  Uiso   1.00
O176   O     0.66007   0.94769   0.05437   0.00000  Uiso   1.00
O177   O     0.15053   0.19086   0.93545   0.00000  Uiso   1.00
O178   O     0.12982   0.04577   0.76763   0.00000  Uiso   1.00
N179   N     0.67071   0.85381   0.16529   0.00000  Uiso   1.00
N180   N     0.30758   0.31450   0.08052   0.00000  Uiso   1.00
N181   N     0.00542   0.21108   0.67353   0.00000  Uiso   1.00
N182   N     0.64191   0.72378   0.05741   0.00000  Uiso   1.00
N183   N     0.27878   0.18447   0.97264   0.00000  Uiso   1.00
N184   N     0.97661   0.08105   0.56565   0.00000  Uiso   1.00
