data_job_03208
_audit_creation_date              2018-12-19
_audit_creation_method            'Materials Studio'
_symmetry_space_group_name_H-M    'P1'
_symmetry_Int_Tables_number       1
_symmetry_cell_setting            triclinic
loop_
_symmetry_equiv_pos_as_xyz
  x,y,z
_cell_length_a                    11.6594
_cell_length_b                    22.0223
_cell_length_c                    21.2693
_cell_angle_alpha                 90.0000
_cell_angle_beta                  90.0000
_cell_angle_gamma                 90.0000
loop_
_atom_site_label
_atom_site_type_symbol
_atom_site_fract_x
_atom_site_fract_y
_atom_site_fract_z
_atom_site_U_iso_or_equiv
_atom_site_adp_type
_atom_site_occupancy
C1     C     0.21335   0.62723   0.14460   0.00000  Uiso   1.00
C2     C     0.20786   0.56038   0.16305   0.00000  Uiso   1.00
C3     C     0.17016   0.53789   0.22039   0.00000  Uiso   1.00
C4     C     0.17177   0.47529   0.22809   0.00000  Uiso   1.00
C5     C     0.15753   0.37738   0.26405   0.00000  Uiso   1.00
C6     C     0.33741   0.63931   0.12565   0.00000  Uiso   1.00
C7     C     0.40861   0.68319   0.15154   0.00000  Uiso   1.00
C8     C     0.51927   0.68704   0.12775   0.00000  Uiso   1.00
C9     C     0.70612   0.71169   0.10561   0.00000  Uiso   1.00
C10    C     0.14269   0.63322   0.08459   0.00000  Uiso   1.00
C11    C     0.05019   0.67199   0.07594   0.00000  Uiso   1.00
C12    C     0.99691   0.67073   0.01757   0.00000  Uiso   1.00
C13    C     0.88144   0.68593   0.93168   0.00000  Uiso   1.00
C14    C     0.28325   0.55605   0.05631   0.00000  Uiso   1.00
C15    C     0.24584   0.52172   0.11510   0.00000  Uiso   1.00
C16    C     0.24750   0.45914   0.12271   0.00000  Uiso   1.00
C17    C     0.20980   0.43656   0.18005   0.00000  Uiso   1.00
C18    C     0.37538   0.60065   0.07770   0.00000  Uiso   1.00
C19    C     0.48595   0.60444   0.05386   0.00000  Uiso   1.00
C20    C     0.55731   0.64831   0.07971   0.00000  Uiso   1.00
C21    C     0.18065   0.59456   0.03663   0.00000  Uiso   1.00
C22    C     0.12752   0.59324   0.97826   0.00000  Uiso   1.00
C23    C     0.03495   0.63200   0.96953   0.00000  Uiso   1.00
H24    H     0.18380   0.65733   0.18193   0.00000  Uiso   1.00
H25    H     0.14079   0.56783   0.25749   0.00000  Uiso   1.00
H26    H     0.37920   0.71310   0.18864   0.00000  Uiso   1.00
H27    H     0.02083   0.70191   0.11306   0.00000  Uiso   1.00
H28    H     0.10990   0.45154   0.32013   0.00000  Uiso   1.00
H29    H     0.61259   0.75788   0.17494   0.00000  Uiso   1.00
H30    H     0.85689   0.73427   0.01556   0.00000  Uiso   1.00
H31    H     0.31281   0.52595   0.01897   0.00000  Uiso   1.00
H32    H     0.27688   0.42923   0.08559   0.00000  Uiso   1.00
H33    H     0.51530   0.57451   0.01675   0.00000  Uiso   1.00
H34    H     0.15693   0.56331   0.94116   0.00000  Uiso   1.00
H35    H     0.22036   0.33906   0.18061   0.00000  Uiso   1.00
H36    H     0.72305   0.64540   0.03542   0.00000  Uiso   1.00
H37    H     0.96735   0.62179   0.87604   0.00000  Uiso   1.00
O38    O     0.13920   0.33405   0.29714   0.00000  Uiso   1.00
O39    O     0.79870   0.73596   0.10666   0.00000  Uiso   1.00
O40    O     0.80724   0.70498   0.89755   0.00000  Uiso   1.00
N41    N     0.14080   0.43834   0.27814   0.00000  Uiso   1.00
N42    N     0.61080   0.72475   0.14241   0.00000  Uiso   1.00
N43    N     0.90430   0.70268   0.99340   0.00000  Uiso   1.00
N44    N     0.20024   0.37781   0.20307   0.00000  Uiso   1.00
N45    N     0.67024   0.66422   0.06734   0.00000  Uiso   1.00
N46    N     0.96374   0.64216   0.91832   0.00000  Uiso   1.00
C47    C     0.28665   0.87277   0.64460   0.00000  Uiso   1.00
C48    C     0.29214   0.93962   0.66305   0.00000  Uiso   1.00
C49    C     0.32984   0.96211   0.72039   0.00000  Uiso   1.00
C50    C     0.32823   0.02471   0.72809   0.00000  Uiso   1.00
C51    C     0.34247   0.12262   0.76405   0.00000  Uiso   1.00
C52    C     0.16259   0.86069   0.62565   0.00000  Uiso   1.00
C53    C     0.09139   0.81681   0.65154   0.00000  Uiso   1.00
C54    C     0.98073   0.81296   0.62775   0.00000  Uiso   1.00
C55    C     0.79388   0.78831   0.60561   0.00000  Uiso   1.00
C56    C     0.35731   0.86678   0.58459   0.00000  Uiso   1.00
C57    C     0.44981   0.82801   0.57594   0.00000  Uiso   1.00
C58    C     0.50309   0.82927   0.51757   0.00000  Uiso   1.00
C59    C     0.61856   0.81407   0.43168   0.00000  Uiso   1.00
C60    C     0.21675   0.94395   0.55631   0.00000  Uiso   1.00
C61    C     0.25416   0.97828   0.61510   0.00000  Uiso   1.00
C62    C     0.25250   0.04086   0.62271   0.00000  Uiso   1.00
C63    C     0.29020   0.06344   0.68005   0.00000  Uiso   1.00
C64    C     0.12462   0.89935   0.57770   0.00000  Uiso   1.00
C65    C     0.01405   0.89556   0.55386   0.00000  Uiso   1.00
C66    C     0.94269   0.85169   0.57971   0.00000  Uiso   1.00
C67    C     0.31935   0.90544   0.53663   0.00000  Uiso   1.00
C68    C     0.37248   0.90676   0.47826   0.00000  Uiso   1.00
C69    C     0.46505   0.86800   0.46953   0.00000  Uiso   1.00
H70    H     0.31620   0.84267   0.68193   0.00000  Uiso   1.00
H71    H     0.35921   0.93217   0.75749   0.00000  Uiso   1.00
H72    H     0.12080   0.78690   0.68864   0.00000  Uiso   1.00
H73    H     0.47917   0.79809   0.61306   0.00000  Uiso   1.00
H74    H     0.39010   0.04846   0.82013   0.00000  Uiso   1.00
H75    H     0.88741   0.74212   0.67494   0.00000  Uiso   1.00
H76    H     0.64311   0.76573   0.51556   0.00000  Uiso   1.00
H77    H     0.18719   0.97405   0.51897   0.00000  Uiso   1.00
H78    H     0.22312   0.07077   0.58559   0.00000  Uiso   1.00
H79    H     0.98470   0.92549   0.51675   0.00000  Uiso   1.00
H80    H     0.34307   0.93669   0.44116   0.00000  Uiso   1.00
H81    H     0.27964   0.16094   0.68061   0.00000  Uiso   1.00
H82    H     0.77695   0.85460   0.53542   0.00000  Uiso   1.00
H83    H     0.53265   0.87821   0.37604   0.00000  Uiso   1.00
O84    O     0.36080   0.16595   0.79714   0.00000  Uiso   1.00
O85    O     0.70130   0.76404   0.60666   0.00000  Uiso   1.00
O86    O     0.69276   0.79502   0.39755   0.00000  Uiso   1.00
N87    N     0.35920   0.06166   0.77814   0.00000  Uiso   1.00
N88    N     0.88920   0.77525   0.64241   0.00000  Uiso   1.00
N89    N     0.59570   0.79732   0.49340   0.00000  Uiso   1.00
N90    N     0.29976   0.12219   0.70307   0.00000  Uiso   1.00
N91    N     0.82976   0.83578   0.56734   0.00000  Uiso   1.00
N92    N     0.53626   0.85784   0.41832   0.00000  Uiso   1.00
C93    C     0.78665   0.62723   0.35540   0.00000  Uiso   1.00
C94    C     0.79214   0.56038   0.33695   0.00000  Uiso   1.00
C95    C     0.82984   0.53789   0.27961   0.00000  Uiso   1.00
C96    C     0.82823   0.47529   0.27191   0.00000  Uiso   1.00
C97    C     0.84247   0.37738   0.23595   0.00000  Uiso   1.00
C98    C     0.66259   0.63931   0.37435   0.00000  Uiso   1.00
C99    C     0.59139   0.68319   0.34846   0.00000  Uiso   1.00
C100   C     0.48073   0.68704   0.37225   0.00000  Uiso   1.00
C101   C     0.29388   0.71169   0.39439   0.00000  Uiso   1.00
C102   C     0.85731   0.63322   0.41541   0.00000  Uiso   1.00
C103   C     0.94981   0.67199   0.42406   0.00000  Uiso   1.00
C104   C     0.00309   0.67073   0.48243   0.00000  Uiso   1.00
C105   C     0.11856   0.68593   0.56832   0.00000  Uiso   1.00
C106   C     0.71675   0.55605   0.44369   0.00000  Uiso   1.00
C107   C     0.75416   0.52172   0.38490   0.00000  Uiso   1.00
C108   C     0.75250   0.45914   0.37729   0.00000  Uiso   1.00
C109   C     0.79020   0.43656   0.31995   0.00000  Uiso   1.00
C110   C     0.62462   0.60065   0.42230   0.00000  Uiso   1.00
C111   C     0.51405   0.60444   0.44614   0.00000  Uiso   1.00
C112   C     0.44269   0.64831   0.42029   0.00000  Uiso   1.00
C113   C     0.81935   0.59456   0.46337   0.00000  Uiso   1.00
C114   C     0.87248   0.59324   0.52174   0.00000  Uiso   1.00
C115   C     0.96505   0.63200   0.53047   0.00000  Uiso   1.00
H116   H     0.81620   0.65733   0.31807   0.00000  Uiso   1.00
H117   H     0.85921   0.56783   0.24251   0.00000  Uiso   1.00
H118   H     0.62080   0.71310   0.31136   0.00000  Uiso   1.00
H119   H     0.97917   0.70191   0.38694   0.00000  Uiso   1.00
H120   H     0.89010   0.45154   0.17987   0.00000  Uiso   1.00
H121   H     0.38741   0.75788   0.32506   0.00000  Uiso   1.00
H122   H     0.14311   0.73427   0.48444   0.00000  Uiso   1.00
H123   H     0.68719   0.52595   0.48103   0.00000  Uiso   1.00
H124   H     0.72312   0.42923   0.41441   0.00000  Uiso   1.00
H125   H     0.48470   0.57451   0.48325   0.00000  Uiso   1.00
H126   H     0.84307   0.56331   0.55884   0.00000  Uiso   1.00
H127   H     0.77964   0.33906   0.31939   0.00000  Uiso   1.00
H128   H     0.27695   0.64540   0.46458   0.00000  Uiso   1.00
H129   H     0.03265   0.62179   0.62396   0.00000  Uiso   1.00
O130   O     0.86080   0.33405   0.20286   0.00000  Uiso   1.00
O131   O     0.20130   0.73596   0.39334   0.00000  Uiso   1.00
O132   O     0.19276   0.70498   0.60245   0.00000  Uiso   1.00
N133   N     0.85920   0.43834   0.22186   0.00000  Uiso   1.00
N134   N     0.38920   0.72475   0.35759   0.00000  Uiso   1.00
N135   N     0.09570   0.70268   0.50660   0.00000  Uiso   1.00
N136   N     0.79976   0.37781   0.29693   0.00000  Uiso   1.00
N137   N     0.32976   0.66422   0.43266   0.00000  Uiso   1.00
N138   N     0.03626   0.64216   0.58168   0.00000  Uiso   1.00
C139   C     0.71335   0.87277   0.85540   0.00000  Uiso   1.00
C140   C     0.70786   0.93962   0.83695   0.00000  Uiso   1.00
C141   C     0.67016   0.96211   0.77961   0.00000  Uiso   1.00
C142   C     0.67177   0.02471   0.77191   0.00000  Uiso   1.00
C143   C     0.65753   0.12262   0.73595   0.00000  Uiso   1.00
C144   C     0.83741   0.86069   0.87435   0.00000  Uiso   1.00
C145   C     0.90861   0.81681   0.84846   0.00000  Uiso   1.00
C146   C     0.01927   0.81296   0.87225   0.00000  Uiso   1.00
C147   C     0.20612   0.78831   0.89439   0.00000  Uiso   1.00
C148   C     0.64269   0.86678   0.91541   0.00000  Uiso   1.00
C149   C     0.55019   0.82801   0.92406   0.00000  Uiso   1.00
C150   C     0.49691   0.82927   0.98243   0.00000  Uiso   1.00
C151   C     0.38144   0.81407   0.06832   0.00000  Uiso   1.00
C152   C     0.78325   0.94395   0.94369   0.00000  Uiso   1.00
C153   C     0.74584   0.97828   0.88490   0.00000  Uiso   1.00
C154   C     0.74750   0.04086   0.87729   0.00000  Uiso   1.00
C155   C     0.70980   0.06344   0.81995   0.00000  Uiso   1.00
C156   C     0.87538   0.89935   0.92230   0.00000  Uiso   1.00
C157   C     0.98595   0.89556   0.94614   0.00000  Uiso   1.00
C158   C     0.05731   0.85169   0.92029   0.00000  Uiso   1.00
C159   C     0.68065   0.90544   0.96337   0.00000  Uiso   1.00
C160   C     0.62752   0.90676   0.02174   0.00000  Uiso   1.00
C161   C     0.53495   0.86800   0.03047   0.00000  Uiso   1.00
H162   H     0.68380   0.84267   0.81807   0.00000  Uiso   1.00
H163   H     0.64079   0.93217   0.74251   0.00000  Uiso   1.00
H164   H     0.87920   0.78690   0.81136   0.00000  Uiso   1.00
H165   H     0.52083   0.79809   0.88694   0.00000  Uiso   1.00
H166   H     0.60990   0.04846   0.67987   0.00000  Uiso   1.00
H167   H     0.11259   0.74212   0.82506   0.00000  Uiso   1.00
H168   H     0.35689   0.76573   0.98444   0.00000  Uiso   1.00
H169   H     0.81281   0.97405   0.98103   0.00000  Uiso   1.00
H170   H     0.77688   0.07077   0.91441   0.00000  Uiso   1.00
H171   H     0.01530   0.92549   0.98325   0.00000  Uiso   1.00
H172   H     0.65693   0.93669   0.05884   0.00000  Uiso   1.00
H173   H     0.72036   0.16094   0.81939   0.00000  Uiso   1.00
H174   H     0.22305   0.85460   0.96458   0.00000  Uiso   1.00
H175   H     0.46735   0.87821   0.12396   0.00000  Uiso   1.00
O176   O     0.63920   0.16595   0.70286   0.00000  Uiso   1.00
O177   O     0.29870   0.76404   0.89334   0.00000  Uiso   1.00
O178   O     0.30724   0.79502   0.10245   0.00000  Uiso   1.00
N179   N     0.64080   0.06166   0.72186   0.00000  Uiso   1.00
N180   N     0.11080   0.77525   0.85759   0.00000  Uiso   1.00
N181   N     0.40430   0.79732   0.00660   0.00000  Uiso   1.00
N182   N     0.70024   0.12219   0.79693   0.00000  Uiso   1.00
N183   N     0.17024   0.83578   0.93266   0.00000  Uiso   1.00
N184   N     0.46374   0.85784   0.08168   0.00000  Uiso   1.00
C185   C     0.78665   0.37277   0.85540   0.00000  Uiso   1.00
C186   C     0.79214   0.43962   0.83695   0.00000  Uiso   1.00
C187   C     0.82984   0.46211   0.77961   0.00000  Uiso   1.00
C188   C     0.82823   0.52471   0.77191   0.00000  Uiso   1.00
C189   C     0.84247   0.62262   0.73595   0.00000  Uiso   1.00
C190   C     0.66259   0.36069   0.87435   0.00000  Uiso   1.00
C191   C     0.59139   0.31681   0.84846   0.00000  Uiso   1.00
C192   C     0.48073   0.31296   0.87225   0.00000  Uiso   1.00
C193   C     0.29388   0.28831   0.89439   0.00000  Uiso   1.00
C194   C     0.85731   0.36678   0.91541   0.00000  Uiso   1.00
C195   C     0.94981   0.32801   0.92406   0.00000  Uiso   1.00
C196   C     0.00309   0.32927   0.98243   0.00000  Uiso   1.00
C197   C     0.11856   0.31407   0.06832   0.00000  Uiso   1.00
C198   C     0.71675   0.44395   0.94369   0.00000  Uiso   1.00
C199   C     0.75416   0.47828   0.88490   0.00000  Uiso   1.00
C200   C     0.75250   0.54086   0.87729   0.00000  Uiso   1.00
C201   C     0.79020   0.56344   0.81995   0.00000  Uiso   1.00
C202   C     0.62462   0.39935   0.92230   0.00000  Uiso   1.00
C203   C     0.51405   0.39556   0.94614   0.00000  Uiso   1.00
C204   C     0.44269   0.35169   0.92029   0.00000  Uiso   1.00
C205   C     0.81935   0.40544   0.96337   0.00000  Uiso   1.00
C206   C     0.87248   0.40676   0.02174   0.00000  Uiso   1.00
C207   C     0.96505   0.36800   0.03047   0.00000  Uiso   1.00
H208   H     0.81620   0.34267   0.81807   0.00000  Uiso   1.00
H209   H     0.85921   0.43217   0.74251   0.00000  Uiso   1.00
H210   H     0.62080   0.28690   0.81136   0.00000  Uiso   1.00
H211   H     0.97917   0.29809   0.88694   0.00000  Uiso   1.00
H212   H     0.89010   0.54846   0.67987   0.00000  Uiso   1.00
H213   H     0.38741   0.24212   0.82506   0.00000  Uiso   1.00
H214   H     0.14311   0.26573   0.98444   0.00000  Uiso   1.00
H215   H     0.68719   0.47405   0.98103   0.00000  Uiso   1.00
H216   H     0.72312   0.57077   0.91441   0.00000  Uiso   1.00
H217   H     0.48470   0.42549   0.98325   0.00000  Uiso   1.00
H218   H     0.84307   0.43669   0.05884   0.00000  Uiso   1.00
H219   H     0.77964   0.66094   0.81939   0.00000  Uiso   1.00
H220   H     0.27695   0.35460   0.96458   0.00000  Uiso   1.00
H221   H     0.03265   0.37821   0.12396   0.00000  Uiso   1.00
O222   O     0.86080   0.66595   0.70286   0.00000  Uiso   1.00
O223   O     0.20130   0.26404   0.89334   0.00000  Uiso   1.00
O224   O     0.19276   0.29502   0.10245   0.00000  Uiso   1.00
N225   N     0.85920   0.56166   0.72186   0.00000  Uiso   1.00
N226   N     0.38920   0.27525   0.85759   0.00000  Uiso   1.00
N227   N     0.09570   0.29732   0.00660   0.00000  Uiso   1.00
N228   N     0.79976   0.62219   0.79693   0.00000  Uiso   1.00
N229   N     0.32976   0.33578   0.93266   0.00000  Uiso   1.00
N230   N     0.03626   0.35784   0.08168   0.00000  Uiso   1.00
C231   C     0.71335   0.12723   0.35540   0.00000  Uiso   1.00
C232   C     0.70786   0.06038   0.33695   0.00000  Uiso   1.00
C233   C     0.67016   0.03789   0.27961   0.00000  Uiso   1.00
C234   C     0.67177   0.97529   0.27191   0.00000  Uiso   1.00
C235   C     0.65753   0.87738   0.23595   0.00000  Uiso   1.00
C236   C     0.83741   0.13931   0.37435   0.00000  Uiso   1.00
C237   C     0.90861   0.18319   0.34846   0.00000  Uiso   1.00
C238   C     0.01927   0.18704   0.37225   0.00000  Uiso   1.00
C239   C     0.20612   0.21169   0.39439   0.00000  Uiso   1.00
C240   C     0.64269   0.13322   0.41541   0.00000  Uiso   1.00
C241   C     0.55019   0.17199   0.42406   0.00000  Uiso   1.00
C242   C     0.49691   0.17073   0.48243   0.00000  Uiso   1.00
C243   C     0.38144   0.18593   0.56832   0.00000  Uiso   1.00
C244   C     0.78325   0.05605   0.44369   0.00000  Uiso   1.00
C245   C     0.74584   0.02172   0.38490   0.00000  Uiso   1.00
C246   C     0.74750   0.95914   0.37729   0.00000  Uiso   1.00
C247   C     0.70980   0.93656   0.31995   0.00000  Uiso   1.00
C248   C     0.87538   0.10065   0.42230   0.00000  Uiso   1.00
C249   C     0.98595   0.10444   0.44614   0.00000  Uiso   1.00
C250   C     0.05731   0.14831   0.42029   0.00000  Uiso   1.00
C251   C     0.68065   0.09456   0.46337   0.00000  Uiso   1.00
C252   C     0.62752   0.09324   0.52174   0.00000  Uiso   1.00
C253   C     0.53495   0.13200   0.53047   0.00000  Uiso   1.00
H254   H     0.68380   0.15733   0.31807   0.00000  Uiso   1.00
H255   H     0.64079   0.06783   0.24251   0.00000  Uiso   1.00
H256   H     0.87920   0.21310   0.31136   0.00000  Uiso   1.00
H257   H     0.52083   0.20191   0.38694   0.00000  Uiso   1.00
H258   H     0.60990   0.95154   0.17987   0.00000  Uiso   1.00
H259   H     0.11259   0.25788   0.32506   0.00000  Uiso   1.00
H260   H     0.35689   0.23427   0.48444   0.00000  Uiso   1.00
H261   H     0.81281   0.02595   0.48103   0.00000  Uiso   1.00
H262   H     0.77688   0.92923   0.41441   0.00000  Uiso   1.00
H263   H     0.01530   0.07451   0.48325   0.00000  Uiso   1.00
H264   H     0.65693   0.06331   0.55884   0.00000  Uiso   1.00
H265   H     0.72036   0.83906   0.31939   0.00000  Uiso   1.00
H266   H     0.22305   0.14540   0.46458   0.00000  Uiso   1.00
H267   H     0.46735   0.12179   0.62396   0.00000  Uiso   1.00
O268   O     0.63920   0.83405   0.20286   0.00000  Uiso   1.00
O269   O     0.29870   0.23596   0.39334   0.00000  Uiso   1.00
O270   O     0.30724   0.20498   0.60245   0.00000  Uiso   1.00
N271   N     0.64080   0.93834   0.22186   0.00000  Uiso   1.00
N272   N     0.11080   0.22475   0.35759   0.00000  Uiso   1.00
N273   N     0.40430   0.20268   0.50660   0.00000  Uiso   1.00
N274   N     0.70024   0.87781   0.29693   0.00000  Uiso   1.00
N275   N     0.17024   0.16422   0.43266   0.00000  Uiso   1.00
N276   N     0.46374   0.14216   0.58168   0.00000  Uiso   1.00
C277   C     0.21335   0.37277   0.64460   0.00000  Uiso   1.00
C278   C     0.20786   0.43962   0.66305   0.00000  Uiso   1.00
C279   C     0.17016   0.46211   0.72039   0.00000  Uiso   1.00
C280   C     0.17177   0.52471   0.72809   0.00000  Uiso   1.00
C281   C     0.15753   0.62262   0.76405   0.00000  Uiso   1.00
C282   C     0.33741   0.36069   0.62565   0.00000  Uiso   1.00
C283   C     0.40861   0.31681   0.65154   0.00000  Uiso   1.00
C284   C     0.51927   0.31296   0.62775   0.00000  Uiso   1.00
C285   C     0.70612   0.28831   0.60561   0.00000  Uiso   1.00
C286   C     0.14269   0.36678   0.58459   0.00000  Uiso   1.00
C287   C     0.05019   0.32801   0.57594   0.00000  Uiso   1.00
C288   C     0.99691   0.32927   0.51757   0.00000  Uiso   1.00
C289   C     0.88144   0.31407   0.43168   0.00000  Uiso   1.00
C290   C     0.28325   0.44395   0.55631   0.00000  Uiso   1.00
C291   C     0.24584   0.47828   0.61510   0.00000  Uiso   1.00
C292   C     0.24750   0.54086   0.62271   0.00000  Uiso   1.00
C293   C     0.20980   0.56344   0.68005   0.00000  Uiso   1.00
C294   C     0.37538   0.39935   0.57770   0.00000  Uiso   1.00
C295   C     0.48595   0.39556   0.55386   0.00000  Uiso   1.00
C296   C     0.55731   0.35169   0.57971   0.00000  Uiso   1.00
C297   C     0.18065   0.40544   0.53663   0.00000  Uiso   1.00
C298   C     0.12752   0.40676   0.47826   0.00000  Uiso   1.00
C299   C     0.03495   0.36800   0.46953   0.00000  Uiso   1.00
H300   H     0.18380   0.34267   0.68193   0.00000  Uiso   1.00
H301   H     0.14079   0.43217   0.75749   0.00000  Uiso   1.00
H302   H     0.37920   0.28690   0.68864   0.00000  Uiso   1.00
H303   H     0.02083   0.29809   0.61306   0.00000  Uiso   1.00
H304   H     0.10990   0.54846   0.82013   0.00000  Uiso   1.00
H305   H     0.61259   0.24212   0.67494   0.00000  Uiso   1.00
H306   H     0.85689   0.26573   0.51556   0.00000  Uiso   1.00
H307   H     0.31281   0.47405   0.51897   0.00000  Uiso   1.00
H308   H     0.27688   0.57077   0.58559   0.00000  Uiso   1.00
H309   H     0.51530   0.42549   0.51675   0.00000  Uiso   1.00
H310   H     0.15693   0.43669   0.44116   0.00000  Uiso   1.00
H311   H     0.22036   0.66094   0.68061   0.00000  Uiso   1.00
H312   H     0.72305   0.35460   0.53542   0.00000  Uiso   1.00
H313   H     0.96735   0.37821   0.37604   0.00000  Uiso   1.00
O314   O     0.13920   0.66595   0.79714   0.00000  Uiso   1.00
O315   O     0.79870   0.26404   0.60666   0.00000  Uiso   1.00
O316   O     0.80724   0.29502   0.39755   0.00000  Uiso   1.00
N317   N     0.14080   0.56166   0.77814   0.00000  Uiso   1.00
N318   N     0.61080   0.27525   0.64241   0.00000  Uiso   1.00
N319   N     0.90430   0.29732   0.49340   0.00000  Uiso   1.00
N320   N     0.20024   0.62219   0.70307   0.00000  Uiso   1.00
N321   N     0.67024   0.33578   0.56734   0.00000  Uiso   1.00
N322   N     0.96374   0.35784   0.41832   0.00000  Uiso   1.00
C323   C     0.28665   0.12723   0.14460   0.00000  Uiso   1.00
C324   C     0.29214   0.06038   0.16305   0.00000  Uiso   1.00
C325   C     0.32984   0.03789   0.22039   0.00000  Uiso   1.00
C326   C     0.32823   0.97529   0.22809   0.00000  Uiso   1.00
C327   C     0.34247   0.87738   0.26405   0.00000  Uiso   1.00
C328   C     0.16259   0.13931   0.12565   0.00000  Uiso   1.00
C329   C     0.09139   0.18319   0.15154   0.00000  Uiso   1.00
C330   C     0.98073   0.18704   0.12775   0.00000  Uiso   1.00
C331   C     0.79388   0.21169   0.10561   0.00000  Uiso   1.00
C332   C     0.35731   0.13322   0.08459   0.00000  Uiso   1.00
C333   C     0.44981   0.17199   0.07594   0.00000  Uiso   1.00
C334   C     0.50309   0.17073   0.01757   0.00000  Uiso   1.00
C335   C     0.61856   0.18593   0.93168   0.00000  Uiso   1.00
C336   C     0.21675   0.05605   0.05631   0.00000  Uiso   1.00
C337   C     0.25416   0.02172   0.11510   0.00000  Uiso   1.00
C338   C     0.25250   0.95914   0.12271   0.00000  Uiso   1.00
C339   C     0.29020   0.93656   0.18005   0.00000  Uiso   1.00
C340   C     0.12462   0.10065   0.07770   0.00000  Uiso   1.00
C341   C     0.01405   0.10444   0.05386   0.00000  Uiso   1.00
C342   C     0.94269   0.14831   0.07971   0.00000  Uiso   1.00
C343   C     0.31935   0.09456   0.03663   0.00000  Uiso   1.00
C344   C     0.37248   0.09324   0.97826   0.00000  Uiso   1.00
C345   C     0.46505   0.13200   0.96953   0.00000  Uiso   1.00
H346   H     0.31620   0.15733   0.18193   0.00000  Uiso   1.00
H347   H     0.35921   0.06783   0.25749   0.00000  Uiso   1.00
H348   H     0.12080   0.21310   0.18864   0.00000  Uiso   1.00
H349   H     0.47917   0.20191   0.11306   0.00000  Uiso   1.00
H350   H     0.39010   0.95154   0.32013   0.00000  Uiso   1.00
H351   H     0.88741   0.25788   0.17494   0.00000  Uiso   1.00
H352   H     0.64311   0.23427   0.01556   0.00000  Uiso   1.00
H353   H     0.18719   0.02595   0.01897   0.00000  Uiso   1.00
H354   H     0.22312   0.92923   0.08559   0.00000  Uiso   1.00
H355   H     0.98470   0.07451   0.01675   0.00000  Uiso   1.00
H356   H     0.34307   0.06331   0.94116   0.00000  Uiso   1.00
H357   H     0.27964   0.83906   0.18061   0.00000  Uiso   1.00
H358   H     0.77695   0.14540   0.03542   0.00000  Uiso   1.00
H359   H     0.53265   0.12179   0.87604   0.00000  Uiso   1.00
O360   O     0.36080   0.83405   0.29714   0.00000  Uiso   1.00
O361   O     0.70130   0.23596   0.10666   0.00000  Uiso   1.00
O362   O     0.69276   0.20498   0.89755   0.00000  Uiso   1.00
N363   N     0.35920   0.93834   0.27814   0.00000  Uiso   1.00
N364   N     0.88920   0.22475   0.14241   0.00000  Uiso   1.00
N365   N     0.59570   0.20268   0.99340   0.00000  Uiso   1.00
N366   N     0.29976   0.87781   0.20307   0.00000  Uiso   1.00
N367   N     0.82976   0.16422   0.06734   0.00000  Uiso   1.00
N368   N     0.53626   0.14216   0.91832   0.00000  Uiso   1.00
