data_job_00785
_audit_creation_date              2018-12-19
_audit_creation_method            'Materials Studio'
_symmetry_space_group_name_H-M    'P1'
_symmetry_Int_Tables_number       1
_symmetry_cell_setting            triclinic
loop_
_symmetry_equiv_pos_as_xyz
  x,y,z
_cell_length_a                    9.6945
_cell_length_b                    14.5609
_cell_length_c                    32.1938
_cell_angle_alpha                 90.0000
_cell_angle_beta                  90.0000
_cell_angle_gamma                 90.0000
loop_
_atom_site_label
_atom_site_type_symbol
_atom_site_fract_x
_atom_site_fract_y
_atom_site_fract_z
_atom_site_U_iso_or_equiv
_atom_site_adp_type
_atom_site_occupancy
C1     C     0.18514   0.41116   0.58733   0.00000  Uiso   1.00
C2     C     0.13987   0.51098   0.58294   0.00000  Uiso   1.00
C3     C     0.05000   0.54489   0.55310   0.00000  Uiso   1.00
C4     C     0.02162   0.63831   0.55430   0.00000  Uiso   1.00
C5     C     0.94235   0.78460   0.54290   0.00000  Uiso   1.00
C6     C     0.34229   0.41196   0.58531   0.00000  Uiso   1.00
C7     C     0.42260   0.36261   0.55747   0.00000  Uiso   1.00
C8     C     0.56463   0.37267   0.56067   0.00000  Uiso   1.00
C9     C     0.79961   0.36517   0.55298   0.00000  Uiso   1.00
C10    C     0.14825   0.38290   0.63157   0.00000  Uiso   1.00
C11    C     0.06545   0.30909   0.64262   0.00000  Uiso   1.00
C12    C     0.04413   0.29467   0.68477   0.00000  Uiso   1.00
C13    C     0.97784   0.24205   0.74890   0.00000  Uiso   1.00
C14    C     0.29456   0.51677   0.64253   0.00000  Uiso   1.00
C15    C     0.19931   0.56835   0.61292   0.00000  Uiso   1.00
C16    C     0.17106   0.66174   0.61417   0.00000  Uiso   1.00
C17    C     0.08116   0.69578   0.58433   0.00000  Uiso   1.00
C18    C     0.40173   0.46933   0.61529   0.00000  Uiso   1.00
C19    C     0.54367   0.47946   0.61854   0.00000  Uiso   1.00
C20    C     0.62417   0.43013   0.59071   0.00000  Uiso   1.00
C21    C     0.20769   0.44027   0.66155   0.00000  Uiso   1.00
C22    C     0.18651   0.42595   0.70369   0.00000  Uiso   1.00
C23    C     0.10368   0.35214   0.71480   0.00000  Uiso   1.00
H24    H     0.13888   0.36649   0.56399   0.00000  Uiso   1.00
H25    H     0.00403   0.50048   0.52990   0.00000  Uiso   1.00
H26    H     0.37658   0.31821   0.53428   0.00000  Uiso   1.00
H27    H     0.01947   0.26472   0.61941   0.00000  Uiso   1.00
H28    H     0.88079   0.67433   0.50532   0.00000  Uiso   1.00
H29    H     0.66632   0.28999   0.51455   0.00000  Uiso   1.00
H30    H     0.91329   0.17717   0.69408   0.00000  Uiso   1.00
H31    H     0.34084   0.56143   0.66587   0.00000  Uiso   1.00
H32    H     0.21707   0.70612   0.63737   0.00000  Uiso   1.00
H33    H     0.58962   0.52385   0.64174   0.00000  Uiso   1.00
H34    H     0.23252   0.47035   0.72688   0.00000  Uiso   1.00
H35    H     0.05370   0.84123   0.59254   0.00000  Uiso   1.00
H36    H     0.83924   0.45689   0.60177   0.00000  Uiso   1.00
H37    H     0.08621   0.34408   0.78130   0.00000  Uiso   1.00
O38    O     0.88222   0.84945   0.52833   0.00000  Uiso   1.00
O39    O     0.91281   0.34519   0.54045   0.00000  Uiso   1.00
O40    O     0.92485   0.19719   0.77599   0.00000  Uiso   1.00
N41    N     0.93844   0.69375   0.52976   0.00000  Uiso   1.00
N42    N     0.67287   0.33443   0.53839   0.00000  Uiso   1.00
N43    N     0.96888   0.22894   0.70623   0.00000  Uiso   1.00
N44    N     0.03149   0.78356   0.57669   0.00000  Uiso   1.00
N45    N     0.76592   0.42424   0.58532   0.00000  Uiso   1.00
N46    N     0.06193   0.31875   0.75317   0.00000  Uiso   1.00
C47    C     0.02870   0.58642   0.90493   0.00000  Uiso   1.00
C48    C     0.98411   0.48657   0.90982   0.00000  Uiso   1.00
C49    C     0.89554   0.45297   0.94009   0.00000  Uiso   1.00
C50    C     0.86760   0.35947   0.93931   0.00000  Uiso   1.00
C51    C     0.78951   0.21320   0.95147   0.00000  Uiso   1.00
C52    C     0.18592   0.58599   0.90641   0.00000  Uiso   1.00
C53    C     0.26703   0.63599   0.93381   0.00000  Uiso   1.00
C54    C     0.40897   0.62619   0.93015   0.00000  Uiso   1.00
C55    C     0.64420   0.63433   0.93701   0.00000  Uiso   1.00
C56    C     0.98999   0.61385   0.86073   0.00000  Uiso   1.00
C57    C     0.90640   0.68729   0.84971   0.00000  Uiso   1.00
C58    C     0.88341   0.70096   0.80759   0.00000  Uiso   1.00
C59    C     0.81443   0.75236   0.74352   0.00000  Uiso   1.00
C60    C     0.13656   0.48013   0.84973   0.00000  Uiso   1.00
C61    C     0.04270   0.42884   0.87984   0.00000  Uiso   1.00
C62    C     0.01488   0.33536   0.87901   0.00000  Uiso   1.00
C63    C     0.92628   0.30163   0.90927   0.00000  Uiso   1.00
C64    C     0.24451   0.52826   0.87643   0.00000  Uiso   1.00
C65    C     0.38636   0.51839   0.87273   0.00000  Uiso   1.00
C66    C     0.46767   0.56835   0.90011   0.00000  Uiso   1.00
C67    C     0.04857   0.55612   0.83074   0.00000  Uiso   1.00
C68    C     0.02573   0.56968   0.78863   0.00000  Uiso   1.00
C69    C     0.94210   0.64312   0.77755   0.00000  Uiso   1.00
H70    H     0.98310   0.63137   0.92828   0.00000  Uiso   1.00
H71    H     0.85024   0.49767   0.96329   0.00000  Uiso   1.00
H72    H     0.22167   0.68067   0.95700   0.00000  Uiso   1.00
H73    H     0.86108   0.73196   0.87292   0.00000  Uiso   1.00
H74    H     0.72881   0.32397   0.98889   0.00000  Uiso   1.00
H75    H     0.51199   0.70986   0.97563   0.00000  Uiso   1.00
H76    H     0.75163   0.81801   0.79833   0.00000  Uiso   1.00
H77    H     0.18217   0.43518   0.82638   0.00000  Uiso   1.00
H78    H     0.06023   0.29070   0.85580   0.00000  Uiso   1.00
H79    H     0.43166   0.47371   0.84952   0.00000  Uiso   1.00
H80    H     0.07108   0.52499   0.76544   0.00000  Uiso   1.00
H81    H     0.89926   0.15599   0.90165   0.00000  Uiso   1.00
H82    H     0.68244   0.54188   0.88839   0.00000  Uiso   1.00
H83    H     0.92208   0.65002   0.71109   0.00000  Uiso   1.00
O84    O     0.73026   0.14848   0.96647   0.00000  Uiso   1.00
O85    O     0.75776   0.65477   0.94907   0.00000  Uiso   1.00
O86    O     0.76018   0.79664   0.71646   0.00000  Uiso   1.00
N87    N     0.78564   0.30427   0.96432   0.00000  Uiso   1.00
N88    N     0.51786   0.66504   0.95193   0.00000  Uiso   1.00
N89    N     0.80702   0.76616   0.78617   0.00000  Uiso   1.00
N90    N     0.87735   0.21387   0.91737   0.00000  Uiso   1.00
N91    N     0.60958   0.57465   0.90498   0.00000  Uiso   1.00
N92    N     0.89873   0.67577   0.73922   0.00000  Uiso   1.00
C93    C     0.81486   0.58884   0.08733   0.00000  Uiso   1.00
C94    C     0.86013   0.48902   0.08294   0.00000  Uiso   1.00
C95    C     0.95000   0.45511   0.05310   0.00000  Uiso   1.00
C96    C     0.97838   0.36169   0.05430   0.00000  Uiso   1.00
C97    C     0.05765   0.21540   0.04290   0.00000  Uiso   1.00
C98    C     0.65771   0.58804   0.08531   0.00000  Uiso   1.00
C99    C     0.57740   0.63739   0.05747   0.00000  Uiso   1.00
C100   C     0.43537   0.62733   0.06067   0.00000  Uiso   1.00
C101   C     0.20039   0.63483   0.05298   0.00000  Uiso   1.00
C102   C     0.85175   0.61710   0.13157   0.00000  Uiso   1.00
C103   C     0.93455   0.69091   0.14262   0.00000  Uiso   1.00
C104   C     0.95587   0.70533   0.18477   0.00000  Uiso   1.00
C105   C     0.02216   0.75795   0.24890   0.00000  Uiso   1.00
C106   C     0.70544   0.48323   0.14253   0.00000  Uiso   1.00
C107   C     0.80069   0.43165   0.11292   0.00000  Uiso   1.00
C108   C     0.82894   0.33826   0.11417   0.00000  Uiso   1.00
C109   C     0.91884   0.30422   0.08433   0.00000  Uiso   1.00
C110   C     0.59827   0.53067   0.11529   0.00000  Uiso   1.00
C111   C     0.45633   0.52054   0.11854   0.00000  Uiso   1.00
C112   C     0.37583   0.56987   0.09071   0.00000  Uiso   1.00
C113   C     0.79231   0.55973   0.16155   0.00000  Uiso   1.00
C114   C     0.81349   0.57405   0.20369   0.00000  Uiso   1.00
C115   C     0.89632   0.64786   0.21480   0.00000  Uiso   1.00
H116   H     0.86112   0.63351   0.06399   0.00000  Uiso   1.00
H117   H     0.99597   0.49952   0.02990   0.00000  Uiso   1.00
H118   H     0.62342   0.68179   0.03428   0.00000  Uiso   1.00
H119   H     0.98053   0.73528   0.11941   0.00000  Uiso   1.00
H120   H     0.11921   0.32567   0.00532   0.00000  Uiso   1.00
H121   H     0.33368   0.71001   0.01455   0.00000  Uiso   1.00
H122   H     0.08671   0.82283   0.19408   0.00000  Uiso   1.00
H123   H     0.65916   0.43857   0.16587   0.00000  Uiso   1.00
H124   H     0.78293   0.29388   0.13737   0.00000  Uiso   1.00
H125   H     0.41038   0.47615   0.14174   0.00000  Uiso   1.00
H126   H     0.76748   0.52965   0.22688   0.00000  Uiso   1.00
H127   H     0.94630   0.15877   0.09254   0.00000  Uiso   1.00
H128   H     0.16076   0.54311   0.10177   0.00000  Uiso   1.00
H129   H     0.91379   0.65592   0.28130   0.00000  Uiso   1.00
O130   O     0.11778   0.15055   0.02833   0.00000  Uiso   1.00
O131   O     0.08719   0.65481   0.04045   0.00000  Uiso   1.00
O132   O     0.07515   0.80281   0.27599   0.00000  Uiso   1.00
N133   N     0.06156   0.30625   0.02976   0.00000  Uiso   1.00
N134   N     0.32713   0.66557   0.03839   0.00000  Uiso   1.00
N135   N     0.03112   0.77106   0.20623   0.00000  Uiso   1.00
N136   N     0.96851   0.21644   0.07669   0.00000  Uiso   1.00
N137   N     0.23408   0.57576   0.08532   0.00000  Uiso   1.00
N138   N     0.93807   0.68125   0.25317   0.00000  Uiso   1.00
C139   C     0.97130   0.41358   0.40493   0.00000  Uiso   1.00
C140   C     0.01589   0.51343   0.40982   0.00000  Uiso   1.00
C141   C     0.10446   0.54703   0.44009   0.00000  Uiso   1.00
C142   C     0.13240   0.64053   0.43931   0.00000  Uiso   1.00
C143   C     0.21049   0.78680   0.45147   0.00000  Uiso   1.00
C144   C     0.81408   0.41401   0.40641   0.00000  Uiso   1.00
C145   C     0.73297   0.36401   0.43381   0.00000  Uiso   1.00
C146   C     0.59103   0.37381   0.43015   0.00000  Uiso   1.00
C147   C     0.35580   0.36567   0.43701   0.00000  Uiso   1.00
C148   C     0.01001   0.38615   0.36073   0.00000  Uiso   1.00
C149   C     0.09360   0.31271   0.34971   0.00000  Uiso   1.00
C150   C     0.11659   0.29904   0.30759   0.00000  Uiso   1.00
C151   C     0.18557   0.24764   0.24352   0.00000  Uiso   1.00
C152   C     0.86344   0.51987   0.34973   0.00000  Uiso   1.00
C153   C     0.95730   0.57116   0.37984   0.00000  Uiso   1.00
C154   C     0.98512   0.66464   0.37901   0.00000  Uiso   1.00
C155   C     0.07372   0.69837   0.40927   0.00000  Uiso   1.00
C156   C     0.75549   0.47174   0.37643   0.00000  Uiso   1.00
C157   C     0.61364   0.48161   0.37273   0.00000  Uiso   1.00
C158   C     0.53233   0.43165   0.40011   0.00000  Uiso   1.00
C159   C     0.95143   0.44388   0.33074   0.00000  Uiso   1.00
C160   C     0.97427   0.43032   0.28863   0.00000  Uiso   1.00
C161   C     0.05790   0.35688   0.27755   0.00000  Uiso   1.00
H162   H     0.01690   0.36863   0.42828   0.00000  Uiso   1.00
H163   H     0.14976   0.50233   0.46329   0.00000  Uiso   1.00
H164   H     0.77833   0.31933   0.45700   0.00000  Uiso   1.00
H165   H     0.13892   0.26804   0.37292   0.00000  Uiso   1.00
H166   H     0.27119   0.67603   0.48889   0.00000  Uiso   1.00
H167   H     0.48801   0.29014   0.47563   0.00000  Uiso   1.00
H168   H     0.24837   0.18199   0.29833   0.00000  Uiso   1.00
H169   H     0.81783   0.56482   0.32638   0.00000  Uiso   1.00
H170   H     0.93977   0.70930   0.35580   0.00000  Uiso   1.00
H171   H     0.56834   0.52629   0.34952   0.00000  Uiso   1.00
H172   H     0.92892   0.47501   0.26544   0.00000  Uiso   1.00
H173   H     0.10074   0.84401   0.40165   0.00000  Uiso   1.00
H174   H     0.31756   0.45812   0.38839   0.00000  Uiso   1.00
H175   H     0.07792   0.34998   0.21109   0.00000  Uiso   1.00
O176   O     0.26974   0.85152   0.46647   0.00000  Uiso   1.00
O177   O     0.24224   0.34523   0.44907   0.00000  Uiso   1.00
O178   O     0.23982   0.20336   0.21646   0.00000  Uiso   1.00
N179   N     0.21436   0.69573   0.46432   0.00000  Uiso   1.00
N180   N     0.48214   0.33496   0.45193   0.00000  Uiso   1.00
N181   N     0.19298   0.23384   0.28617   0.00000  Uiso   1.00
N182   N     0.12265   0.78613   0.41737   0.00000  Uiso   1.00
N183   N     0.39042   0.42535   0.40498   0.00000  Uiso   1.00
N184   N     0.10127   0.32423   0.23922   0.00000  Uiso   1.00
C185   C     0.68514   0.08884   0.58733   0.00000  Uiso   1.00
C186   C     0.63987   0.98902   0.58294   0.00000  Uiso   1.00
C187   C     0.55000   0.95511   0.55310   0.00000  Uiso   1.00
C188   C     0.52162   0.86169   0.55430   0.00000  Uiso   1.00
C189   C     0.44235   0.71540   0.54290   0.00000  Uiso   1.00
C190   C     0.84229   0.08804   0.58531   0.00000  Uiso   1.00
C191   C     0.92260   0.13739   0.55747   0.00000  Uiso   1.00
C192   C     0.06463   0.12733   0.56067   0.00000  Uiso   1.00
C193   C     0.29961   0.13483   0.55298   0.00000  Uiso   1.00
C194   C     0.64825   0.11710   0.63157   0.00000  Uiso   1.00
C195   C     0.56545   0.19091   0.64262   0.00000  Uiso   1.00
C196   C     0.54413   0.20533   0.68477   0.00000  Uiso   1.00
C197   C     0.47784   0.25795   0.74890   0.00000  Uiso   1.00
C198   C     0.79456   0.98323   0.64253   0.00000  Uiso   1.00
C199   C     0.69931   0.93165   0.61292   0.00000  Uiso   1.00
C200   C     0.67106   0.83826   0.61417   0.00000  Uiso   1.00
C201   C     0.58116   0.80422   0.58433   0.00000  Uiso   1.00
C202   C     0.90173   0.03067   0.61529   0.00000  Uiso   1.00
C203   C     0.04367   0.02054   0.61854   0.00000  Uiso   1.00
C204   C     0.12417   0.06987   0.59071   0.00000  Uiso   1.00
C205   C     0.70769   0.05973   0.66155   0.00000  Uiso   1.00
C206   C     0.68651   0.07405   0.70369   0.00000  Uiso   1.00
C207   C     0.60368   0.14786   0.71480   0.00000  Uiso   1.00
H208   H     0.63888   0.13351   0.56399   0.00000  Uiso   1.00
H209   H     0.50403   0.99952   0.52990   0.00000  Uiso   1.00
H210   H     0.87658   0.18179   0.53428   0.00000  Uiso   1.00
H211   H     0.51947   0.23528   0.61941   0.00000  Uiso   1.00
H212   H     0.38079   0.82567   0.50532   0.00000  Uiso   1.00
H213   H     0.16632   0.21001   0.51455   0.00000  Uiso   1.00
H214   H     0.41329   0.32283   0.69408   0.00000  Uiso   1.00
H215   H     0.84084   0.93857   0.66587   0.00000  Uiso   1.00
H216   H     0.71707   0.79388   0.63737   0.00000  Uiso   1.00
H217   H     0.08962   0.97615   0.64174   0.00000  Uiso   1.00
H218   H     0.73252   0.02965   0.72688   0.00000  Uiso   1.00
H219   H     0.55370   0.65877   0.59254   0.00000  Uiso   1.00
H220   H     0.33924   0.04311   0.60177   0.00000  Uiso   1.00
H221   H     0.58621   0.15592   0.78130   0.00000  Uiso   1.00
O222   O     0.38222   0.65055   0.52833   0.00000  Uiso   1.00
O223   O     0.41281   0.15481   0.54045   0.00000  Uiso   1.00
O224   O     0.42485   0.30281   0.77599   0.00000  Uiso   1.00
N225   N     0.43844   0.80625   0.52976   0.00000  Uiso   1.00
N226   N     0.17287   0.16557   0.53839   0.00000  Uiso   1.00
N227   N     0.46888   0.27106   0.70623   0.00000  Uiso   1.00
N228   N     0.53149   0.71644   0.57669   0.00000  Uiso   1.00
N229   N     0.26592   0.07576   0.58532   0.00000  Uiso   1.00
N230   N     0.56193   0.18125   0.75317   0.00000  Uiso   1.00
C231   C     0.52870   0.91358   0.90493   0.00000  Uiso   1.00
C232   C     0.48411   0.01343   0.90982   0.00000  Uiso   1.00
C233   C     0.39554   0.04703   0.94009   0.00000  Uiso   1.00
C234   C     0.36760   0.14053   0.93931   0.00000  Uiso   1.00
C235   C     0.28951   0.28680   0.95147   0.00000  Uiso   1.00
C236   C     0.68592   0.91401   0.90641   0.00000  Uiso   1.00
C237   C     0.76703   0.86401   0.93381   0.00000  Uiso   1.00
C238   C     0.90897   0.87381   0.93015   0.00000  Uiso   1.00
C239   C     0.14420   0.86567   0.93701   0.00000  Uiso   1.00
C240   C     0.48999   0.88615   0.86073   0.00000  Uiso   1.00
C241   C     0.40640   0.81271   0.84971   0.00000  Uiso   1.00
C242   C     0.38341   0.79904   0.80759   0.00000  Uiso   1.00
C243   C     0.31443   0.74764   0.74352   0.00000  Uiso   1.00
C244   C     0.63656   0.01987   0.84973   0.00000  Uiso   1.00
C245   C     0.54270   0.07116   0.87984   0.00000  Uiso   1.00
C246   C     0.51488   0.16464   0.87901   0.00000  Uiso   1.00
C247   C     0.42628   0.19837   0.90927   0.00000  Uiso   1.00
C248   C     0.74451   0.97174   0.87643   0.00000  Uiso   1.00
C249   C     0.88636   0.98161   0.87273   0.00000  Uiso   1.00
C250   C     0.96767   0.93165   0.90011   0.00000  Uiso   1.00
C251   C     0.54857   0.94388   0.83074   0.00000  Uiso   1.00
C252   C     0.52573   0.93032   0.78863   0.00000  Uiso   1.00
C253   C     0.44210   0.85688   0.77755   0.00000  Uiso   1.00
H254   H     0.48310   0.86863   0.92828   0.00000  Uiso   1.00
H255   H     0.35024   0.00233   0.96329   0.00000  Uiso   1.00
H256   H     0.72167   0.81933   0.95700   0.00000  Uiso   1.00
H257   H     0.36108   0.76804   0.87292   0.00000  Uiso   1.00
H258   H     0.22881   0.17603   0.98889   0.00000  Uiso   1.00
H259   H     0.01199   0.79014   0.97563   0.00000  Uiso   1.00
H260   H     0.25163   0.68199   0.79833   0.00000  Uiso   1.00
H261   H     0.68217   0.06482   0.82638   0.00000  Uiso   1.00
H262   H     0.56023   0.20930   0.85580   0.00000  Uiso   1.00
H263   H     0.93166   0.02629   0.84952   0.00000  Uiso   1.00
H264   H     0.57108   0.97501   0.76544   0.00000  Uiso   1.00
H265   H     0.39926   0.34401   0.90165   0.00000  Uiso   1.00
H266   H     0.18244   0.95812   0.88839   0.00000  Uiso   1.00
H267   H     0.42208   0.84998   0.71109   0.00000  Uiso   1.00
O268   O     0.23026   0.35152   0.96647   0.00000  Uiso   1.00
O269   O     0.25776   0.84523   0.94907   0.00000  Uiso   1.00
O270   O     0.26018   0.70336   0.71646   0.00000  Uiso   1.00
N271   N     0.28564   0.19573   0.96432   0.00000  Uiso   1.00
N272   N     0.01786   0.83496   0.95193   0.00000  Uiso   1.00
N273   N     0.30702   0.73384   0.78617   0.00000  Uiso   1.00
N274   N     0.37735   0.28613   0.91737   0.00000  Uiso   1.00
N275   N     0.10958   0.92535   0.90498   0.00000  Uiso   1.00
N276   N     0.39873   0.82423   0.73922   0.00000  Uiso   1.00
C277   C     0.31486   0.91116   0.08733   0.00000  Uiso   1.00
C278   C     0.36013   0.01098   0.08294   0.00000  Uiso   1.00
C279   C     0.45000   0.04489   0.05310   0.00000  Uiso   1.00
C280   C     0.47838   0.13831   0.05430   0.00000  Uiso   1.00
C281   C     0.55765   0.28460   0.04290   0.00000  Uiso   1.00
C282   C     0.15771   0.91196   0.08531   0.00000  Uiso   1.00
C283   C     0.07740   0.86261   0.05747   0.00000  Uiso   1.00
C284   C     0.93537   0.87267   0.06067   0.00000  Uiso   1.00
C285   C     0.70039   0.86517   0.05298   0.00000  Uiso   1.00
C286   C     0.35175   0.88290   0.13157   0.00000  Uiso   1.00
C287   C     0.43455   0.80909   0.14262   0.00000  Uiso   1.00
C288   C     0.45587   0.79467   0.18477   0.00000  Uiso   1.00
C289   C     0.52216   0.74205   0.24890   0.00000  Uiso   1.00
C290   C     0.20544   0.01677   0.14253   0.00000  Uiso   1.00
C291   C     0.30069   0.06835   0.11292   0.00000  Uiso   1.00
C292   C     0.32894   0.16174   0.11417   0.00000  Uiso   1.00
C293   C     0.41884   0.19578   0.08433   0.00000  Uiso   1.00
C294   C     0.09827   0.96933   0.11529   0.00000  Uiso   1.00
C295   C     0.95633   0.97946   0.11854   0.00000  Uiso   1.00
C296   C     0.87583   0.93013   0.09071   0.00000  Uiso   1.00
C297   C     0.29231   0.94027   0.16155   0.00000  Uiso   1.00
C298   C     0.31349   0.92595   0.20369   0.00000  Uiso   1.00
C299   C     0.39632   0.85214   0.21480   0.00000  Uiso   1.00
H300   H     0.36112   0.86649   0.06399   0.00000  Uiso   1.00
H301   H     0.49597   0.00048   0.02990   0.00000  Uiso   1.00
H302   H     0.12342   0.81821   0.03428   0.00000  Uiso   1.00
H303   H     0.48053   0.76472   0.11941   0.00000  Uiso   1.00
H304   H     0.61921   0.17433   0.00532   0.00000  Uiso   1.00
H305   H     0.83368   0.78999   0.01455   0.00000  Uiso   1.00
H306   H     0.58671   0.67717   0.19408   0.00000  Uiso   1.00
H307   H     0.15916   0.06143   0.16587   0.00000  Uiso   1.00
H308   H     0.28293   0.20612   0.13737   0.00000  Uiso   1.00
H309   H     0.91038   0.02385   0.14174   0.00000  Uiso   1.00
H310   H     0.26748   0.97035   0.22688   0.00000  Uiso   1.00
H311   H     0.44630   0.34123   0.09254   0.00000  Uiso   1.00
H312   H     0.66076   0.95689   0.10177   0.00000  Uiso   1.00
H313   H     0.41379   0.84408   0.28130   0.00000  Uiso   1.00
O314   O     0.61778   0.34945   0.02833   0.00000  Uiso   1.00
O315   O     0.58719   0.84519   0.04045   0.00000  Uiso   1.00
O316   O     0.57515   0.69719   0.27599   0.00000  Uiso   1.00
N317   N     0.56156   0.19375   0.02976   0.00000  Uiso   1.00
N318   N     0.82713   0.83443   0.03839   0.00000  Uiso   1.00
N319   N     0.53112   0.72894   0.20623   0.00000  Uiso   1.00
N320   N     0.46851   0.28356   0.07669   0.00000  Uiso   1.00
N321   N     0.73408   0.92424   0.08532   0.00000  Uiso   1.00
N322   N     0.43807   0.81875   0.25317   0.00000  Uiso   1.00
C323   C     0.47130   0.08642   0.40493   0.00000  Uiso   1.00
C324   C     0.51589   0.98657   0.40982   0.00000  Uiso   1.00
C325   C     0.60446   0.95297   0.44009   0.00000  Uiso   1.00
C326   C     0.63240   0.85947   0.43931   0.00000  Uiso   1.00
C327   C     0.71049   0.71320   0.45147   0.00000  Uiso   1.00
C328   C     0.31408   0.08599   0.40641   0.00000  Uiso   1.00
C329   C     0.23297   0.13599   0.43381   0.00000  Uiso   1.00
C330   C     0.09103   0.12619   0.43015   0.00000  Uiso   1.00
C331   C     0.85580   0.13433   0.43701   0.00000  Uiso   1.00
C332   C     0.51001   0.11385   0.36073   0.00000  Uiso   1.00
C333   C     0.59360   0.18729   0.34971   0.00000  Uiso   1.00
C334   C     0.61659   0.20096   0.30759   0.00000  Uiso   1.00
C335   C     0.68557   0.25236   0.24352   0.00000  Uiso   1.00
C336   C     0.36344   0.98013   0.34973   0.00000  Uiso   1.00
C337   C     0.45730   0.92884   0.37984   0.00000  Uiso   1.00
C338   C     0.48512   0.83536   0.37901   0.00000  Uiso   1.00
C339   C     0.57372   0.80163   0.40927   0.00000  Uiso   1.00
C340   C     0.25549   0.02826   0.37643   0.00000  Uiso   1.00
C341   C     0.11364   0.01839   0.37273   0.00000  Uiso   1.00
C342   C     0.03233   0.06835   0.40011   0.00000  Uiso   1.00
C343   C     0.45143   0.05612   0.33074   0.00000  Uiso   1.00
C344   C     0.47427   0.06968   0.28863   0.00000  Uiso   1.00
C345   C     0.55790   0.14312   0.27755   0.00000  Uiso   1.00
H346   H     0.51690   0.13137   0.42828   0.00000  Uiso   1.00
H347   H     0.64976   0.99767   0.46329   0.00000  Uiso   1.00
H348   H     0.27833   0.18067   0.45700   0.00000  Uiso   1.00
H349   H     0.63892   0.23196   0.37292   0.00000  Uiso   1.00
H350   H     0.77119   0.82397   0.48889   0.00000  Uiso   1.00
H351   H     0.98801   0.20986   0.47563   0.00000  Uiso   1.00
H352   H     0.74837   0.31801   0.29833   0.00000  Uiso   1.00
H353   H     0.31783   0.93518   0.32638   0.00000  Uiso   1.00
H354   H     0.43977   0.79070   0.35580   0.00000  Uiso   1.00
H355   H     0.06834   0.97371   0.34952   0.00000  Uiso   1.00
H356   H     0.42892   0.02499   0.26544   0.00000  Uiso   1.00
H357   H     0.60074   0.65599   0.40165   0.00000  Uiso   1.00
H358   H     0.81756   0.04188   0.38839   0.00000  Uiso   1.00
H359   H     0.57792   0.15002   0.21109   0.00000  Uiso   1.00
O360   O     0.76974   0.64848   0.46647   0.00000  Uiso   1.00
O361   O     0.74224   0.15477   0.44907   0.00000  Uiso   1.00
O362   O     0.73982   0.29664   0.21646   0.00000  Uiso   1.00
N363   N     0.71436   0.80427   0.46432   0.00000  Uiso   1.00
N364   N     0.98214   0.16504   0.45193   0.00000  Uiso   1.00
N365   N     0.69298   0.26616   0.28617   0.00000  Uiso   1.00
N366   N     0.62265   0.71387   0.41737   0.00000  Uiso   1.00
N367   N     0.89042   0.07465   0.40498   0.00000  Uiso   1.00
N368   N     0.60127   0.17577   0.23922   0.00000  Uiso   1.00
