data_job_01869
_audit_creation_date              2018-12-19
_audit_creation_method            'Materials Studio'
_symmetry_space_group_name_H-M    'P1'
_symmetry_Int_Tables_number       1
_symmetry_cell_setting            triclinic
loop_
_symmetry_equiv_pos_as_xyz
  x,y,z
_cell_length_a                    12.8353
_cell_length_b                    8.6107
_cell_length_c                    30.0962
_cell_angle_alpha                 90.0000
_cell_angle_beta                  126.8373
_cell_angle_gamma                 90.0000
loop_
_atom_site_label
_atom_site_type_symbol
_atom_site_fract_x
_atom_site_fract_y
_atom_site_fract_z
_atom_site_U_iso_or_equiv
_atom_site_adp_type
_atom_site_occupancy
C1     C     0.94300   0.00826   0.82566   0.00000  Uiso   1.00
C2     C     0.84734   0.88876   0.78297   0.00000  Uiso   1.00
C3     C     0.79484   0.88826   0.72706   0.00000  Uiso   1.00
C4     C     0.70905   0.76894   0.69487   0.00000  Uiso   1.00
C5     C     0.56533   0.60087   0.62509   0.00000  Uiso   1.00
C6     C     0.87994   0.07483   0.85127   0.00000  Uiso   1.00
C7     C     0.85488   0.23076   0.85279   0.00000  Uiso   1.00
C8     C     0.79655   0.26806   0.87810   0.00000  Uiso   1.00
C9     C     0.70355   0.38886   0.91439   0.00000  Uiso   1.00
C10    C     0.06127   0.91659   0.87170   0.00000  Uiso   1.00
C11    C     0.18868   0.93951   0.89041   0.00000  Uiso   1.00
C12    C     0.28302   0.84361   0.93293   0.00000  Uiso   1.00
C13    C     0.47155   0.71873   0.00094   0.00000  Uiso   1.00
C14    C     0.88400   0.79723   0.86792   0.00000  Uiso   1.00
C15    C     0.81529   0.77415   0.80593   0.00000  Uiso   1.00
C16    C     0.72956   0.65478   0.77381   0.00000  Uiso   1.00
C17    C     0.67695   0.65410   0.71787   0.00000  Uiso   1.00
C18    C     0.84790   0.96021   0.87422   0.00000  Uiso   1.00
C19    C     0.78960   0.99728   0.89954   0.00000  Uiso   1.00
C20    C     0.76445   0.15323   0.90109   0.00000  Uiso   1.00
C21    C     0.02923   0.80197   0.89465   0.00000  Uiso   1.00
C22    C     0.12339   0.70602   0.93716   0.00000  Uiso   1.00
C23    C     0.25092   0.72878   0.95593   0.00000  Uiso   1.00
H24    H     0.96794   0.09751   0.80779   0.00000  Uiso   1.00
H25    H     0.81965   0.97700   0.70931   0.00000  Uiso   1.00
H26    H     0.87970   0.31944   0.83503   0.00000  Uiso   1.00
H27    H     0.21344   0.02822   0.87264   0.00000  Uiso   1.00
H28    H     0.64108   0.79287   0.61025   0.00000  Uiso   1.00
H29    H     0.76773   0.51494   0.87534   0.00000  Uiso   1.00
H30    H     0.47148   0.90086   0.95465   0.00000  Uiso   1.00
H31    H     0.85905   0.70799   0.88579   0.00000  Uiso   1.00
H32    H     0.70478   0.56610   0.79159   0.00000  Uiso   1.00
H33    H     0.76482   0.90855   0.91730   0.00000  Uiso   1.00
H34    H     0.09856   0.61733   0.95491   0.00000  Uiso   1.00
H35    H     0.54783   0.45938   0.67703   0.00000  Uiso   1.00
H36    H     0.67449   0.18145   0.94212   0.00000  Uiso   1.00
H37    H     0.37824   0.56736   0.02143   0.00000  Uiso   1.00
O38    O     0.49490   0.53984   0.58026   0.00000  Uiso   1.00
O39    O     0.66109   0.48717   0.92805   0.00000  Uiso   1.00
O40    O     0.58440   0.68150   0.03210   0.00000  Uiso   1.00
N41    N     0.64032   0.73384   0.63890   0.00000  Uiso   1.00
N42    N     0.75872   0.40893   0.88673   0.00000  Uiso   1.00
N43    N     0.41667   0.83484   0.96089   0.00000  Uiso   1.00
N44    N     0.59015   0.55439   0.67483   0.00000  Uiso   1.00
N45    N     0.70854   0.22947   0.92266   0.00000  Uiso   1.00
N46    N     0.36650   0.65539   0.99682   0.00000  Uiso   1.00
C47    C     0.05700   0.50826   0.67434   0.00000  Uiso   1.00
C48    C     0.15266   0.38876   0.71703   0.00000  Uiso   1.00
C49    C     0.20516   0.38826   0.77294   0.00000  Uiso   1.00
C50    C     0.29095   0.26894   0.80513   0.00000  Uiso   1.00
C51    C     0.43467   0.10087   0.87491   0.00000  Uiso   1.00
C52    C     0.12006   0.57483   0.64873   0.00000  Uiso   1.00
C53    C     0.14512   0.73076   0.64721   0.00000  Uiso   1.00
C54    C     0.20345   0.76806   0.62190   0.00000  Uiso   1.00
C55    C     0.29645   0.88886   0.58561   0.00000  Uiso   1.00
C56    C     0.93873   0.41659   0.62830   0.00000  Uiso   1.00
C57    C     0.81132   0.43951   0.60959   0.00000  Uiso   1.00
C58    C     0.71698   0.34361   0.56707   0.00000  Uiso   1.00
C59    C     0.52845   0.21873   0.49906   0.00000  Uiso   1.00
C60    C     0.11600   0.29723   0.63208   0.00000  Uiso   1.00
C61    C     0.18471   0.27415   0.69407   0.00000  Uiso   1.00
C62    C     0.27044   0.15478   0.72619   0.00000  Uiso   1.00
C63    C     0.32305   0.15410   0.78213   0.00000  Uiso   1.00
C64    C     0.15210   0.46021   0.62578   0.00000  Uiso   1.00
C65    C     0.21040   0.49728   0.60046   0.00000  Uiso   1.00
C66    C     0.23555   0.65323   0.59891   0.00000  Uiso   1.00
C67    C     0.97077   0.30197   0.60535   0.00000  Uiso   1.00
C68    C     0.87661   0.20602   0.56284   0.00000  Uiso   1.00
C69    C     0.74908   0.22878   0.54407   0.00000  Uiso   1.00
H70    H     0.03206   0.59751   0.69221   0.00000  Uiso   1.00
H71    H     0.18035   0.47700   0.79069   0.00000  Uiso   1.00
H72    H     0.12030   0.81944   0.66497   0.00000  Uiso   1.00
H73    H     0.78656   0.52822   0.62736   0.00000  Uiso   1.00
H74    H     0.35892   0.29287   0.88975   0.00000  Uiso   1.00
H75    H     0.23227   0.01494   0.62466   0.00000  Uiso   1.00
H76    H     0.52852   0.40086   0.54535   0.00000  Uiso   1.00
H77    H     0.14095   0.20799   0.61421   0.00000  Uiso   1.00
H78    H     0.29522   0.06610   0.70841   0.00000  Uiso   1.00
H79    H     0.23518   0.40855   0.58270   0.00000  Uiso   1.00
H80    H     0.90144   0.11733   0.54509   0.00000  Uiso   1.00
H81    H     0.45217   0.95938   0.82297   0.00000  Uiso   1.00
H82    H     0.32551   0.68145   0.55788   0.00000  Uiso   1.00
H83    H     0.62176   0.06736   0.47857   0.00000  Uiso   1.00
O84    O     0.50510   0.03984   0.91974   0.00000  Uiso   1.00
O85    O     0.33891   0.98717   0.57195   0.00000  Uiso   1.00
O86    O     0.41560   0.18150   0.46790   0.00000  Uiso   1.00
N87    N     0.35968   0.23384   0.86110   0.00000  Uiso   1.00
N88    N     0.24128   0.90893   0.61327   0.00000  Uiso   1.00
N89    N     0.58333   0.33484   0.53911   0.00000  Uiso   1.00
N90    N     0.40985   0.05439   0.82517   0.00000  Uiso   1.00
N91    N     0.29146   0.72947   0.57734   0.00000  Uiso   1.00
N92    N     0.63350   0.15539   0.50318   0.00000  Uiso   1.00
C93    C     0.05700   0.99174   0.17434   0.00000  Uiso   1.00
C94    C     0.15266   0.11124   0.21703   0.00000  Uiso   1.00
C95    C     0.20516   0.11174   0.27294   0.00000  Uiso   1.00
C96    C     0.29095   0.23106   0.30513   0.00000  Uiso   1.00
C97    C     0.43467   0.39913   0.37491   0.00000  Uiso   1.00
C98    C     0.12006   0.92517   0.14873   0.00000  Uiso   1.00
C99    C     0.14512   0.76924   0.14721   0.00000  Uiso   1.00
C100   C     0.20345   0.73194   0.12190   0.00000  Uiso   1.00
C101   C     0.29645   0.61114   0.08561   0.00000  Uiso   1.00
C102   C     0.93873   0.08341   0.12830   0.00000  Uiso   1.00
C103   C     0.81132   0.06049   0.10959   0.00000  Uiso   1.00
C104   C     0.71698   0.15639   0.06707   0.00000  Uiso   1.00
C105   C     0.52845   0.28127   0.99906   0.00000  Uiso   1.00
C106   C     0.11600   0.20277   0.13208   0.00000  Uiso   1.00
C107   C     0.18471   0.22585   0.19407   0.00000  Uiso   1.00
C108   C     0.27044   0.34522   0.22619   0.00000  Uiso   1.00
C109   C     0.32305   0.34590   0.28213   0.00000  Uiso   1.00
C110   C     0.15210   0.03979   0.12578   0.00000  Uiso   1.00
C111   C     0.21040   0.00272   0.10046   0.00000  Uiso   1.00
C112   C     0.23555   0.84677   0.09891   0.00000  Uiso   1.00
C113   C     0.97077   0.19803   0.10535   0.00000  Uiso   1.00
C114   C     0.87661   0.29398   0.06284   0.00000  Uiso   1.00
C115   C     0.74908   0.27122   0.04407   0.00000  Uiso   1.00
H116   H     0.03206   0.90249   0.19221   0.00000  Uiso   1.00
H117   H     0.18035   0.02300   0.29069   0.00000  Uiso   1.00
H118   H     0.12030   0.68056   0.16497   0.00000  Uiso   1.00
H119   H     0.78656   0.97178   0.12736   0.00000  Uiso   1.00
H120   H     0.35892   0.20713   0.38975   0.00000  Uiso   1.00
H121   H     0.23227   0.48506   0.12466   0.00000  Uiso   1.00
H122   H     0.52852   0.09914   0.04535   0.00000  Uiso   1.00
H123   H     0.14095   0.29201   0.11421   0.00000  Uiso   1.00
H124   H     0.29522   0.43390   0.20841   0.00000  Uiso   1.00
H125   H     0.23518   0.09145   0.08270   0.00000  Uiso   1.00
H126   H     0.90144   0.38267   0.04509   0.00000  Uiso   1.00
H127   H     0.45217   0.54062   0.32297   0.00000  Uiso   1.00
H128   H     0.32551   0.81855   0.05788   0.00000  Uiso   1.00
H129   H     0.62176   0.43264   0.97857   0.00000  Uiso   1.00
O130   O     0.50510   0.46016   0.41974   0.00000  Uiso   1.00
O131   O     0.33891   0.51283   0.07195   0.00000  Uiso   1.00
O132   O     0.41560   0.31850   0.96790   0.00000  Uiso   1.00
N133   N     0.35968   0.26616   0.36110   0.00000  Uiso   1.00
N134   N     0.24128   0.59107   0.11327   0.00000  Uiso   1.00
N135   N     0.58333   0.16516   0.03911   0.00000  Uiso   1.00
N136   N     0.40985   0.44561   0.32517   0.00000  Uiso   1.00
N137   N     0.29146   0.77053   0.07734   0.00000  Uiso   1.00
N138   N     0.63350   0.34461   0.00318   0.00000  Uiso   1.00
C139   C     0.94300   0.49174   0.32566   0.00000  Uiso   1.00
C140   C     0.84734   0.61124   0.28297   0.00000  Uiso   1.00
C141   C     0.79484   0.61174   0.22706   0.00000  Uiso   1.00
C142   C     0.70905   0.73106   0.19487   0.00000  Uiso   1.00
C143   C     0.56533   0.89913   0.12509   0.00000  Uiso   1.00
C144   C     0.87994   0.42517   0.35127   0.00000  Uiso   1.00
C145   C     0.85488   0.26924   0.35279   0.00000  Uiso   1.00
C146   C     0.79655   0.23194   0.37810   0.00000  Uiso   1.00
C147   C     0.70355   0.11114   0.41439   0.00000  Uiso   1.00
C148   C     0.06127   0.58341   0.37170   0.00000  Uiso   1.00
C149   C     0.18868   0.56049   0.39041   0.00000  Uiso   1.00
C150   C     0.28302   0.65639   0.43293   0.00000  Uiso   1.00
C151   C     0.47155   0.78127   0.50094   0.00000  Uiso   1.00
C152   C     0.88400   0.70277   0.36792   0.00000  Uiso   1.00
C153   C     0.81529   0.72585   0.30593   0.00000  Uiso   1.00
C154   C     0.72956   0.84522   0.27381   0.00000  Uiso   1.00
C155   C     0.67695   0.84590   0.21787   0.00000  Uiso   1.00
C156   C     0.84790   0.53979   0.37422   0.00000  Uiso   1.00
C157   C     0.78960   0.50272   0.39954   0.00000  Uiso   1.00
C158   C     0.76445   0.34677   0.40109   0.00000  Uiso   1.00
C159   C     0.02923   0.69803   0.39465   0.00000  Uiso   1.00
C160   C     0.12339   0.79398   0.43716   0.00000  Uiso   1.00
C161   C     0.25092   0.77122   0.45593   0.00000  Uiso   1.00
H162   H     0.96794   0.40249   0.30779   0.00000  Uiso   1.00
H163   H     0.81965   0.52300   0.20931   0.00000  Uiso   1.00
H164   H     0.87970   0.18056   0.33503   0.00000  Uiso   1.00
H165   H     0.21344   0.47178   0.37264   0.00000  Uiso   1.00
H166   H     0.64108   0.70713   0.11025   0.00000  Uiso   1.00
H167   H     0.76773   0.98506   0.37534   0.00000  Uiso   1.00
H168   H     0.47148   0.59914   0.45465   0.00000  Uiso   1.00
H169   H     0.85905   0.79201   0.38579   0.00000  Uiso   1.00
H170   H     0.70478   0.93390   0.29159   0.00000  Uiso   1.00
H171   H     0.76482   0.59145   0.41730   0.00000  Uiso   1.00
H172   H     0.09856   0.88267   0.45491   0.00000  Uiso   1.00
H173   H     0.54783   0.04062   0.17703   0.00000  Uiso   1.00
H174   H     0.67449   0.31855   0.44212   0.00000  Uiso   1.00
H175   H     0.37824   0.93264   0.52143   0.00000  Uiso   1.00
O176   O     0.49490   0.96016   0.08026   0.00000  Uiso   1.00
O177   O     0.66109   0.01283   0.42805   0.00000  Uiso   1.00
O178   O     0.58440   0.81850   0.53210   0.00000  Uiso   1.00
N179   N     0.64032   0.76616   0.13890   0.00000  Uiso   1.00
N180   N     0.75872   0.09107   0.38673   0.00000  Uiso   1.00
N181   N     0.41667   0.66516   0.46089   0.00000  Uiso   1.00
N182   N     0.59015   0.94561   0.17483   0.00000  Uiso   1.00
N183   N     0.70854   0.27053   0.42266   0.00000  Uiso   1.00
N184   N     0.36650   0.84461   0.49682   0.00000  Uiso   1.00
