data_job_02479
_audit_creation_date              2018-12-19
_audit_creation_method            'Materials Studio'
_symmetry_space_group_name_H-M    'P1'
_symmetry_Int_Tables_number       1
_symmetry_cell_setting            triclinic
loop_
_symmetry_equiv_pos_as_xyz
  x,y,z
_cell_length_a                    13.2701
_cell_length_b                    38.9717
_cell_length_c                    19.2971
_cell_angle_alpha                 90.0000
_cell_angle_beta                  90.0000
_cell_angle_gamma                 90.0000
loop_
_atom_site_label
_atom_site_type_symbol
_atom_site_fract_x
_atom_site_fract_y
_atom_site_fract_z
_atom_site_U_iso_or_equiv
_atom_site_adp_type
_atom_site_occupancy
C1     C     0.64927   0.66854   0.85790   0.00000  Uiso   1.00
C2     C     0.57401   0.67640   0.80033   0.00000  Uiso   1.00
C3     C     0.59811   0.68453   0.73230   0.00000  Uiso   1.00
C4     C     0.51837   0.69086   0.68751   0.00000  Uiso   1.00
C5     C     0.41676   0.70335   0.59470   0.00000  Uiso   1.00
C6     C     0.62636   0.69383   0.91610   0.00000  Uiso   1.00
C7     C     0.69449   0.71662   0.94541   0.00000  Uiso   1.00
C8     C     0.65882   0.73763   0.99809   0.00000  Uiso   1.00
C9     C     0.63850   0.77717   0.08505   0.00000  Uiso   1.00
C10    C     0.62101   0.63319   0.88566   0.00000  Uiso   1.00
C11    C     0.68465   0.60499   0.88941   0.00000  Uiso   1.00
C12    C     0.64449   0.57495   0.91648   0.00000  Uiso   1.00
C13    C     0.61587   0.52033   0.95618   0.00000  Uiso   1.00
C14    C     0.46479   0.66533   0.89932   0.00000  Uiso   1.00
C15    C     0.47381   0.67465   0.82283   0.00000  Uiso   1.00
C16    C     0.39401   0.68098   0.77813   0.00000  Uiso   1.00
C17    C     0.41799   0.68912   0.71005   0.00000  Uiso   1.00
C18    C     0.52616   0.69209   0.93860   0.00000  Uiso   1.00
C19    C     0.49039   0.71307   0.99125   0.00000  Uiso   1.00
C20    C     0.55844   0.73589   0.02063   0.00000  Uiso   1.00
C21    C     0.52081   0.63145   0.90816   0.00000  Uiso   1.00
C22    C     0.48054   0.60144   0.93524   0.00000  Uiso   1.00
C23    C     0.54411   0.57320   0.93902   0.00000  Uiso   1.00
H24    H     0.72728   0.66990   0.84038   0.00000  Uiso   1.00
H25    H     0.67567   0.68588   0.71491   0.00000  Uiso   1.00
H26    H     0.77203   0.71796   0.92800   0.00000  Uiso   1.00
H27    H     0.76219   0.60635   0.87199   0.00000  Uiso   1.00
H28    H     0.57426   0.70284   0.58573   0.00000  Uiso   1.00
H29    H     0.77745   0.77048   0.03505   0.00000  Uiso   1.00
H30    H     0.75670   0.53513   0.91696   0.00000  Uiso   1.00
H31    H     0.38678   0.66397   0.91684   0.00000  Uiso   1.00
H32    H     0.31648   0.67963   0.79556   0.00000  Uiso   1.00
H33    H     0.41284   0.71171   0.00865   0.00000  Uiso   1.00
H34    H     0.40300   0.60010   0.95265   0.00000  Uiso   1.00
H35    H     0.28273   0.69776   0.65119   0.00000  Uiso   1.00
H36    H     0.48592   0.76541   0.10051   0.00000  Uiso   1.00
H37    H     0.46517   0.53006   0.98242   0.00000  Uiso   1.00
O38    O     0.38839   0.71072   0.53730   0.00000  Uiso   1.00
O39    O     0.65498   0.79946   0.12680   0.00000  Uiso   1.00
O40    O     0.62776   0.49069   0.97186   0.00000  Uiso   1.00
N41    N     0.51529   0.69949   0.61777   0.00000  Uiso   1.00
N42    N     0.70526   0.76274   0.03785   0.00000  Uiso   1.00
N43    N     0.68587   0.54271   0.92747   0.00000  Uiso   1.00
N44    N     0.35842   0.69676   0.65300   0.00000  Uiso   1.00
N45    N     0.54839   0.76001   0.07308   0.00000  Uiso   1.00
N46    N     0.52900   0.53998   0.96269   0.00000  Uiso   1.00
C47    C     0.85073   0.33146   0.85790   0.00000  Uiso   1.00
C48    C     0.92599   0.32360   0.80033   0.00000  Uiso   1.00
C49    C     0.90189   0.31547   0.73230   0.00000  Uiso   1.00
C50    C     0.98163   0.30914   0.68751   0.00000  Uiso   1.00
C51    C     0.08324   0.29665   0.59470   0.00000  Uiso   1.00
C52    C     0.87364   0.30617   0.91610   0.00000  Uiso   1.00
C53    C     0.80551   0.28338   0.94541   0.00000  Uiso   1.00
C54    C     0.84118   0.26237   0.99809   0.00000  Uiso   1.00
C55    C     0.86150   0.22283   0.08505   0.00000  Uiso   1.00
C56    C     0.87899   0.36681   0.88566   0.00000  Uiso   1.00
C57    C     0.81535   0.39501   0.88941   0.00000  Uiso   1.00
C58    C     0.85551   0.42505   0.91648   0.00000  Uiso   1.00
C59    C     0.88413   0.47967   0.95618   0.00000  Uiso   1.00
C60    C     0.03521   0.33467   0.89932   0.00000  Uiso   1.00
C61    C     0.02619   0.32535   0.82283   0.00000  Uiso   1.00
C62    C     0.10599   0.31902   0.77813   0.00000  Uiso   1.00
C63    C     0.08201   0.31088   0.71005   0.00000  Uiso   1.00
C64    C     0.97384   0.30791   0.93860   0.00000  Uiso   1.00
C65    C     0.00961   0.28693   0.99125   0.00000  Uiso   1.00
C66    C     0.94156   0.26411   0.02063   0.00000  Uiso   1.00
C67    C     0.97919   0.36855   0.90816   0.00000  Uiso   1.00
C68    C     0.01946   0.39856   0.93524   0.00000  Uiso   1.00
C69    C     0.95589   0.42680   0.93902   0.00000  Uiso   1.00
H70    H     0.77272   0.33010   0.84038   0.00000  Uiso   1.00
H71    H     0.82433   0.31412   0.71491   0.00000  Uiso   1.00
H72    H     0.72797   0.28204   0.92800   0.00000  Uiso   1.00
H73    H     0.73781   0.39365   0.87199   0.00000  Uiso   1.00
H74    H     0.92574   0.29716   0.58573   0.00000  Uiso   1.00
H75    H     0.72255   0.22952   0.03505   0.00000  Uiso   1.00
H76    H     0.74330   0.46487   0.91696   0.00000  Uiso   1.00
H77    H     0.11322   0.33603   0.91684   0.00000  Uiso   1.00
H78    H     0.18352   0.32037   0.79556   0.00000  Uiso   1.00
H79    H     0.08716   0.28829   0.00865   0.00000  Uiso   1.00
H80    H     0.09700   0.39990   0.95265   0.00000  Uiso   1.00
H81    H     0.21727   0.30224   0.65119   0.00000  Uiso   1.00
H82    H     0.01408   0.23459   0.10051   0.00000  Uiso   1.00
H83    H     0.03483   0.46994   0.98242   0.00000  Uiso   1.00
O84    O     0.11161   0.28928   0.53730   0.00000  Uiso   1.00
O85    O     0.84502   0.20054   0.12680   0.00000  Uiso   1.00
O86    O     0.87224   0.50931   0.97186   0.00000  Uiso   1.00
N87    N     0.98471   0.30051   0.61777   0.00000  Uiso   1.00
N88    N     0.79474   0.23726   0.03785   0.00000  Uiso   1.00
N89    N     0.81413   0.45729   0.92747   0.00000  Uiso   1.00
N90    N     0.14158   0.30324   0.65300   0.00000  Uiso   1.00
N91    N     0.95161   0.23999   0.07308   0.00000  Uiso   1.00
N92    N     0.97100   0.46002   0.96269   0.00000  Uiso   1.00
C93    C     0.85073   0.16854   0.64210   0.00000  Uiso   1.00
C94    C     0.92599   0.17640   0.69967   0.00000  Uiso   1.00
C95    C     0.90189   0.18453   0.76770   0.00000  Uiso   1.00
C96    C     0.98163   0.19086   0.81249   0.00000  Uiso   1.00
C97    C     0.08324   0.20335   0.90530   0.00000  Uiso   1.00
C98    C     0.87364   0.19383   0.58390   0.00000  Uiso   1.00
C99    C     0.80551   0.21662   0.55459   0.00000  Uiso   1.00
C100   C     0.84118   0.23763   0.50191   0.00000  Uiso   1.00
C101   C     0.86150   0.27717   0.41495   0.00000  Uiso   1.00
C102   C     0.87899   0.13319   0.61434   0.00000  Uiso   1.00
C103   C     0.81535   0.10499   0.61059   0.00000  Uiso   1.00
C104   C     0.85551   0.07495   0.58352   0.00000  Uiso   1.00
C105   C     0.88413   0.02033   0.54382   0.00000  Uiso   1.00
C106   C     0.03521   0.16533   0.60068   0.00000  Uiso   1.00
C107   C     0.02619   0.17465   0.67717   0.00000  Uiso   1.00
C108   C     0.10599   0.18098   0.72187   0.00000  Uiso   1.00
C109   C     0.08201   0.18912   0.78995   0.00000  Uiso   1.00
C110   C     0.97384   0.19209   0.56140   0.00000  Uiso   1.00
C111   C     0.00961   0.21307   0.50875   0.00000  Uiso   1.00
C112   C     0.94156   0.23589   0.47937   0.00000  Uiso   1.00
C113   C     0.97919   0.13145   0.59184   0.00000  Uiso   1.00
C114   C     0.01946   0.10144   0.56476   0.00000  Uiso   1.00
C115   C     0.95589   0.07320   0.56098   0.00000  Uiso   1.00
H116   H     0.77272   0.16990   0.65962   0.00000  Uiso   1.00
H117   H     0.82433   0.18588   0.78509   0.00000  Uiso   1.00
H118   H     0.72797   0.21796   0.57200   0.00000  Uiso   1.00
H119   H     0.73781   0.10635   0.62801   0.00000  Uiso   1.00
H120   H     0.92574   0.20284   0.91427   0.00000  Uiso   1.00
H121   H     0.72255   0.27048   0.46495   0.00000  Uiso   1.00
H122   H     0.74330   0.03513   0.58304   0.00000  Uiso   1.00
H123   H     0.11322   0.16397   0.58316   0.00000  Uiso   1.00
H124   H     0.18352   0.17963   0.70444   0.00000  Uiso   1.00
H125   H     0.08716   0.21171   0.49135   0.00000  Uiso   1.00
H126   H     0.09700   0.10010   0.54735   0.00000  Uiso   1.00
H127   H     0.21727   0.19776   0.84881   0.00000  Uiso   1.00
H128   H     0.01408   0.26541   0.39949   0.00000  Uiso   1.00
H129   H     0.03483   0.03006   0.51758   0.00000  Uiso   1.00
O130   O     0.11161   0.21072   0.96270   0.00000  Uiso   1.00
O131   O     0.84502   0.29946   0.37320   0.00000  Uiso   1.00
O132   O     0.87224   0.99069   0.52814   0.00000  Uiso   1.00
N133   N     0.98471   0.19949   0.88223   0.00000  Uiso   1.00
N134   N     0.79474   0.26274   0.46215   0.00000  Uiso   1.00
N135   N     0.81413   0.04271   0.57253   0.00000  Uiso   1.00
N136   N     0.14158   0.19676   0.84700   0.00000  Uiso   1.00
N137   N     0.95161   0.26001   0.42692   0.00000  Uiso   1.00
N138   N     0.97100   0.03998   0.53731   0.00000  Uiso   1.00
C139   C     0.64927   0.83146   0.64210   0.00000  Uiso   1.00
C140   C     0.57401   0.82360   0.69967   0.00000  Uiso   1.00
C141   C     0.59811   0.81547   0.76770   0.00000  Uiso   1.00
C142   C     0.51837   0.80914   0.81249   0.00000  Uiso   1.00
C143   C     0.41676   0.79665   0.90530   0.00000  Uiso   1.00
C144   C     0.62636   0.80617   0.58390   0.00000  Uiso   1.00
C145   C     0.69449   0.78338   0.55459   0.00000  Uiso   1.00
C146   C     0.65882   0.76237   0.50191   0.00000  Uiso   1.00
C147   C     0.63850   0.72283   0.41495   0.00000  Uiso   1.00
C148   C     0.62101   0.86681   0.61434   0.00000  Uiso   1.00
C149   C     0.68465   0.89501   0.61059   0.00000  Uiso   1.00
C150   C     0.64449   0.92505   0.58352   0.00000  Uiso   1.00
C151   C     0.61587   0.97967   0.54382   0.00000  Uiso   1.00
C152   C     0.46479   0.83467   0.60068   0.00000  Uiso   1.00
C153   C     0.47381   0.82535   0.67717   0.00000  Uiso   1.00
C154   C     0.39401   0.81902   0.72187   0.00000  Uiso   1.00
C155   C     0.41799   0.81088   0.78995   0.00000  Uiso   1.00
C156   C     0.52616   0.80791   0.56140   0.00000  Uiso   1.00
C157   C     0.49039   0.78693   0.50875   0.00000  Uiso   1.00
C158   C     0.55844   0.76411   0.47937   0.00000  Uiso   1.00
C159   C     0.52081   0.86855   0.59184   0.00000  Uiso   1.00
C160   C     0.48054   0.89856   0.56476   0.00000  Uiso   1.00
C161   C     0.54411   0.92680   0.56098   0.00000  Uiso   1.00
H162   H     0.72728   0.83010   0.65962   0.00000  Uiso   1.00
H163   H     0.67567   0.81412   0.78509   0.00000  Uiso   1.00
H164   H     0.77203   0.78204   0.57200   0.00000  Uiso   1.00
H165   H     0.76219   0.89365   0.62801   0.00000  Uiso   1.00
H166   H     0.57426   0.79716   0.91427   0.00000  Uiso   1.00
H167   H     0.77745   0.72952   0.46495   0.00000  Uiso   1.00
H168   H     0.75670   0.96487   0.58304   0.00000  Uiso   1.00
H169   H     0.38678   0.83603   0.58316   0.00000  Uiso   1.00
H170   H     0.31648   0.82037   0.70444   0.00000  Uiso   1.00
H171   H     0.41284   0.78829   0.49135   0.00000  Uiso   1.00
H172   H     0.40300   0.89990   0.54735   0.00000  Uiso   1.00
H173   H     0.28273   0.80224   0.84881   0.00000  Uiso   1.00
H174   H     0.48592   0.73459   0.39949   0.00000  Uiso   1.00
H175   H     0.46517   0.96994   0.51758   0.00000  Uiso   1.00
O176   O     0.38839   0.78928   0.96270   0.00000  Uiso   1.00
O177   O     0.65498   0.70054   0.37320   0.00000  Uiso   1.00
O178   O     0.62776   0.00931   0.52814   0.00000  Uiso   1.00
N179   N     0.51529   0.80051   0.88223   0.00000  Uiso   1.00
N180   N     0.70526   0.73726   0.46215   0.00000  Uiso   1.00
N181   N     0.68587   0.95729   0.57253   0.00000  Uiso   1.00
N182   N     0.35842   0.80324   0.84700   0.00000  Uiso   1.00
N183   N     0.54839   0.73999   0.42692   0.00000  Uiso   1.00
N184   N     0.52900   0.96002   0.53731   0.00000  Uiso   1.00
C185   C     0.35073   0.33146   0.14210   0.00000  Uiso   1.00
C186   C     0.42599   0.32360   0.19967   0.00000  Uiso   1.00
C187   C     0.40189   0.31547   0.26770   0.00000  Uiso   1.00
C188   C     0.48163   0.30914   0.31249   0.00000  Uiso   1.00
C189   C     0.58324   0.29665   0.40530   0.00000  Uiso   1.00
C190   C     0.37364   0.30617   0.08390   0.00000  Uiso   1.00
C191   C     0.30551   0.28338   0.05459   0.00000  Uiso   1.00
C192   C     0.34118   0.26237   0.00191   0.00000  Uiso   1.00
C193   C     0.36150   0.22283   0.91495   0.00000  Uiso   1.00
C194   C     0.37899   0.36681   0.11434   0.00000  Uiso   1.00
C195   C     0.31535   0.39501   0.11059   0.00000  Uiso   1.00
C196   C     0.35551   0.42505   0.08352   0.00000  Uiso   1.00
C197   C     0.38413   0.47967   0.04382   0.00000  Uiso   1.00
C198   C     0.53521   0.33467   0.10068   0.00000  Uiso   1.00
C199   C     0.52619   0.32535   0.17717   0.00000  Uiso   1.00
C200   C     0.60599   0.31902   0.22187   0.00000  Uiso   1.00
C201   C     0.58201   0.31088   0.28995   0.00000  Uiso   1.00
C202   C     0.47384   0.30791   0.06140   0.00000  Uiso   1.00
C203   C     0.50961   0.28693   0.00875   0.00000  Uiso   1.00
C204   C     0.44156   0.26411   0.97937   0.00000  Uiso   1.00
C205   C     0.47919   0.36855   0.09184   0.00000  Uiso   1.00
C206   C     0.51946   0.39856   0.06476   0.00000  Uiso   1.00
C207   C     0.45589   0.42680   0.06098   0.00000  Uiso   1.00
H208   H     0.27272   0.33010   0.15962   0.00000  Uiso   1.00
H209   H     0.32433   0.31412   0.28509   0.00000  Uiso   1.00
H210   H     0.22797   0.28204   0.07200   0.00000  Uiso   1.00
H211   H     0.23781   0.39365   0.12801   0.00000  Uiso   1.00
H212   H     0.42574   0.29716   0.41427   0.00000  Uiso   1.00
H213   H     0.22255   0.22952   0.96495   0.00000  Uiso   1.00
H214   H     0.24330   0.46487   0.08304   0.00000  Uiso   1.00
H215   H     0.61322   0.33603   0.08316   0.00000  Uiso   1.00
H216   H     0.68352   0.32037   0.20444   0.00000  Uiso   1.00
H217   H     0.58716   0.28829   0.99135   0.00000  Uiso   1.00
H218   H     0.59700   0.39990   0.04735   0.00000  Uiso   1.00
H219   H     0.71727   0.30224   0.34881   0.00000  Uiso   1.00
H220   H     0.51408   0.23459   0.89949   0.00000  Uiso   1.00
H221   H     0.53483   0.46994   0.01758   0.00000  Uiso   1.00
O222   O     0.61161   0.28928   0.46270   0.00000  Uiso   1.00
O223   O     0.34502   0.20054   0.87320   0.00000  Uiso   1.00
O224   O     0.37224   0.50931   0.02814   0.00000  Uiso   1.00
N225   N     0.48471   0.30051   0.38223   0.00000  Uiso   1.00
N226   N     0.29474   0.23726   0.96215   0.00000  Uiso   1.00
N227   N     0.31413   0.45729   0.07253   0.00000  Uiso   1.00
N228   N     0.64158   0.30324   0.34700   0.00000  Uiso   1.00
N229   N     0.45161   0.23999   0.92692   0.00000  Uiso   1.00
N230   N     0.47100   0.46002   0.03731   0.00000  Uiso   1.00
C231   C     0.14927   0.66854   0.14210   0.00000  Uiso   1.00
C232   C     0.07401   0.67640   0.19967   0.00000  Uiso   1.00
C233   C     0.09811   0.68453   0.26770   0.00000  Uiso   1.00
C234   C     0.01837   0.69086   0.31249   0.00000  Uiso   1.00
C235   C     0.91676   0.70335   0.40530   0.00000  Uiso   1.00
C236   C     0.12636   0.69383   0.08390   0.00000  Uiso   1.00
C237   C     0.19449   0.71662   0.05459   0.00000  Uiso   1.00
C238   C     0.15882   0.73763   0.00191   0.00000  Uiso   1.00
C239   C     0.13850   0.77717   0.91495   0.00000  Uiso   1.00
C240   C     0.12101   0.63319   0.11434   0.00000  Uiso   1.00
C241   C     0.18465   0.60499   0.11059   0.00000  Uiso   1.00
C242   C     0.14449   0.57495   0.08352   0.00000  Uiso   1.00
C243   C     0.11587   0.52033   0.04382   0.00000  Uiso   1.00
C244   C     0.96479   0.66533   0.10068   0.00000  Uiso   1.00
C245   C     0.97381   0.67465   0.17717   0.00000  Uiso   1.00
C246   C     0.89401   0.68098   0.22187   0.00000  Uiso   1.00
C247   C     0.91799   0.68912   0.28995   0.00000  Uiso   1.00
C248   C     0.02616   0.69209   0.06140   0.00000  Uiso   1.00
C249   C     0.99039   0.71307   0.00875   0.00000  Uiso   1.00
C250   C     0.05844   0.73589   0.97937   0.00000  Uiso   1.00
C251   C     0.02081   0.63145   0.09184   0.00000  Uiso   1.00
C252   C     0.98054   0.60144   0.06476   0.00000  Uiso   1.00
C253   C     0.04411   0.57320   0.06098   0.00000  Uiso   1.00
H254   H     0.22728   0.66990   0.15962   0.00000  Uiso   1.00
H255   H     0.17567   0.68588   0.28509   0.00000  Uiso   1.00
H256   H     0.27203   0.71796   0.07200   0.00000  Uiso   1.00
H257   H     0.26219   0.60635   0.12801   0.00000  Uiso   1.00
H258   H     0.07426   0.70284   0.41427   0.00000  Uiso   1.00
H259   H     0.27745   0.77048   0.96495   0.00000  Uiso   1.00
H260   H     0.25670   0.53513   0.08304   0.00000  Uiso   1.00
H261   H     0.88678   0.66397   0.08316   0.00000  Uiso   1.00
H262   H     0.81648   0.67963   0.20444   0.00000  Uiso   1.00
H263   H     0.91284   0.71171   0.99135   0.00000  Uiso   1.00
H264   H     0.90300   0.60010   0.04735   0.00000  Uiso   1.00
H265   H     0.78273   0.69776   0.34881   0.00000  Uiso   1.00
H266   H     0.98592   0.76541   0.89949   0.00000  Uiso   1.00
H267   H     0.96517   0.53006   0.01758   0.00000  Uiso   1.00
O268   O     0.88839   0.71072   0.46270   0.00000  Uiso   1.00
O269   O     0.15498   0.79946   0.87320   0.00000  Uiso   1.00
O270   O     0.12776   0.49069   0.02814   0.00000  Uiso   1.00
N271   N     0.01529   0.69949   0.38223   0.00000  Uiso   1.00
N272   N     0.20526   0.76274   0.96215   0.00000  Uiso   1.00
N273   N     0.18587   0.54271   0.07253   0.00000  Uiso   1.00
N274   N     0.85842   0.69676   0.34700   0.00000  Uiso   1.00
N275   N     0.04839   0.76001   0.92692   0.00000  Uiso   1.00
N276   N     0.02900   0.53998   0.03731   0.00000  Uiso   1.00
C277   C     0.14927   0.83146   0.35790   0.00000  Uiso   1.00
C278   C     0.07401   0.82360   0.30033   0.00000  Uiso   1.00
C279   C     0.09811   0.81547   0.23230   0.00000  Uiso   1.00
C280   C     0.01837   0.80914   0.18751   0.00000  Uiso   1.00
C281   C     0.91676   0.79665   0.09470   0.00000  Uiso   1.00
C282   C     0.12636   0.80617   0.41610   0.00000  Uiso   1.00
C283   C     0.19449   0.78338   0.44541   0.00000  Uiso   1.00
C284   C     0.15882   0.76237   0.49809   0.00000  Uiso   1.00
C285   C     0.13850   0.72283   0.58505   0.00000  Uiso   1.00
C286   C     0.12101   0.86681   0.38566   0.00000  Uiso   1.00
C287   C     0.18465   0.89501   0.38941   0.00000  Uiso   1.00
C288   C     0.14449   0.92505   0.41648   0.00000  Uiso   1.00
C289   C     0.11587   0.97967   0.45618   0.00000  Uiso   1.00
C290   C     0.96479   0.83467   0.39932   0.00000  Uiso   1.00
C291   C     0.97381   0.82535   0.32283   0.00000  Uiso   1.00
C292   C     0.89401   0.81902   0.27813   0.00000  Uiso   1.00
C293   C     0.91799   0.81088   0.21005   0.00000  Uiso   1.00
C294   C     0.02616   0.80791   0.43860   0.00000  Uiso   1.00
C295   C     0.99039   0.78693   0.49125   0.00000  Uiso   1.00
C296   C     0.05844   0.76411   0.52063   0.00000  Uiso   1.00
C297   C     0.02081   0.86855   0.40816   0.00000  Uiso   1.00
C298   C     0.98054   0.89856   0.43524   0.00000  Uiso   1.00
C299   C     0.04411   0.92680   0.43902   0.00000  Uiso   1.00
H300   H     0.22728   0.83010   0.34038   0.00000  Uiso   1.00
H301   H     0.17567   0.81412   0.21491   0.00000  Uiso   1.00
H302   H     0.27203   0.78204   0.42800   0.00000  Uiso   1.00
H303   H     0.26219   0.89365   0.37199   0.00000  Uiso   1.00
H304   H     0.07426   0.79716   0.08573   0.00000  Uiso   1.00
H305   H     0.27745   0.72952   0.53505   0.00000  Uiso   1.00
H306   H     0.25670   0.96487   0.41696   0.00000  Uiso   1.00
H307   H     0.88678   0.83603   0.41684   0.00000  Uiso   1.00
H308   H     0.81648   0.82037   0.29556   0.00000  Uiso   1.00
H309   H     0.91284   0.78829   0.50865   0.00000  Uiso   1.00
H310   H     0.90300   0.89990   0.45265   0.00000  Uiso   1.00
H311   H     0.78273   0.80224   0.15119   0.00000  Uiso   1.00
H312   H     0.98592   0.73459   0.60051   0.00000  Uiso   1.00
H313   H     0.96517   0.96994   0.48242   0.00000  Uiso   1.00
O314   O     0.88839   0.78928   0.03730   0.00000  Uiso   1.00
O315   O     0.15498   0.70054   0.62680   0.00000  Uiso   1.00
O316   O     0.12776   0.00931   0.47186   0.00000  Uiso   1.00
N317   N     0.01529   0.80051   0.11777   0.00000  Uiso   1.00
N318   N     0.20526   0.73726   0.53785   0.00000  Uiso   1.00
N319   N     0.18587   0.95729   0.42747   0.00000  Uiso   1.00
N320   N     0.85842   0.80324   0.15300   0.00000  Uiso   1.00
N321   N     0.04839   0.73999   0.57308   0.00000  Uiso   1.00
N322   N     0.02900   0.96002   0.46269   0.00000  Uiso   1.00
C323   C     0.35073   0.16854   0.35790   0.00000  Uiso   1.00
C324   C     0.42599   0.17640   0.30033   0.00000  Uiso   1.00
C325   C     0.40189   0.18453   0.23230   0.00000  Uiso   1.00
C326   C     0.48163   0.19086   0.18751   0.00000  Uiso   1.00
C327   C     0.58324   0.20335   0.09470   0.00000  Uiso   1.00
C328   C     0.37364   0.19383   0.41610   0.00000  Uiso   1.00
C329   C     0.30551   0.21662   0.44541   0.00000  Uiso   1.00
C330   C     0.34118   0.23763   0.49809   0.00000  Uiso   1.00
C331   C     0.36150   0.27717   0.58505   0.00000  Uiso   1.00
C332   C     0.37899   0.13319   0.38566   0.00000  Uiso   1.00
C333   C     0.31535   0.10499   0.38941   0.00000  Uiso   1.00
C334   C     0.35551   0.07495   0.41648   0.00000  Uiso   1.00
C335   C     0.38413   0.02033   0.45618   0.00000  Uiso   1.00
C336   C     0.53521   0.16533   0.39932   0.00000  Uiso   1.00
C337   C     0.52619   0.17465   0.32283   0.00000  Uiso   1.00
C338   C     0.60599   0.18098   0.27813   0.00000  Uiso   1.00
C339   C     0.58201   0.18912   0.21005   0.00000  Uiso   1.00
C340   C     0.47384   0.19209   0.43860   0.00000  Uiso   1.00
C341   C     0.50961   0.21307   0.49125   0.00000  Uiso   1.00
C342   C     0.44156   0.23589   0.52063   0.00000  Uiso   1.00
C343   C     0.47919   0.13145   0.40816   0.00000  Uiso   1.00
C344   C     0.51946   0.10144   0.43524   0.00000  Uiso   1.00
C345   C     0.45589   0.07320   0.43902   0.00000  Uiso   1.00
H346   H     0.27272   0.16990   0.34038   0.00000  Uiso   1.00
H347   H     0.32433   0.18588   0.21491   0.00000  Uiso   1.00
H348   H     0.22797   0.21796   0.42800   0.00000  Uiso   1.00
H349   H     0.23781   0.10635   0.37199   0.00000  Uiso   1.00
H350   H     0.42574   0.20284   0.08573   0.00000  Uiso   1.00
H351   H     0.22255   0.27048   0.53505   0.00000  Uiso   1.00
H352   H     0.24330   0.03513   0.41696   0.00000  Uiso   1.00
H353   H     0.61322   0.16397   0.41684   0.00000  Uiso   1.00
H354   H     0.68352   0.17963   0.29556   0.00000  Uiso   1.00
H355   H     0.58716   0.21171   0.50865   0.00000  Uiso   1.00
H356   H     0.59700   0.10010   0.45265   0.00000  Uiso   1.00
H357   H     0.71727   0.19776   0.15119   0.00000  Uiso   1.00
H358   H     0.51408   0.26541   0.60051   0.00000  Uiso   1.00
H359   H     0.53483   0.03006   0.48242   0.00000  Uiso   1.00
O360   O     0.61161   0.21072   0.03730   0.00000  Uiso   1.00
O361   O     0.34502   0.29946   0.62680   0.00000  Uiso   1.00
O362   O     0.37224   0.99069   0.47186   0.00000  Uiso   1.00
N363   N     0.48471   0.19949   0.11777   0.00000  Uiso   1.00
N364   N     0.29474   0.26274   0.53785   0.00000  Uiso   1.00
N365   N     0.31413   0.04271   0.42747   0.00000  Uiso   1.00
N366   N     0.64158   0.19676   0.15300   0.00000  Uiso   1.00
N367   N     0.45161   0.26001   0.57308   0.00000  Uiso   1.00
N368   N     0.47100   0.03998   0.46269   0.00000  Uiso   1.00
