data_job_04028
_audit_creation_date              2018-12-19
_audit_creation_method            'Materials Studio'
_symmetry_space_group_name_H-M    'P1'
_symmetry_Int_Tables_number       1
_symmetry_cell_setting            triclinic
loop_
_symmetry_equiv_pos_as_xyz
  x,y,z
_cell_length_a                    7.4569
_cell_length_b                    28.1877
_cell_length_c                    12.3688
_cell_angle_alpha                 90.0000
_cell_angle_beta                  73.8121
_cell_angle_gamma                 90.0000
loop_
_atom_site_label
_atom_site_type_symbol
_atom_site_fract_x
_atom_site_fract_y
_atom_site_fract_z
_atom_site_U_iso_or_equiv
_atom_site_adp_type
_atom_site_occupancy
C1     C     0.72613   0.38352   0.10014   0.00000  Uiso   1.00
C2     C     0.68295   0.33135   0.08647   0.00000  Uiso   1.00
C3     C     0.51464   0.31345   0.07698   0.00000  Uiso   1.00
C4     C     0.50301   0.26465   0.06511   0.00000  Uiso   1.00
C5     C     0.41290   0.18817   0.04428   0.00000  Uiso   1.00
C6     C     0.78806   0.38661   0.20748   0.00000  Uiso   1.00
C7     C     0.70814   0.41518   0.29973   0.00000  Uiso   1.00
C8     C     0.78503   0.41291   0.38972   0.00000  Uiso   1.00
C9     C     0.85820   0.42225   0.55674   0.00000  Uiso   1.00
C10    C     0.89835   0.39504   0.00361   0.00000  Uiso   1.00
C11    C     0.91118   0.43071   0.92446   0.00000  Uiso   1.00
C12    C     0.08094   0.43555   0.84283   0.00000  Uiso   1.00
C13    C     0.32534   0.45798   0.69330   0.00000  Uiso   1.00
C14    C     0.00480   0.32871   0.09594   0.00000  Uiso   1.00
C15    C     0.83431   0.30158   0.08419   0.00000  Uiso   1.00
C16    C     0.82295   0.25280   0.07233   0.00000  Uiso   1.00
C17    C     0.65465   0.23483   0.06282   0.00000  Uiso   1.00
C18    C     0.93942   0.35684   0.20521   0.00000  Uiso   1.00
C19    C     0.01645   0.35453   0.29508   0.00000  Uiso   1.00
C20    C     0.93667   0.38308   0.38744   0.00000  Uiso   1.00
C21    C     0.04971   0.36527   0.00133   0.00000  Uiso   1.00
C22    C     0.21949   0.37006   0.91981   0.00000  Uiso   1.00
C23    C     0.23257   0.40572   0.84054   0.00000  Uiso   1.00
H24    H     0.60829   0.40670   0.10193   0.00000  Uiso   1.00
H25    H     0.39752   0.33650   0.07876   0.00000  Uiso   1.00
H26    H     0.59102   0.43822   0.30146   0.00000  Uiso   1.00
H27    H     0.79402   0.45374   0.92625   0.00000  Uiso   1.00
H28    H     0.23058   0.24553   0.05210   0.00000  Uiso   1.00
H29    H     0.63861   0.46002   0.52168   0.00000  Uiso   1.00
H30    H     0.06668   0.49276   0.73047   0.00000  Uiso   1.00
H31    H     0.12265   0.30553   0.09417   0.00000  Uiso   1.00
H32    H     0.94010   0.22977   0.07057   0.00000  Uiso   1.00
H33    H     0.13359   0.33149   0.29328   0.00000  Uiso   1.00
H34    H     0.33659   0.34702   0.91807   0.00000  Uiso   1.00
H35    H     0.67095   0.15891   0.04547   0.00000  Uiso   1.00
H36    H     0.07899   0.37340   0.51505   0.00000  Uiso   1.00
H37    H     0.50705   0.40614   0.72383   0.00000  Uiso   1.00
O38    O     0.32138   0.15421   0.03344   0.00000  Uiso   1.00
O39    O     0.85673   0.43562   0.64949   0.00000  Uiso   1.00
O40    O     0.41833   0.47857   0.61145   0.00000  Uiso   1.00
N41    N     0.35928   0.23554   0.05376   0.00000  Uiso   1.00
N42    N     0.74075   0.43607   0.49279   0.00000  Uiso   1.00
N43    N     0.14097   0.46669   0.75310   0.00000  Uiso   1.00
N44    N     0.59625   0.18893   0.05018   0.00000  Uiso   1.00
N45    N     0.97771   0.38946   0.48922   0.00000  Uiso   1.00
N46    N     0.37793   0.42008   0.74952   0.00000  Uiso   1.00
C47    C     0.27387   0.88352   0.39986   0.00000  Uiso   1.00
C48    C     0.31705   0.83135   0.41353   0.00000  Uiso   1.00
C49    C     0.48536   0.81345   0.42302   0.00000  Uiso   1.00
C50    C     0.49699   0.76465   0.43489   0.00000  Uiso   1.00
C51    C     0.58710   0.68817   0.45572   0.00000  Uiso   1.00
C52    C     0.21194   0.88661   0.29252   0.00000  Uiso   1.00
C53    C     0.29186   0.91518   0.20027   0.00000  Uiso   1.00
C54    C     0.21497   0.91291   0.11028   0.00000  Uiso   1.00
C55    C     0.14180   0.92225   0.94326   0.00000  Uiso   1.00
C56    C     0.10165   0.89504   0.49639   0.00000  Uiso   1.00
C57    C     0.08882   0.93071   0.57554   0.00000  Uiso   1.00
C58    C     0.91906   0.93555   0.65717   0.00000  Uiso   1.00
C59    C     0.67466   0.95798   0.80670   0.00000  Uiso   1.00
C60    C     0.99520   0.82871   0.40406   0.00000  Uiso   1.00
C61    C     0.16569   0.80158   0.41581   0.00000  Uiso   1.00
C62    C     0.17705   0.75280   0.42767   0.00000  Uiso   1.00
C63    C     0.34535   0.73483   0.43718   0.00000  Uiso   1.00
C64    C     0.06058   0.85684   0.29479   0.00000  Uiso   1.00
C65    C     0.98355   0.85453   0.20492   0.00000  Uiso   1.00
C66    C     0.06333   0.88308   0.11256   0.00000  Uiso   1.00
C67    C     0.95029   0.86527   0.49867   0.00000  Uiso   1.00
C68    C     0.78051   0.87006   0.58019   0.00000  Uiso   1.00
C69    C     0.76743   0.90572   0.65946   0.00000  Uiso   1.00
H70    H     0.39171   0.90670   0.39807   0.00000  Uiso   1.00
H71    H     0.60248   0.83650   0.42124   0.00000  Uiso   1.00
H72    H     0.40898   0.93822   0.19854   0.00000  Uiso   1.00
H73    H     0.20598   0.95374   0.57375   0.00000  Uiso   1.00
H74    H     0.76942   0.74553   0.44790   0.00000  Uiso   1.00
H75    H     0.36139   0.96002   0.97832   0.00000  Uiso   1.00
H76    H     0.93332   0.99276   0.76953   0.00000  Uiso   1.00
H77    H     0.87735   0.80553   0.40583   0.00000  Uiso   1.00
H78    H     0.05990   0.72977   0.42943   0.00000  Uiso   1.00
H79    H     0.86641   0.83149   0.20672   0.00000  Uiso   1.00
H80    H     0.66341   0.84702   0.58193   0.00000  Uiso   1.00
H81    H     0.32905   0.65891   0.45453   0.00000  Uiso   1.00
H82    H     0.92101   0.87340   0.98495   0.00000  Uiso   1.00
H83    H     0.49295   0.90614   0.77617   0.00000  Uiso   1.00
O84    O     0.67862   0.65421   0.46656   0.00000  Uiso   1.00
O85    O     0.14327   0.93562   0.85051   0.00000  Uiso   1.00
O86    O     0.58167   0.97857   0.88855   0.00000  Uiso   1.00
N87    N     0.64072   0.73554   0.44624   0.00000  Uiso   1.00
N88    N     0.25925   0.93607   0.00721   0.00000  Uiso   1.00
N89    N     0.85903   0.96669   0.74690   0.00000  Uiso   1.00
N90    N     0.40375   0.68893   0.44982   0.00000  Uiso   1.00
N91    N     0.02229   0.88946   0.01078   0.00000  Uiso   1.00
N92    N     0.62207   0.92008   0.75048   0.00000  Uiso   1.00
C93    C     0.27387   0.61648   0.89986   0.00000  Uiso   1.00
C94    C     0.31705   0.66865   0.91353   0.00000  Uiso   1.00
C95    C     0.48536   0.68655   0.92302   0.00000  Uiso   1.00
C96    C     0.49699   0.73535   0.93489   0.00000  Uiso   1.00
C97    C     0.58710   0.81183   0.95572   0.00000  Uiso   1.00
C98    C     0.21194   0.61339   0.79252   0.00000  Uiso   1.00
C99    C     0.29186   0.58482   0.70027   0.00000  Uiso   1.00
C100   C     0.21497   0.58709   0.61028   0.00000  Uiso   1.00
C101   C     0.14180   0.57775   0.44326   0.00000  Uiso   1.00
C102   C     0.10165   0.60496   0.99639   0.00000  Uiso   1.00
C103   C     0.08882   0.56929   0.07554   0.00000  Uiso   1.00
C104   C     0.91906   0.56445   0.15717   0.00000  Uiso   1.00
C105   C     0.67466   0.54202   0.30670   0.00000  Uiso   1.00
C106   C     0.99520   0.67129   0.90406   0.00000  Uiso   1.00
C107   C     0.16569   0.69842   0.91581   0.00000  Uiso   1.00
C108   C     0.17705   0.74720   0.92767   0.00000  Uiso   1.00
C109   C     0.34535   0.76517   0.93718   0.00000  Uiso   1.00
C110   C     0.06058   0.64316   0.79479   0.00000  Uiso   1.00
C111   C     0.98355   0.64547   0.70492   0.00000  Uiso   1.00
C112   C     0.06333   0.61692   0.61256   0.00000  Uiso   1.00
C113   C     0.95029   0.63473   0.99867   0.00000  Uiso   1.00
C114   C     0.78051   0.62994   0.08019   0.00000  Uiso   1.00
C115   C     0.76743   0.59428   0.15946   0.00000  Uiso   1.00
H116   H     0.39171   0.59330   0.89807   0.00000  Uiso   1.00
H117   H     0.60248   0.66350   0.92124   0.00000  Uiso   1.00
H118   H     0.40898   0.56178   0.69854   0.00000  Uiso   1.00
H119   H     0.20598   0.54626   0.07375   0.00000  Uiso   1.00
H120   H     0.76942   0.75447   0.94790   0.00000  Uiso   1.00
H121   H     0.36139   0.53998   0.47832   0.00000  Uiso   1.00
H122   H     0.93332   0.50724   0.26953   0.00000  Uiso   1.00
H123   H     0.87735   0.69447   0.90583   0.00000  Uiso   1.00
H124   H     0.05990   0.77023   0.92943   0.00000  Uiso   1.00
H125   H     0.86641   0.66851   0.70672   0.00000  Uiso   1.00
H126   H     0.66341   0.65298   0.08193   0.00000  Uiso   1.00
H127   H     0.32905   0.84109   0.95453   0.00000  Uiso   1.00
H128   H     0.92101   0.62660   0.48495   0.00000  Uiso   1.00
H129   H     0.49295   0.59386   0.27617   0.00000  Uiso   1.00
O130   O     0.67862   0.84579   0.96656   0.00000  Uiso   1.00
O131   O     0.14327   0.56438   0.35051   0.00000  Uiso   1.00
O132   O     0.58167   0.52143   0.38855   0.00000  Uiso   1.00
N133   N     0.64072   0.76446   0.94624   0.00000  Uiso   1.00
N134   N     0.25925   0.56393   0.50721   0.00000  Uiso   1.00
N135   N     0.85903   0.53331   0.24690   0.00000  Uiso   1.00
N136   N     0.40375   0.81107   0.94982   0.00000  Uiso   1.00
N137   N     0.02229   0.61054   0.51078   0.00000  Uiso   1.00
N138   N     0.62207   0.57992   0.25048   0.00000  Uiso   1.00
C139   C     0.72613   0.11648   0.60014   0.00000  Uiso   1.00
C140   C     0.68295   0.16865   0.58647   0.00000  Uiso   1.00
C141   C     0.51464   0.18655   0.57698   0.00000  Uiso   1.00
C142   C     0.50301   0.23535   0.56511   0.00000  Uiso   1.00
C143   C     0.41290   0.31183   0.54428   0.00000  Uiso   1.00
C144   C     0.78806   0.11339   0.70748   0.00000  Uiso   1.00
C145   C     0.70814   0.08482   0.79973   0.00000  Uiso   1.00
C146   C     0.78503   0.08709   0.88972   0.00000  Uiso   1.00
C147   C     0.85820   0.07775   0.05674   0.00000  Uiso   1.00
C148   C     0.89835   0.10496   0.50361   0.00000  Uiso   1.00
C149   C     0.91118   0.06929   0.42446   0.00000  Uiso   1.00
C150   C     0.08094   0.06445   0.34283   0.00000  Uiso   1.00
C151   C     0.32534   0.04202   0.19330   0.00000  Uiso   1.00
C152   C     0.00480   0.17129   0.59594   0.00000  Uiso   1.00
C153   C     0.83431   0.19842   0.58419   0.00000  Uiso   1.00
C154   C     0.82295   0.24720   0.57233   0.00000  Uiso   1.00
C155   C     0.65465   0.26517   0.56282   0.00000  Uiso   1.00
C156   C     0.93942   0.14316   0.70521   0.00000  Uiso   1.00
C157   C     0.01645   0.14547   0.79508   0.00000  Uiso   1.00
C158   C     0.93667   0.11692   0.88744   0.00000  Uiso   1.00
C159   C     0.04971   0.13473   0.50133   0.00000  Uiso   1.00
C160   C     0.21949   0.12994   0.41981   0.00000  Uiso   1.00
C161   C     0.23257   0.09428   0.34054   0.00000  Uiso   1.00
H162   H     0.60829   0.09330   0.60193   0.00000  Uiso   1.00
H163   H     0.39752   0.16350   0.57876   0.00000  Uiso   1.00
H164   H     0.59102   0.06178   0.80146   0.00000  Uiso   1.00
H165   H     0.79402   0.04626   0.42625   0.00000  Uiso   1.00
H166   H     0.23058   0.25447   0.55210   0.00000  Uiso   1.00
H167   H     0.63861   0.03998   0.02168   0.00000  Uiso   1.00
H168   H     0.06668   0.00724   0.23047   0.00000  Uiso   1.00
H169   H     0.12265   0.19447   0.59417   0.00000  Uiso   1.00
H170   H     0.94010   0.27023   0.57057   0.00000  Uiso   1.00
H171   H     0.13359   0.16851   0.79328   0.00000  Uiso   1.00
H172   H     0.33659   0.15298   0.41807   0.00000  Uiso   1.00
H173   H     0.67095   0.34109   0.54547   0.00000  Uiso   1.00
H174   H     0.07899   0.12660   0.01505   0.00000  Uiso   1.00
H175   H     0.50705   0.09386   0.22383   0.00000  Uiso   1.00
O176   O     0.32138   0.34579   0.53344   0.00000  Uiso   1.00
O177   O     0.85673   0.06438   0.14949   0.00000  Uiso   1.00
O178   O     0.41833   0.02143   0.11145   0.00000  Uiso   1.00
N179   N     0.35928   0.26446   0.55376   0.00000  Uiso   1.00
N180   N     0.74075   0.06393   0.99279   0.00000  Uiso   1.00
N181   N     0.14097   0.03331   0.25310   0.00000  Uiso   1.00
N182   N     0.59625   0.31107   0.55018   0.00000  Uiso   1.00
N183   N     0.97771   0.11054   0.98922   0.00000  Uiso   1.00
N184   N     0.37793   0.07992   0.24952   0.00000  Uiso   1.00
