data_job_04928
_audit_creation_date              2018-12-19
_audit_creation_method            'Materials Studio'
_symmetry_space_group_name_H-M    'P1'
_symmetry_Int_Tables_number       1
_symmetry_cell_setting            triclinic
loop_
_symmetry_equiv_pos_as_xyz
  x,y,z
_cell_length_a                    23.1060
_cell_length_b                    26.6182
_cell_length_c                    10.1151
_cell_angle_alpha                 90.0000
_cell_angle_beta                  90.0000
_cell_angle_gamma                 90.0000
loop_
_atom_site_label
_atom_site_type_symbol
_atom_site_fract_x
_atom_site_fract_y
_atom_site_fract_z
_atom_site_U_iso_or_equiv
_atom_site_adp_type
_atom_site_occupancy
C1     C     0.08315   0.87590   0.35956   0.00000  Uiso   1.00
C2     C     0.02575   0.90215   0.38728   0.00000  Uiso   1.00
C3     C     0.01063   0.92580   0.50456   0.00000  Uiso   1.00
C4     C     0.95610   0.94759   0.51030   0.00000  Uiso   1.00
C5     C     0.87275   0.98860   0.56976   0.00000  Uiso   1.00
C6     C     0.06786   0.82233   0.31915   0.00000  Uiso   1.00
C7     C     0.08814   0.77887   0.37914   0.00000  Uiso   1.00
C8     C     0.06905   0.73347   0.32750   0.00000  Uiso   1.00
C9     C     0.05110   0.65056   0.28113   0.00000  Uiso   1.00
C10    C     0.10790   0.90092   0.23629   0.00000  Uiso   1.00
C11    C     0.16185   0.92354   0.22660   0.00000  Uiso   1.00
C12    C     0.17648   0.94430   0.10519   0.00000  Uiso   1.00
C13    C     0.22069   0.98342   0.93017   0.00000  Uiso   1.00
C14    C     0.01320   0.87255   0.16116   0.00000  Uiso   1.00
C15    C     0.98776   0.90032   0.27952   0.00000  Uiso   1.00
C16    C     0.93323   0.92209   0.28507   0.00000  Uiso   1.00
C17    C     0.91803   0.94577   0.40234   0.00000  Uiso   1.00
C18    C     0.02986   0.82050   0.21139   0.00000  Uiso   1.00
C19    C     0.01074   0.77516   0.15964   0.00000  Uiso   1.00
C20    C     0.03099   0.73164   0.21955   0.00000  Uiso   1.00
C21    C     0.06990   0.89910   0.12853   0.00000  Uiso   1.00
C22    C     0.08445   0.91983   0.00711   0.00000  Uiso   1.00
C23    C     0.13841   0.94247   0.99724   0.00000  Uiso   1.00
H24    H     0.11273   0.87731   0.44345   0.00000  Uiso   1.00
H25    H     0.04004   0.92719   0.58794   0.00000  Uiso   1.00
H26    H     0.11754   0.78029   0.46252   0.00000  Uiso   1.00
H27    H     0.19124   0.92494   0.31001   0.00000  Uiso   1.00
H28    H     0.94269   0.98167   0.70063   0.00000  Uiso   1.00
H29    H     0.10612   0.67192   0.43615   0.00000  Uiso   1.00
H30    H     0.26153   0.97694   0.11455   0.00000  Uiso   1.00
H31    H     0.98361   0.87113   0.07726   0.00000  Uiso   1.00
H32    H     0.90384   0.92067   0.20166   0.00000  Uiso   1.00
H33    H     0.98134   0.77376   0.07625   0.00000  Uiso   1.00
H34    H     0.05504   0.91841   0.92374   0.00000  Uiso   1.00
H35    H     0.83214   0.97638   0.38711   0.00000  Uiso   1.00
H36    H     0.99558   0.66662   0.12264   0.00000  Uiso   1.00
H37    H     0.15098   0.97164   0.80104   0.00000  Uiso   1.00
O38    O     0.83726   0.01171   0.63233   0.00000  Uiso   1.00
O39    O     0.05169   0.60533   0.28533   0.00000  Uiso   1.00
O40    O     0.25557   0.00551   0.86340   0.00000  Uiso   1.00
N41    N     0.92763   0.97364   0.60976   0.00000  Uiso   1.00
N42    N     0.08042   0.68403   0.36251   0.00000  Uiso   1.00
N43    N     0.22571   0.96919   0.06183   0.00000  Uiso   1.00
N44    N     0.86814   0.97079   0.44106   0.00000  Uiso   1.00
N45    N     0.02093   0.68118   0.19381   0.00000  Uiso   1.00
N46    N     0.16623   0.96634   0.89313   0.00000  Uiso   1.00
C47    C     0.08315   0.37590   0.85956   0.00000  Uiso   1.00
C48    C     0.02575   0.40215   0.88728   0.00000  Uiso   1.00
C49    C     0.01063   0.42580   0.00456   0.00000  Uiso   1.00
C50    C     0.95610   0.44759   0.01030   0.00000  Uiso   1.00
C51    C     0.87275   0.48860   0.06976   0.00000  Uiso   1.00
C52    C     0.06786   0.32233   0.81915   0.00000  Uiso   1.00
C53    C     0.08814   0.27887   0.87914   0.00000  Uiso   1.00
C54    C     0.06905   0.23347   0.82750   0.00000  Uiso   1.00
C55    C     0.05110   0.15056   0.78113   0.00000  Uiso   1.00
C56    C     0.10790   0.40092   0.73629   0.00000  Uiso   1.00
C57    C     0.16185   0.42354   0.72660   0.00000  Uiso   1.00
C58    C     0.17648   0.44430   0.60519   0.00000  Uiso   1.00
C59    C     0.22069   0.48342   0.43017   0.00000  Uiso   1.00
C60    C     0.01320   0.37255   0.66116   0.00000  Uiso   1.00
C61    C     0.98776   0.40032   0.77952   0.00000  Uiso   1.00
C62    C     0.93323   0.42209   0.78507   0.00000  Uiso   1.00
C63    C     0.91803   0.44577   0.90234   0.00000  Uiso   1.00
C64    C     0.02986   0.32050   0.71139   0.00000  Uiso   1.00
C65    C     0.01074   0.27516   0.65964   0.00000  Uiso   1.00
C66    C     0.03099   0.23164   0.71955   0.00000  Uiso   1.00
C67    C     0.06990   0.39910   0.62853   0.00000  Uiso   1.00
C68    C     0.08445   0.41983   0.50711   0.00000  Uiso   1.00
C69    C     0.13841   0.44247   0.49724   0.00000  Uiso   1.00
H70    H     0.11273   0.37731   0.94345   0.00000  Uiso   1.00
H71    H     0.04004   0.42719   0.08794   0.00000  Uiso   1.00
H72    H     0.11754   0.28029   0.96252   0.00000  Uiso   1.00
H73    H     0.19124   0.42494   0.81001   0.00000  Uiso   1.00
H74    H     0.94269   0.48167   0.20063   0.00000  Uiso   1.00
H75    H     0.10612   0.17192   0.93615   0.00000  Uiso   1.00
H76    H     0.26153   0.47694   0.61455   0.00000  Uiso   1.00
H77    H     0.98361   0.37113   0.57726   0.00000  Uiso   1.00
H78    H     0.90384   0.42067   0.70166   0.00000  Uiso   1.00
H79    H     0.98134   0.27376   0.57625   0.00000  Uiso   1.00
H80    H     0.05504   0.41841   0.42374   0.00000  Uiso   1.00
H81    H     0.83214   0.47638   0.88711   0.00000  Uiso   1.00
H82    H     0.99558   0.16662   0.62264   0.00000  Uiso   1.00
H83    H     0.15098   0.47164   0.30104   0.00000  Uiso   1.00
O84    O     0.83726   0.51171   0.13233   0.00000  Uiso   1.00
O85    O     0.05169   0.10533   0.78533   0.00000  Uiso   1.00
O86    O     0.25557   0.50551   0.36340   0.00000  Uiso   1.00
N87    N     0.92763   0.47364   0.10976   0.00000  Uiso   1.00
N88    N     0.08042   0.18403   0.86251   0.00000  Uiso   1.00
N89    N     0.22571   0.46919   0.56183   0.00000  Uiso   1.00
N90    N     0.86814   0.47079   0.94106   0.00000  Uiso   1.00
N91    N     0.02093   0.18118   0.69381   0.00000  Uiso   1.00
N92    N     0.16623   0.46634   0.39313   0.00000  Uiso   1.00
C93    C     0.91685   0.12410   0.35956   0.00000  Uiso   1.00
C94    C     0.97425   0.09785   0.38728   0.00000  Uiso   1.00
C95    C     0.98937   0.07420   0.50456   0.00000  Uiso   1.00
C96    C     0.04390   0.05241   0.51030   0.00000  Uiso   1.00
C97    C     0.12725   0.01140   0.56976   0.00000  Uiso   1.00
C98    C     0.93214   0.17767   0.31915   0.00000  Uiso   1.00
C99    C     0.91186   0.22113   0.37914   0.00000  Uiso   1.00
C100   C     0.93095   0.26653   0.32750   0.00000  Uiso   1.00
C101   C     0.94890   0.34944   0.28113   0.00000  Uiso   1.00
C102   C     0.89210   0.09908   0.23629   0.00000  Uiso   1.00
C103   C     0.83815   0.07646   0.22660   0.00000  Uiso   1.00
C104   C     0.82352   0.05570   0.10519   0.00000  Uiso   1.00
C105   C     0.77931   0.01658   0.93017   0.00000  Uiso   1.00
C106   C     0.98680   0.12745   0.16116   0.00000  Uiso   1.00
C107   C     0.01224   0.09968   0.27952   0.00000  Uiso   1.00
C108   C     0.06677   0.07791   0.28507   0.00000  Uiso   1.00
C109   C     0.08197   0.05423   0.40234   0.00000  Uiso   1.00
C110   C     0.97014   0.17950   0.21139   0.00000  Uiso   1.00
C111   C     0.98926   0.22484   0.15964   0.00000  Uiso   1.00
C112   C     0.96901   0.26836   0.21955   0.00000  Uiso   1.00
C113   C     0.93010   0.10090   0.12853   0.00000  Uiso   1.00
C114   C     0.91555   0.08017   0.00711   0.00000  Uiso   1.00
C115   C     0.86159   0.05753   0.99724   0.00000  Uiso   1.00
H116   H     0.88727   0.12269   0.44345   0.00000  Uiso   1.00
H117   H     0.95996   0.07281   0.58794   0.00000  Uiso   1.00
H118   H     0.88246   0.21971   0.46252   0.00000  Uiso   1.00
H119   H     0.80876   0.07506   0.31001   0.00000  Uiso   1.00
H120   H     0.05731   0.01833   0.70063   0.00000  Uiso   1.00
H121   H     0.89388   0.32808   0.43615   0.00000  Uiso   1.00
H122   H     0.73847   0.02306   0.11455   0.00000  Uiso   1.00
H123   H     0.01639   0.12887   0.07726   0.00000  Uiso   1.00
H124   H     0.09616   0.07933   0.20166   0.00000  Uiso   1.00
H125   H     0.01866   0.22624   0.07625   0.00000  Uiso   1.00
H126   H     0.94496   0.08159   0.92374   0.00000  Uiso   1.00
H127   H     0.16786   0.02362   0.38711   0.00000  Uiso   1.00
H128   H     0.00442   0.33338   0.12264   0.00000  Uiso   1.00
H129   H     0.84902   0.02836   0.80104   0.00000  Uiso   1.00
O130   O     0.16274   0.98829   0.63233   0.00000  Uiso   1.00
O131   O     0.94831   0.39467   0.28533   0.00000  Uiso   1.00
O132   O     0.74443   0.99449   0.86340   0.00000  Uiso   1.00
N133   N     0.07237   0.02636   0.60976   0.00000  Uiso   1.00
N134   N     0.91958   0.31597   0.36251   0.00000  Uiso   1.00
N135   N     0.77429   0.03081   0.06183   0.00000  Uiso   1.00
N136   N     0.13186   0.02921   0.44106   0.00000  Uiso   1.00
N137   N     0.97907   0.31882   0.19381   0.00000  Uiso   1.00
N138   N     0.83377   0.03366   0.89313   0.00000  Uiso   1.00
C139   C     0.91685   0.62410   0.85956   0.00000  Uiso   1.00
C140   C     0.97425   0.59785   0.88728   0.00000  Uiso   1.00
C141   C     0.98937   0.57420   0.00456   0.00000  Uiso   1.00
C142   C     0.04390   0.55241   0.01030   0.00000  Uiso   1.00
C143   C     0.12725   0.51140   0.06976   0.00000  Uiso   1.00
C144   C     0.93214   0.67767   0.81915   0.00000  Uiso   1.00
C145   C     0.91186   0.72113   0.87914   0.00000  Uiso   1.00
C146   C     0.93095   0.76653   0.82750   0.00000  Uiso   1.00
C147   C     0.94890   0.84944   0.78113   0.00000  Uiso   1.00
C148   C     0.89210   0.59908   0.73629   0.00000  Uiso   1.00
C149   C     0.83815   0.57646   0.72660   0.00000  Uiso   1.00
C150   C     0.82352   0.55570   0.60519   0.00000  Uiso   1.00
C151   C     0.77931   0.51658   0.43017   0.00000  Uiso   1.00
C152   C     0.98680   0.62745   0.66116   0.00000  Uiso   1.00
C153   C     0.01224   0.59968   0.77952   0.00000  Uiso   1.00
C154   C     0.06677   0.57791   0.78507   0.00000  Uiso   1.00
C155   C     0.08197   0.55423   0.90234   0.00000  Uiso   1.00
C156   C     0.97014   0.67950   0.71139   0.00000  Uiso   1.00
C157   C     0.98926   0.72484   0.65964   0.00000  Uiso   1.00
C158   C     0.96901   0.76836   0.71955   0.00000  Uiso   1.00
C159   C     0.93010   0.60090   0.62853   0.00000  Uiso   1.00
C160   C     0.91555   0.58017   0.50711   0.00000  Uiso   1.00
C161   C     0.86159   0.55753   0.49724   0.00000  Uiso   1.00
H162   H     0.88727   0.62269   0.94345   0.00000  Uiso   1.00
H163   H     0.95996   0.57281   0.08794   0.00000  Uiso   1.00
H164   H     0.88246   0.71971   0.96252   0.00000  Uiso   1.00
H165   H     0.80876   0.57506   0.81001   0.00000  Uiso   1.00
H166   H     0.05731   0.51833   0.20063   0.00000  Uiso   1.00
H167   H     0.89388   0.82808   0.93615   0.00000  Uiso   1.00
H168   H     0.73847   0.52306   0.61455   0.00000  Uiso   1.00
H169   H     0.01639   0.62887   0.57726   0.00000  Uiso   1.00
H170   H     0.09616   0.57933   0.70166   0.00000  Uiso   1.00
H171   H     0.01866   0.72624   0.57625   0.00000  Uiso   1.00
H172   H     0.94496   0.58159   0.42374   0.00000  Uiso   1.00
H173   H     0.16786   0.52362   0.88711   0.00000  Uiso   1.00
H174   H     0.00442   0.83338   0.62264   0.00000  Uiso   1.00
H175   H     0.84902   0.52836   0.30104   0.00000  Uiso   1.00
O176   O     0.16274   0.48829   0.13233   0.00000  Uiso   1.00
O177   O     0.94831   0.89467   0.78533   0.00000  Uiso   1.00
O178   O     0.74443   0.49449   0.36340   0.00000  Uiso   1.00
N179   N     0.07237   0.52636   0.10976   0.00000  Uiso   1.00
N180   N     0.91958   0.81597   0.86251   0.00000  Uiso   1.00
N181   N     0.77429   0.53081   0.56183   0.00000  Uiso   1.00
N182   N     0.13186   0.52921   0.94106   0.00000  Uiso   1.00
N183   N     0.97907   0.81882   0.69381   0.00000  Uiso   1.00
N184   N     0.83377   0.53366   0.39313   0.00000  Uiso   1.00
C185   C     0.58315   0.62410   0.35956   0.00000  Uiso   1.00
C186   C     0.52575   0.59785   0.38728   0.00000  Uiso   1.00
C187   C     0.51063   0.57420   0.50456   0.00000  Uiso   1.00
C188   C     0.45610   0.55241   0.51030   0.00000  Uiso   1.00
C189   C     0.37275   0.51140   0.56976   0.00000  Uiso   1.00
C190   C     0.56786   0.67767   0.31915   0.00000  Uiso   1.00
C191   C     0.58814   0.72113   0.37914   0.00000  Uiso   1.00
C192   C     0.56905   0.76653   0.32750   0.00000  Uiso   1.00
C193   C     0.55110   0.84944   0.28113   0.00000  Uiso   1.00
C194   C     0.60790   0.59908   0.23629   0.00000  Uiso   1.00
C195   C     0.66185   0.57646   0.22660   0.00000  Uiso   1.00
C196   C     0.67648   0.55570   0.10519   0.00000  Uiso   1.00
C197   C     0.72069   0.51658   0.93017   0.00000  Uiso   1.00
C198   C     0.51320   0.62745   0.16116   0.00000  Uiso   1.00
C199   C     0.48776   0.59968   0.27952   0.00000  Uiso   1.00
C200   C     0.43323   0.57791   0.28507   0.00000  Uiso   1.00
C201   C     0.41803   0.55423   0.40234   0.00000  Uiso   1.00
C202   C     0.52986   0.67950   0.21139   0.00000  Uiso   1.00
C203   C     0.51074   0.72484   0.15964   0.00000  Uiso   1.00
C204   C     0.53099   0.76836   0.21955   0.00000  Uiso   1.00
C205   C     0.56990   0.60090   0.12853   0.00000  Uiso   1.00
C206   C     0.58445   0.58017   0.00711   0.00000  Uiso   1.00
C207   C     0.63841   0.55753   0.99724   0.00000  Uiso   1.00
H208   H     0.61273   0.62269   0.44345   0.00000  Uiso   1.00
H209   H     0.54004   0.57281   0.58794   0.00000  Uiso   1.00
H210   H     0.61754   0.71971   0.46252   0.00000  Uiso   1.00
H211   H     0.69124   0.57506   0.31001   0.00000  Uiso   1.00
H212   H     0.44269   0.51833   0.70063   0.00000  Uiso   1.00
H213   H     0.60612   0.82808   0.43615   0.00000  Uiso   1.00
H214   H     0.76153   0.52306   0.11455   0.00000  Uiso   1.00
H215   H     0.48361   0.62887   0.07726   0.00000  Uiso   1.00
H216   H     0.40384   0.57933   0.20166   0.00000  Uiso   1.00
H217   H     0.48134   0.72624   0.07625   0.00000  Uiso   1.00
H218   H     0.55504   0.58159   0.92374   0.00000  Uiso   1.00
H219   H     0.33214   0.52362   0.38711   0.00000  Uiso   1.00
H220   H     0.49558   0.83338   0.12264   0.00000  Uiso   1.00
H221   H     0.65098   0.52836   0.80104   0.00000  Uiso   1.00
O222   O     0.33726   0.48829   0.63233   0.00000  Uiso   1.00
O223   O     0.55169   0.89467   0.28533   0.00000  Uiso   1.00
O224   O     0.75557   0.49449   0.86340   0.00000  Uiso   1.00
N225   N     0.42763   0.52636   0.60976   0.00000  Uiso   1.00
N226   N     0.58042   0.81597   0.36251   0.00000  Uiso   1.00
N227   N     0.72571   0.53081   0.06183   0.00000  Uiso   1.00
N228   N     0.36814   0.52921   0.44106   0.00000  Uiso   1.00
N229   N     0.52093   0.81882   0.19381   0.00000  Uiso   1.00
N230   N     0.66623   0.53366   0.89313   0.00000  Uiso   1.00
C231   C     0.58315   0.12410   0.85956   0.00000  Uiso   1.00
C232   C     0.52575   0.09785   0.88728   0.00000  Uiso   1.00
C233   C     0.51063   0.07420   0.00456   0.00000  Uiso   1.00
C234   C     0.45610   0.05241   0.01030   0.00000  Uiso   1.00
C235   C     0.37275   0.01140   0.06976   0.00000  Uiso   1.00
C236   C     0.56786   0.17767   0.81915   0.00000  Uiso   1.00
C237   C     0.58814   0.22113   0.87914   0.00000  Uiso   1.00
C238   C     0.56905   0.26653   0.82750   0.00000  Uiso   1.00
C239   C     0.55110   0.34944   0.78113   0.00000  Uiso   1.00
C240   C     0.60790   0.09908   0.73629   0.00000  Uiso   1.00
C241   C     0.66185   0.07646   0.72660   0.00000  Uiso   1.00
C242   C     0.67648   0.05570   0.60519   0.00000  Uiso   1.00
C243   C     0.72069   0.01658   0.43017   0.00000  Uiso   1.00
C244   C     0.51320   0.12745   0.66116   0.00000  Uiso   1.00
C245   C     0.48776   0.09968   0.77952   0.00000  Uiso   1.00
C246   C     0.43323   0.07791   0.78507   0.00000  Uiso   1.00
C247   C     0.41803   0.05423   0.90234   0.00000  Uiso   1.00
C248   C     0.52986   0.17950   0.71139   0.00000  Uiso   1.00
C249   C     0.51074   0.22484   0.65964   0.00000  Uiso   1.00
C250   C     0.53099   0.26836   0.71955   0.00000  Uiso   1.00
C251   C     0.56990   0.10090   0.62853   0.00000  Uiso   1.00
C252   C     0.58445   0.08017   0.50711   0.00000  Uiso   1.00
C253   C     0.63841   0.05753   0.49724   0.00000  Uiso   1.00
H254   H     0.61273   0.12269   0.94345   0.00000  Uiso   1.00
H255   H     0.54004   0.07281   0.08794   0.00000  Uiso   1.00
H256   H     0.61754   0.21971   0.96252   0.00000  Uiso   1.00
H257   H     0.69124   0.07506   0.81001   0.00000  Uiso   1.00
H258   H     0.44269   0.01833   0.20063   0.00000  Uiso   1.00
H259   H     0.60612   0.32808   0.93615   0.00000  Uiso   1.00
H260   H     0.76153   0.02306   0.61455   0.00000  Uiso   1.00
H261   H     0.48361   0.12887   0.57726   0.00000  Uiso   1.00
H262   H     0.40384   0.07933   0.70166   0.00000  Uiso   1.00
H263   H     0.48134   0.22624   0.57625   0.00000  Uiso   1.00
H264   H     0.55504   0.08159   0.42374   0.00000  Uiso   1.00
H265   H     0.33214   0.02362   0.88711   0.00000  Uiso   1.00
H266   H     0.49558   0.33338   0.62264   0.00000  Uiso   1.00
H267   H     0.65098   0.02836   0.30104   0.00000  Uiso   1.00
O268   O     0.33726   0.98829   0.13233   0.00000  Uiso   1.00
O269   O     0.55169   0.39467   0.78533   0.00000  Uiso   1.00
O270   O     0.75557   0.99449   0.36340   0.00000  Uiso   1.00
N271   N     0.42763   0.02636   0.10976   0.00000  Uiso   1.00
N272   N     0.58042   0.31597   0.86251   0.00000  Uiso   1.00
N273   N     0.72571   0.03081   0.56183   0.00000  Uiso   1.00
N274   N     0.36814   0.02921   0.94106   0.00000  Uiso   1.00
N275   N     0.52093   0.31882   0.69381   0.00000  Uiso   1.00
N276   N     0.66623   0.03366   0.39313   0.00000  Uiso   1.00
C277   C     0.41685   0.37590   0.35956   0.00000  Uiso   1.00
C278   C     0.47425   0.40215   0.38728   0.00000  Uiso   1.00
C279   C     0.48937   0.42580   0.50456   0.00000  Uiso   1.00
C280   C     0.54390   0.44759   0.51030   0.00000  Uiso   1.00
C281   C     0.62725   0.48860   0.56976   0.00000  Uiso   1.00
C282   C     0.43214   0.32233   0.31915   0.00000  Uiso   1.00
C283   C     0.41186   0.27887   0.37914   0.00000  Uiso   1.00
C284   C     0.43095   0.23347   0.32750   0.00000  Uiso   1.00
C285   C     0.44890   0.15056   0.28113   0.00000  Uiso   1.00
C286   C     0.39210   0.40092   0.23629   0.00000  Uiso   1.00
C287   C     0.33815   0.42354   0.22660   0.00000  Uiso   1.00
C288   C     0.32352   0.44430   0.10519   0.00000  Uiso   1.00
C289   C     0.27931   0.48342   0.93017   0.00000  Uiso   1.00
C290   C     0.48680   0.37255   0.16116   0.00000  Uiso   1.00
C291   C     0.51224   0.40032   0.27952   0.00000  Uiso   1.00
C292   C     0.56677   0.42209   0.28507   0.00000  Uiso   1.00
C293   C     0.58197   0.44577   0.40234   0.00000  Uiso   1.00
C294   C     0.47014   0.32050   0.21139   0.00000  Uiso   1.00
C295   C     0.48926   0.27516   0.15964   0.00000  Uiso   1.00
C296   C     0.46901   0.23164   0.21955   0.00000  Uiso   1.00
C297   C     0.43010   0.39910   0.12853   0.00000  Uiso   1.00
C298   C     0.41555   0.41983   0.00711   0.00000  Uiso   1.00
C299   C     0.36159   0.44247   0.99724   0.00000  Uiso   1.00
H300   H     0.38727   0.37731   0.44345   0.00000  Uiso   1.00
H301   H     0.45996   0.42719   0.58794   0.00000  Uiso   1.00
H302   H     0.38246   0.28029   0.46252   0.00000  Uiso   1.00
H303   H     0.30876   0.42494   0.31001   0.00000  Uiso   1.00
H304   H     0.55731   0.48167   0.70063   0.00000  Uiso   1.00
H305   H     0.39388   0.17192   0.43615   0.00000  Uiso   1.00
H306   H     0.23847   0.47694   0.11455   0.00000  Uiso   1.00
H307   H     0.51639   0.37113   0.07726   0.00000  Uiso   1.00
H308   H     0.59616   0.42067   0.20166   0.00000  Uiso   1.00
H309   H     0.51866   0.27376   0.07625   0.00000  Uiso   1.00
H310   H     0.44496   0.41841   0.92374   0.00000  Uiso   1.00
H311   H     0.66786   0.47638   0.38711   0.00000  Uiso   1.00
H312   H     0.50442   0.16662   0.12264   0.00000  Uiso   1.00
H313   H     0.34902   0.47164   0.80104   0.00000  Uiso   1.00
O314   O     0.66274   0.51171   0.63233   0.00000  Uiso   1.00
O315   O     0.44831   0.10533   0.28533   0.00000  Uiso   1.00
O316   O     0.24443   0.50551   0.86340   0.00000  Uiso   1.00
N317   N     0.57237   0.47364   0.60976   0.00000  Uiso   1.00
N318   N     0.41958   0.18403   0.36251   0.00000  Uiso   1.00
N319   N     0.27429   0.46919   0.06183   0.00000  Uiso   1.00
N320   N     0.63186   0.47079   0.44106   0.00000  Uiso   1.00
N321   N     0.47907   0.18118   0.19381   0.00000  Uiso   1.00
N322   N     0.33377   0.46634   0.89313   0.00000  Uiso   1.00
C323   C     0.41685   0.87590   0.85956   0.00000  Uiso   1.00
C324   C     0.47425   0.90215   0.88728   0.00000  Uiso   1.00
C325   C     0.48937   0.92580   0.00456   0.00000  Uiso   1.00
C326   C     0.54390   0.94759   0.01030   0.00000  Uiso   1.00
C327   C     0.62725   0.98860   0.06976   0.00000  Uiso   1.00
C328   C     0.43214   0.82233   0.81915   0.00000  Uiso   1.00
C329   C     0.41186   0.77887   0.87914   0.00000  Uiso   1.00
C330   C     0.43095   0.73347   0.82750   0.00000  Uiso   1.00
C331   C     0.44890   0.65056   0.78113   0.00000  Uiso   1.00
C332   C     0.39210   0.90092   0.73629   0.00000  Uiso   1.00
C333   C     0.33815   0.92354   0.72660   0.00000  Uiso   1.00
C334   C     0.32352   0.94430   0.60519   0.00000  Uiso   1.00
C335   C     0.27931   0.98342   0.43017   0.00000  Uiso   1.00
C336   C     0.48680   0.87255   0.66116   0.00000  Uiso   1.00
C337   C     0.51224   0.90032   0.77952   0.00000  Uiso   1.00
C338   C     0.56677   0.92209   0.78507   0.00000  Uiso   1.00
C339   C     0.58197   0.94577   0.90234   0.00000  Uiso   1.00
C340   C     0.47014   0.82050   0.71139   0.00000  Uiso   1.00
C341   C     0.48926   0.77516   0.65964   0.00000  Uiso   1.00
C342   C     0.46901   0.73164   0.71955   0.00000  Uiso   1.00
C343   C     0.43010   0.89910   0.62853   0.00000  Uiso   1.00
C344   C     0.41555   0.91983   0.50711   0.00000  Uiso   1.00
C345   C     0.36159   0.94247   0.49724   0.00000  Uiso   1.00
H346   H     0.38727   0.87731   0.94345   0.00000  Uiso   1.00
H347   H     0.45996   0.92719   0.08794   0.00000  Uiso   1.00
H348   H     0.38246   0.78029   0.96252   0.00000  Uiso   1.00
H349   H     0.30876   0.92494   0.81001   0.00000  Uiso   1.00
H350   H     0.55731   0.98167   0.20063   0.00000  Uiso   1.00
H351   H     0.39388   0.67192   0.93615   0.00000  Uiso   1.00
H352   H     0.23847   0.97694   0.61455   0.00000  Uiso   1.00
H353   H     0.51639   0.87113   0.57726   0.00000  Uiso   1.00
H354   H     0.59616   0.92067   0.70166   0.00000  Uiso   1.00
H355   H     0.51866   0.77376   0.57625   0.00000  Uiso   1.00
H356   H     0.44496   0.91841   0.42374   0.00000  Uiso   1.00
H357   H     0.66786   0.97638   0.88711   0.00000  Uiso   1.00
H358   H     0.50442   0.66662   0.62264   0.00000  Uiso   1.00
H359   H     0.34902   0.97164   0.30104   0.00000  Uiso   1.00
O360   O     0.66274   0.01171   0.13233   0.00000  Uiso   1.00
O361   O     0.44831   0.60533   0.78533   0.00000  Uiso   1.00
O362   O     0.24443   0.00551   0.36340   0.00000  Uiso   1.00
N363   N     0.57237   0.97364   0.10976   0.00000  Uiso   1.00
N364   N     0.41958   0.68403   0.86251   0.00000  Uiso   1.00
N365   N     0.27429   0.96919   0.56183   0.00000  Uiso   1.00
N366   N     0.63186   0.97079   0.94106   0.00000  Uiso   1.00
N367   N     0.47907   0.68118   0.69381   0.00000  Uiso   1.00
N368   N     0.33377   0.96634   0.39313   0.00000  Uiso   1.00
