data_job_00154
_audit_creation_date              2018-12-19
_audit_creation_method            'Materials Studio'
_symmetry_space_group_name_H-M    'P1'
_symmetry_Int_Tables_number       1
_symmetry_cell_setting            triclinic
loop_
_symmetry_equiv_pos_as_xyz
  x,y,z
_cell_length_a                    12.4430
_cell_length_b                    13.9171
_cell_length_c                    12.8320
_cell_angle_alpha                 90.0000
_cell_angle_beta                  90.0000
_cell_angle_gamma                 90.0000
loop_
_atom_site_label
_atom_site_type_symbol
_atom_site_fract_x
_atom_site_fract_y
_atom_site_fract_z
_atom_site_U_iso_or_equiv
_atom_site_adp_type
_atom_site_occupancy
C1     C     0.89553   0.74130   0.32718   0.00000  Uiso   1.00
C2     C     0.97749   0.77725   0.24790   0.00000  Uiso   1.00
C3     C     0.07400   0.82241   0.27112   0.00000  Uiso   1.00
C4     C     0.13782   0.84989   0.18753   0.00000  Uiso   1.00
C5     C     0.26988   0.90836   0.08010   0.00000  Uiso   1.00
C6     C     0.78966   0.79027   0.29958   0.00000  Uiso   1.00
C7     C     0.72823   0.84637   0.36628   0.00000  Uiso   1.00
C8     C     0.63392   0.88481   0.32619   0.00000  Uiso   1.00
C9     C     0.47432   0.96344   0.29904   0.00000  Uiso   1.00
C10    C     0.87950   0.63479   0.30401   0.00000  Uiso   1.00
C11    C     0.89358   0.56016   0.37443   0.00000  Uiso   1.00
C12    C     0.87489   0.46769   0.33807   0.00000  Uiso   1.00
C13    C     0.85478   0.30492   0.31778   0.00000  Uiso   1.00
C14    C     0.83725   0.70980   0.13741   0.00000  Uiso   1.00
C15    C     0.94583   0.76014   0.14482   0.00000  Uiso   1.00
C16    C     0.00953   0.78755   0.06117   0.00000  Uiso   1.00
C17    C     0.10612   0.83275   0.08427   0.00000  Uiso   1.00
C18    C     0.75800   0.77317   0.19652   0.00000  Uiso   1.00
C19    C     0.66376   0.81152   0.15632   0.00000  Uiso   1.00
C20    C     0.60221   0.86767   0.22294   0.00000  Uiso   1.00
C21    C     0.84785   0.61768   0.20093   0.00000  Uiso   1.00
C22    C     0.82911   0.52531   0.16447   0.00000  Uiso   1.00
C23    C     0.84317   0.45055   0.23481   0.00000  Uiso   1.00
H24    H     0.92017   0.75462   0.40743   0.00000  Uiso   1.00
H25    H     0.09846   0.83565   0.35090   0.00000  Uiso   1.00
H26    H     0.75274   0.85960   0.44604   0.00000  Uiso   1.00
H27    H     0.91808   0.57343   0.45418   0.00000  Uiso   1.00
H28    H     0.28216   0.91796   0.24277   0.00000  Uiso   1.00
H29    H     0.55318   0.96843   0.44340   0.00000  Uiso   1.00
H30    H     0.90181   0.36500   0.46057   0.00000  Uiso   1.00
H31    H     0.81261   0.69647   0.05716   0.00000  Uiso   1.00
H32    H     0.98501   0.77430   0.98141   0.00000  Uiso   1.00
H33    H     0.63929   0.79826   0.07656   0.00000  Uiso   1.00
H34    H     0.80462   0.51209   0.08470   0.00000  Uiso   1.00
H35    H     0.19008   0.86818   0.94288   0.00000  Uiso   1.00
H36    H     0.46108   0.91865   0.14351   0.00000  Uiso   1.00
H37    H     0.80972   0.31521   0.16068   0.00000  Uiso   1.00
O38    O     0.35145   0.94535   0.04932   0.00000  Uiso   1.00
O39    O     0.39504   0.01155   0.31254   0.00000  Uiso   1.00
O40    O     0.85245   0.21986   0.33506   0.00000  Uiso   1.00
N41    N     0.23684   0.89554   0.18259   0.00000  Uiso   1.00
N42    N     0.55529   0.94275   0.37016   0.00000  Uiso   1.00
N43    N     0.88120   0.37859   0.38622   0.00000  Uiso   1.00
N44    N     0.18729   0.86876   0.02122   0.00000  Uiso   1.00
N45    N     0.50574   0.91596   0.20879   0.00000  Uiso   1.00
N46    N     0.83165   0.35180   0.22485   0.00000  Uiso   1.00
C47    C     0.10447   0.25870   0.82718   0.00000  Uiso   1.00
C48    C     0.02251   0.22275   0.74790   0.00000  Uiso   1.00
C49    C     0.92600   0.17759   0.77112   0.00000  Uiso   1.00
C50    C     0.86218   0.15011   0.68753   0.00000  Uiso   1.00
C51    C     0.73012   0.09164   0.58010   0.00000  Uiso   1.00
C52    C     0.21034   0.20973   0.79958   0.00000  Uiso   1.00
C53    C     0.27177   0.15363   0.86628   0.00000  Uiso   1.00
C54    C     0.36608   0.11519   0.82619   0.00000  Uiso   1.00
C55    C     0.52568   0.03656   0.79904   0.00000  Uiso   1.00
C56    C     0.12050   0.36521   0.80401   0.00000  Uiso   1.00
C57    C     0.10642   0.43984   0.87443   0.00000  Uiso   1.00
C58    C     0.12511   0.53231   0.83807   0.00000  Uiso   1.00
C59    C     0.14522   0.69508   0.81778   0.00000  Uiso   1.00
C60    C     0.16275   0.29020   0.63741   0.00000  Uiso   1.00
C61    C     0.05417   0.23986   0.64482   0.00000  Uiso   1.00
C62    C     0.99047   0.21245   0.56117   0.00000  Uiso   1.00
C63    C     0.89388   0.16725   0.58427   0.00000  Uiso   1.00
C64    C     0.24200   0.22683   0.69652   0.00000  Uiso   1.00
C65    C     0.33624   0.18848   0.65632   0.00000  Uiso   1.00
C66    C     0.39779   0.13233   0.72294   0.00000  Uiso   1.00
C67    C     0.15215   0.38232   0.70093   0.00000  Uiso   1.00
C68    C     0.17089   0.47469   0.66447   0.00000  Uiso   1.00
C69    C     0.15683   0.54945   0.73481   0.00000  Uiso   1.00
H70    H     0.07983   0.24538   0.90743   0.00000  Uiso   1.00
H71    H     0.90154   0.16435   0.85090   0.00000  Uiso   1.00
H72    H     0.24726   0.14040   0.94604   0.00000  Uiso   1.00
H73    H     0.08192   0.42657   0.95418   0.00000  Uiso   1.00
H74    H     0.71784   0.08204   0.74277   0.00000  Uiso   1.00
H75    H     0.44682   0.03157   0.94340   0.00000  Uiso   1.00
H76    H     0.09819   0.63500   0.96057   0.00000  Uiso   1.00
H77    H     0.18739   0.30353   0.55716   0.00000  Uiso   1.00
H78    H     0.01499   0.22570   0.48141   0.00000  Uiso   1.00
H79    H     0.36071   0.20174   0.57656   0.00000  Uiso   1.00
H80    H     0.19538   0.48791   0.58470   0.00000  Uiso   1.00
H81    H     0.80992   0.13182   0.44288   0.00000  Uiso   1.00
H82    H     0.53892   0.08135   0.64351   0.00000  Uiso   1.00
H83    H     0.19028   0.68479   0.66068   0.00000  Uiso   1.00
O84    O     0.64855   0.05465   0.54932   0.00000  Uiso   1.00
O85    O     0.60496   0.98845   0.81254   0.00000  Uiso   1.00
O86    O     0.14755   0.78014   0.83506   0.00000  Uiso   1.00
N87    N     0.76316   0.10446   0.68259   0.00000  Uiso   1.00
N88    N     0.44471   0.05725   0.87016   0.00000  Uiso   1.00
N89    N     0.11880   0.62141   0.88622   0.00000  Uiso   1.00
N90    N     0.81271   0.13124   0.52122   0.00000  Uiso   1.00
N91    N     0.49426   0.08404   0.70879   0.00000  Uiso   1.00
N92    N     0.16835   0.64820   0.72485   0.00000  Uiso   1.00
C93    C     0.39553   0.25870   0.32718   0.00000  Uiso   1.00
C94    C     0.47749   0.22275   0.24790   0.00000  Uiso   1.00
C95    C     0.57400   0.17759   0.27112   0.00000  Uiso   1.00
C96    C     0.63782   0.15011   0.18753   0.00000  Uiso   1.00
C97    C     0.76988   0.09164   0.08010   0.00000  Uiso   1.00
C98    C     0.28966   0.20973   0.29958   0.00000  Uiso   1.00
C99    C     0.22823   0.15363   0.36628   0.00000  Uiso   1.00
C100   C     0.13392   0.11519   0.32619   0.00000  Uiso   1.00
C101   C     0.97432   0.03656   0.29904   0.00000  Uiso   1.00
C102   C     0.37950   0.36521   0.30401   0.00000  Uiso   1.00
C103   C     0.39358   0.43984   0.37443   0.00000  Uiso   1.00
C104   C     0.37489   0.53231   0.33807   0.00000  Uiso   1.00
C105   C     0.35478   0.69508   0.31778   0.00000  Uiso   1.00
C106   C     0.33725   0.29020   0.13741   0.00000  Uiso   1.00
C107   C     0.44583   0.23986   0.14482   0.00000  Uiso   1.00
C108   C     0.50953   0.21245   0.06117   0.00000  Uiso   1.00
C109   C     0.60612   0.16725   0.08427   0.00000  Uiso   1.00
C110   C     0.25800   0.22683   0.19652   0.00000  Uiso   1.00
C111   C     0.16376   0.18848   0.15632   0.00000  Uiso   1.00
C112   C     0.10221   0.13233   0.22294   0.00000  Uiso   1.00
C113   C     0.34785   0.38232   0.20093   0.00000  Uiso   1.00
C114   C     0.32911   0.47469   0.16447   0.00000  Uiso   1.00
C115   C     0.34317   0.54945   0.23481   0.00000  Uiso   1.00
H116   H     0.42017   0.24538   0.40743   0.00000  Uiso   1.00
H117   H     0.59846   0.16435   0.35090   0.00000  Uiso   1.00
H118   H     0.25274   0.14040   0.44604   0.00000  Uiso   1.00
H119   H     0.41808   0.42657   0.45418   0.00000  Uiso   1.00
H120   H     0.78216   0.08204   0.24277   0.00000  Uiso   1.00
H121   H     0.05318   0.03157   0.44340   0.00000  Uiso   1.00
H122   H     0.40181   0.63500   0.46057   0.00000  Uiso   1.00
H123   H     0.31261   0.30353   0.05716   0.00000  Uiso   1.00
H124   H     0.48501   0.22570   0.98141   0.00000  Uiso   1.00
H125   H     0.13929   0.20174   0.07656   0.00000  Uiso   1.00
H126   H     0.30462   0.48791   0.08470   0.00000  Uiso   1.00
H127   H     0.69008   0.13182   0.94288   0.00000  Uiso   1.00
H128   H     0.96108   0.08135   0.14351   0.00000  Uiso   1.00
H129   H     0.30972   0.68479   0.16068   0.00000  Uiso   1.00
O130   O     0.85145   0.05465   0.04932   0.00000  Uiso   1.00
O131   O     0.89504   0.98845   0.31254   0.00000  Uiso   1.00
O132   O     0.35245   0.78014   0.33506   0.00000  Uiso   1.00
N133   N     0.73684   0.10446   0.18259   0.00000  Uiso   1.00
N134   N     0.05529   0.05725   0.37016   0.00000  Uiso   1.00
N135   N     0.38120   0.62141   0.38622   0.00000  Uiso   1.00
N136   N     0.68729   0.13124   0.02122   0.00000  Uiso   1.00
N137   N     0.00574   0.08404   0.20879   0.00000  Uiso   1.00
N138   N     0.33165   0.64820   0.22485   0.00000  Uiso   1.00
C139   C     0.60447   0.74130   0.82718   0.00000  Uiso   1.00
C140   C     0.52251   0.77725   0.74790   0.00000  Uiso   1.00
C141   C     0.42600   0.82241   0.77112   0.00000  Uiso   1.00
C142   C     0.36218   0.84989   0.68753   0.00000  Uiso   1.00
C143   C     0.23012   0.90836   0.58010   0.00000  Uiso   1.00
C144   C     0.71034   0.79027   0.79958   0.00000  Uiso   1.00
C145   C     0.77177   0.84637   0.86628   0.00000  Uiso   1.00
C146   C     0.86608   0.88481   0.82619   0.00000  Uiso   1.00
C147   C     0.02568   0.96344   0.79904   0.00000  Uiso   1.00
C148   C     0.62050   0.63479   0.80401   0.00000  Uiso   1.00
C149   C     0.60642   0.56016   0.87443   0.00000  Uiso   1.00
C150   C     0.62511   0.46769   0.83807   0.00000  Uiso   1.00
C151   C     0.64522   0.30492   0.81778   0.00000  Uiso   1.00
C152   C     0.66275   0.70980   0.63741   0.00000  Uiso   1.00
C153   C     0.55417   0.76014   0.64482   0.00000  Uiso   1.00
C154   C     0.49047   0.78755   0.56117   0.00000  Uiso   1.00
C155   C     0.39388   0.83275   0.58427   0.00000  Uiso   1.00
C156   C     0.74200   0.77317   0.69652   0.00000  Uiso   1.00
C157   C     0.83624   0.81152   0.65632   0.00000  Uiso   1.00
C158   C     0.89779   0.86767   0.72294   0.00000  Uiso   1.00
C159   C     0.65215   0.61768   0.70093   0.00000  Uiso   1.00
C160   C     0.67089   0.52531   0.66447   0.00000  Uiso   1.00
C161   C     0.65683   0.45055   0.73481   0.00000  Uiso   1.00
H162   H     0.57983   0.75462   0.90743   0.00000  Uiso   1.00
H163   H     0.40154   0.83565   0.85090   0.00000  Uiso   1.00
H164   H     0.74726   0.85960   0.94604   0.00000  Uiso   1.00
H165   H     0.58192   0.57343   0.95418   0.00000  Uiso   1.00
H166   H     0.21784   0.91796   0.74277   0.00000  Uiso   1.00
H167   H     0.94682   0.96843   0.94340   0.00000  Uiso   1.00
H168   H     0.59819   0.36500   0.96057   0.00000  Uiso   1.00
H169   H     0.68739   0.69647   0.55716   0.00000  Uiso   1.00
H170   H     0.51499   0.77430   0.48141   0.00000  Uiso   1.00
H171   H     0.86071   0.79826   0.57656   0.00000  Uiso   1.00
H172   H     0.69538   0.51209   0.58470   0.00000  Uiso   1.00
H173   H     0.30992   0.86818   0.44288   0.00000  Uiso   1.00
H174   H     0.03892   0.91865   0.64351   0.00000  Uiso   1.00
H175   H     0.69028   0.31521   0.66068   0.00000  Uiso   1.00
O176   O     0.14855   0.94535   0.54932   0.00000  Uiso   1.00
O177   O     0.10496   0.01155   0.81254   0.00000  Uiso   1.00
O178   O     0.64755   0.21986   0.83506   0.00000  Uiso   1.00
N179   N     0.26316   0.89554   0.68259   0.00000  Uiso   1.00
N180   N     0.94471   0.94275   0.87016   0.00000  Uiso   1.00
N181   N     0.61880   0.37859   0.88622   0.00000  Uiso   1.00
N182   N     0.31271   0.86876   0.52122   0.00000  Uiso   1.00
N183   N     0.99426   0.91596   0.70879   0.00000  Uiso   1.00
N184   N     0.66835   0.35180   0.72485   0.00000  Uiso   1.00
