data_job_01011
_audit_creation_date              2018-12-19
_audit_creation_method            'Materials Studio'
_symmetry_space_group_name_H-M    'P1'
_symmetry_Int_Tables_number       1
_symmetry_cell_setting            triclinic
loop_
_symmetry_equiv_pos_as_xyz
  x,y,z
_cell_length_a                    11.5205
_cell_length_b                    22.4114
_cell_length_c                    11.6675
_cell_angle_alpha                 90.0000
_cell_angle_beta                  101.7000
_cell_angle_gamma                 90.0000
loop_
_atom_site_label
_atom_site_type_symbol
_atom_site_fract_x
_atom_site_fract_y
_atom_site_fract_z
_atom_site_U_iso_or_equiv
_atom_site_adp_type
_atom_site_occupancy
C1     C     0.18708   0.08963   0.70086   0.00000  Uiso   1.00
C2     C     0.26411   0.14408   0.74065   0.00000  Uiso   1.00
C3     C     0.34195   0.17067   0.67958   0.00000  Uiso   1.00
C4     C     0.40437   0.22010   0.73081   0.00000  Uiso   1.00
C5     C     0.52631   0.30129   0.77613   0.00000  Uiso   1.00
C6     C     0.21839   0.04380   0.79887   0.00000  Uiso   1.00
C7     C     0.25776   0.98606   0.78674   0.00000  Uiso   1.00
C8     C     0.28168   0.95107   0.88697   0.00000  Uiso   1.00
C9     C     0.33254   0.87655   0.02266   0.00000  Uiso   1.00
C10    C     0.05986   0.10877   0.69983   0.00000  Uiso   1.00
C11    C     0.96592   0.10565   0.60445   0.00000  Uiso   1.00
C12    C     0.85635   0.12535   0.62131   0.00000  Uiso   1.00
C13    C     0.66107   0.15171   0.60324   0.00000  Uiso   1.00
C14    C     0.15952   0.13015   0.90043   0.00000  Uiso   1.00
C15    C     0.24914   0.16609   0.84905   0.00000  Uiso   1.00
C16    C     0.31146   0.21550   0.90039   0.00000  Uiso   1.00
C17    C     0.38937   0.24216   0.83940   0.00000  Uiso   1.00
C18    C     0.20342   0.06580   0.90726   0.00000  Uiso   1.00
C19    C     0.22727   0.03090   0.00754   0.00000  Uiso   1.00
C20    C     0.26668   0.97312   0.99557   0.00000  Uiso   1.00
C21    C     0.04488   0.13078   0.80823   0.00000  Uiso   1.00
C22    C     0.93543   0.15049   0.82525   0.00000  Uiso   1.00
C23    C     0.84136   0.14740   0.72991   0.00000  Uiso   1.00
H24    H     0.19873   0.07249   0.61647   0.00000  Uiso   1.00
H25    H     0.35352   0.15361   0.59570   0.00000  Uiso   1.00
H26    H     0.26933   0.96904   0.70284   0.00000  Uiso   1.00
H27    H     0.97754   0.08861   0.52058   0.00000  Uiso   1.00
H28    H     0.51856   0.25325   0.62049   0.00000  Uiso   1.00
H29    H     0.34100   0.86406   0.84639   0.00000  Uiso   1.00
H30    H     0.72570   0.11620   0.46206   0.00000  Uiso   1.00
H31    H     0.14786   0.14729   0.98483   0.00000  Uiso   1.00
H32    H     0.29985   0.23252   0.98427   0.00000  Uiso   1.00
H33    H     0.21567   0.04794   0.09141   0.00000  Uiso   1.00
H34    H     0.92388   0.16752   0.90915   0.00000  Uiso   1.00
H35    H     0.47501   0.31730   0.93588   0.00000  Uiso   1.00
H36    H     0.29745   0.92810   0.16178   0.00000  Uiso   1.00
H37    H     0.68215   0.18024   0.77745   0.00000  Uiso   1.00
O38    O     0.59771   0.33999   0.77119   0.00000  Uiso   1.00
O39    O     0.36475   0.82937   0.06756   0.00000  Uiso   1.00
O40    O     0.55750   0.16018   0.56332   0.00000  Uiso   1.00
N41    N     0.48743   0.25664   0.69478   0.00000  Uiso   1.00
N42    N     0.32144   0.89276   0.90599   0.00000  Uiso   1.00
N43    N     0.74619   0.12848   0.54668   0.00000  Uiso   1.00
N44    N     0.46399   0.29110   0.86449   0.00000  Uiso   1.00
N45    N     0.29801   0.92722   0.07570   0.00000  Uiso   1.00
N46    N     0.72275   0.16294   0.71639   0.00000  Uiso   1.00
C47    C     0.81292   0.58963   0.79914   0.00000  Uiso   1.00
C48    C     0.73589   0.64408   0.75935   0.00000  Uiso   1.00
C49    C     0.65805   0.67067   0.82042   0.00000  Uiso   1.00
C50    C     0.59563   0.72010   0.76919   0.00000  Uiso   1.00
C51    C     0.47369   0.80129   0.72387   0.00000  Uiso   1.00
C52    C     0.78161   0.54380   0.70113   0.00000  Uiso   1.00
C53    C     0.74224   0.48606   0.71326   0.00000  Uiso   1.00
C54    C     0.71832   0.45107   0.61303   0.00000  Uiso   1.00
C55    C     0.66746   0.37655   0.47734   0.00000  Uiso   1.00
C56    C     0.94014   0.60877   0.80017   0.00000  Uiso   1.00
C57    C     0.03408   0.60565   0.89555   0.00000  Uiso   1.00
C58    C     0.14365   0.62535   0.87869   0.00000  Uiso   1.00
C59    C     0.33893   0.65171   0.89676   0.00000  Uiso   1.00
C60    C     0.84048   0.63015   0.59957   0.00000  Uiso   1.00
C61    C     0.75086   0.66609   0.65095   0.00000  Uiso   1.00
C62    C     0.68854   0.71550   0.59961   0.00000  Uiso   1.00
C63    C     0.61063   0.74216   0.66060   0.00000  Uiso   1.00
C64    C     0.79658   0.56580   0.59274   0.00000  Uiso   1.00
C65    C     0.77273   0.53090   0.49246   0.00000  Uiso   1.00
C66    C     0.73332   0.47312   0.50443   0.00000  Uiso   1.00
C67    C     0.95512   0.63078   0.69177   0.00000  Uiso   1.00
C68    C     0.06457   0.65049   0.67475   0.00000  Uiso   1.00
C69    C     0.15864   0.64740   0.77009   0.00000  Uiso   1.00
H70    H     0.80127   0.57249   0.88353   0.00000  Uiso   1.00
H71    H     0.64648   0.65361   0.90430   0.00000  Uiso   1.00
H72    H     0.73067   0.46904   0.79716   0.00000  Uiso   1.00
H73    H     0.02246   0.58861   0.97942   0.00000  Uiso   1.00
H74    H     0.48144   0.75325   0.87951   0.00000  Uiso   1.00
H75    H     0.65900   0.36406   0.65361   0.00000  Uiso   1.00
H76    H     0.27430   0.61620   0.03794   0.00000  Uiso   1.00
H77    H     0.85214   0.64729   0.51517   0.00000  Uiso   1.00
H78    H     0.70015   0.73252   0.51573   0.00000  Uiso   1.00
H79    H     0.78433   0.54794   0.40859   0.00000  Uiso   1.00
H80    H     0.07612   0.66752   0.59085   0.00000  Uiso   1.00
H81    H     0.52499   0.81730   0.56412   0.00000  Uiso   1.00
H82    H     0.70255   0.42810   0.33822   0.00000  Uiso   1.00
H83    H     0.31785   0.68024   0.72255   0.00000  Uiso   1.00
O84    O     0.40229   0.83999   0.72881   0.00000  Uiso   1.00
O85    O     0.63525   0.32937   0.43244   0.00000  Uiso   1.00
O86    O     0.44250   0.66018   0.93668   0.00000  Uiso   1.00
N87    N     0.51257   0.75664   0.80522   0.00000  Uiso   1.00
N88    N     0.67856   0.39276   0.59401   0.00000  Uiso   1.00
N89    N     0.25381   0.62848   0.95332   0.00000  Uiso   1.00
N90    N     0.53601   0.79110   0.63551   0.00000  Uiso   1.00
N91    N     0.70199   0.42722   0.42430   0.00000  Uiso   1.00
N92    N     0.27725   0.66294   0.78361   0.00000  Uiso   1.00
C93    C     0.81292   0.91037   0.29914   0.00000  Uiso   1.00
C94    C     0.73589   0.85592   0.25935   0.00000  Uiso   1.00
C95    C     0.65805   0.82933   0.32042   0.00000  Uiso   1.00
C96    C     0.59563   0.77990   0.26919   0.00000  Uiso   1.00
C97    C     0.47369   0.69871   0.22387   0.00000  Uiso   1.00
C98    C     0.78161   0.95620   0.20113   0.00000  Uiso   1.00
C99    C     0.74224   0.01394   0.21326   0.00000  Uiso   1.00
C100   C     0.71832   0.04893   0.11303   0.00000  Uiso   1.00
C101   C     0.66746   0.12345   0.97734   0.00000  Uiso   1.00
C102   C     0.94014   0.89123   0.30017   0.00000  Uiso   1.00
C103   C     0.03408   0.89435   0.39555   0.00000  Uiso   1.00
C104   C     0.14365   0.87465   0.37869   0.00000  Uiso   1.00
C105   C     0.33893   0.84829   0.39676   0.00000  Uiso   1.00
C106   C     0.84048   0.86985   0.09957   0.00000  Uiso   1.00
C107   C     0.75086   0.83391   0.15095   0.00000  Uiso   1.00
C108   C     0.68854   0.78450   0.09961   0.00000  Uiso   1.00
C109   C     0.61063   0.75784   0.16060   0.00000  Uiso   1.00
C110   C     0.79658   0.93420   0.09274   0.00000  Uiso   1.00
C111   C     0.77273   0.96910   0.99246   0.00000  Uiso   1.00
C112   C     0.73332   0.02688   0.00443   0.00000  Uiso   1.00
C113   C     0.95512   0.86922   0.19177   0.00000  Uiso   1.00
C114   C     0.06457   0.84951   0.17475   0.00000  Uiso   1.00
C115   C     0.15864   0.85260   0.27009   0.00000  Uiso   1.00
H116   H     0.80127   0.92751   0.38353   0.00000  Uiso   1.00
H117   H     0.64648   0.84639   0.40430   0.00000  Uiso   1.00
H118   H     0.73067   0.03096   0.29716   0.00000  Uiso   1.00
H119   H     0.02246   0.91139   0.47942   0.00000  Uiso   1.00
H120   H     0.48144   0.74675   0.37951   0.00000  Uiso   1.00
H121   H     0.65900   0.13594   0.15361   0.00000  Uiso   1.00
H122   H     0.27430   0.88380   0.53794   0.00000  Uiso   1.00
H123   H     0.85214   0.85271   0.01517   0.00000  Uiso   1.00
H124   H     0.70015   0.76748   0.01573   0.00000  Uiso   1.00
H125   H     0.78433   0.95206   0.90859   0.00000  Uiso   1.00
H126   H     0.07612   0.83248   0.09085   0.00000  Uiso   1.00
H127   H     0.52499   0.68270   0.06412   0.00000  Uiso   1.00
H128   H     0.70255   0.07190   0.83822   0.00000  Uiso   1.00
H129   H     0.31785   0.81976   0.22255   0.00000  Uiso   1.00
O130   O     0.40229   0.66001   0.22881   0.00000  Uiso   1.00
O131   O     0.63525   0.17063   0.93244   0.00000  Uiso   1.00
O132   O     0.44250   0.83982   0.43668   0.00000  Uiso   1.00
N133   N     0.51257   0.74336   0.30522   0.00000  Uiso   1.00
N134   N     0.67856   0.10724   0.09401   0.00000  Uiso   1.00
N135   N     0.25381   0.87152   0.45332   0.00000  Uiso   1.00
N136   N     0.53601   0.70890   0.13551   0.00000  Uiso   1.00
N137   N     0.70199   0.07278   0.92430   0.00000  Uiso   1.00
N138   N     0.27725   0.83706   0.28361   0.00000  Uiso   1.00
C139   C     0.18708   0.41037   0.20086   0.00000  Uiso   1.00
C140   C     0.26411   0.35592   0.24065   0.00000  Uiso   1.00
C141   C     0.34195   0.32933   0.17958   0.00000  Uiso   1.00
C142   C     0.40437   0.27990   0.23081   0.00000  Uiso   1.00
C143   C     0.52631   0.19871   0.27613   0.00000  Uiso   1.00
C144   C     0.21839   0.45620   0.29887   0.00000  Uiso   1.00
C145   C     0.25776   0.51394   0.28674   0.00000  Uiso   1.00
C146   C     0.28168   0.54893   0.38697   0.00000  Uiso   1.00
C147   C     0.33254   0.62345   0.52266   0.00000  Uiso   1.00
C148   C     0.05986   0.39123   0.19983   0.00000  Uiso   1.00
C149   C     0.96592   0.39435   0.10445   0.00000  Uiso   1.00
C150   C     0.85635   0.37465   0.12131   0.00000  Uiso   1.00
C151   C     0.66107   0.34829   0.10324   0.00000  Uiso   1.00
C152   C     0.15952   0.36985   0.40043   0.00000  Uiso   1.00
C153   C     0.24914   0.33391   0.34905   0.00000  Uiso   1.00
C154   C     0.31146   0.28450   0.40039   0.00000  Uiso   1.00
C155   C     0.38937   0.25784   0.33940   0.00000  Uiso   1.00
C156   C     0.20342   0.43420   0.40726   0.00000  Uiso   1.00
C157   C     0.22727   0.46910   0.50754   0.00000  Uiso   1.00
C158   C     0.26668   0.52688   0.49557   0.00000  Uiso   1.00
C159   C     0.04488   0.36922   0.30823   0.00000  Uiso   1.00
C160   C     0.93543   0.34951   0.32525   0.00000  Uiso   1.00
C161   C     0.84136   0.35260   0.22991   0.00000  Uiso   1.00
H162   H     0.19873   0.42751   0.11647   0.00000  Uiso   1.00
H163   H     0.35352   0.34639   0.09570   0.00000  Uiso   1.00
H164   H     0.26933   0.53096   0.20284   0.00000  Uiso   1.00
H165   H     0.97754   0.41139   0.02058   0.00000  Uiso   1.00
H166   H     0.51856   0.24675   0.12049   0.00000  Uiso   1.00
H167   H     0.34100   0.63594   0.34639   0.00000  Uiso   1.00
H168   H     0.72570   0.38380   0.96206   0.00000  Uiso   1.00
H169   H     0.14786   0.35271   0.48483   0.00000  Uiso   1.00
H170   H     0.29985   0.26748   0.48427   0.00000  Uiso   1.00
H171   H     0.21567   0.45206   0.59141   0.00000  Uiso   1.00
H172   H     0.92388   0.33248   0.40915   0.00000  Uiso   1.00
H173   H     0.47501   0.18270   0.43588   0.00000  Uiso   1.00
H174   H     0.29745   0.57190   0.66178   0.00000  Uiso   1.00
H175   H     0.68215   0.31976   0.27745   0.00000  Uiso   1.00
O176   O     0.59771   0.16001   0.27119   0.00000  Uiso   1.00
O177   O     0.36475   0.67063   0.56756   0.00000  Uiso   1.00
O178   O     0.55750   0.33982   0.06332   0.00000  Uiso   1.00
N179   N     0.48743   0.24336   0.19478   0.00000  Uiso   1.00
N180   N     0.32144   0.60724   0.40599   0.00000  Uiso   1.00
N181   N     0.74619   0.37152   0.04668   0.00000  Uiso   1.00
N182   N     0.46399   0.20890   0.36449   0.00000  Uiso   1.00
N183   N     0.29801   0.57278   0.57570   0.00000  Uiso   1.00
N184   N     0.72275   0.33706   0.21639   0.00000  Uiso   1.00
