data_job_06586
_audit_creation_date              2018-12-19
_audit_creation_method            'Materials Studio'
_symmetry_space_group_name_H-M    'P1'
_symmetry_Int_Tables_number       1
_symmetry_cell_setting            triclinic
loop_
_symmetry_equiv_pos_as_xyz
  x,y,z
_cell_length_a                    21.1550
_cell_length_b                    21.8193
_cell_length_c                    21.5277
_cell_angle_alpha                 68.9310
_cell_angle_beta                  64.9190
_cell_angle_gamma                 79.8247
loop_
_atom_site_label
_atom_site_type_symbol
_atom_site_fract_x
_atom_site_fract_y
_atom_site_fract_z
_atom_site_U_iso_or_equiv
_atom_site_adp_type
_atom_site_occupancy
C1     C     0.39912   0.27394   0.78725   0.00000  Uiso   1.00
C2     C     0.44258   0.21042   0.78555   0.00000  Uiso   1.00
C3     C     0.49430   0.19842   0.72436   0.00000  Uiso   1.00
C4     C     0.52803   0.13718   0.73413   0.00000  Uiso   1.00
C5     C     0.59813   0.04575   0.72107   0.00000  Uiso   1.00
C6     C     0.32303   0.25446   0.82164   0.00000  Uiso   1.00
C7     C     0.27423   0.27949   0.79078   0.00000  Uiso   1.00
C8     C     0.20732   0.25532   0.83094   0.00000  Uiso   1.00
C9     C     0.09181   0.23230   0.87392   0.00000  Uiso   1.00
C10    C     0.40977   0.29703   0.84102   0.00000  Uiso   1.00
C11    C     0.43389   0.35788   0.82648   0.00000  Uiso   1.00
C12    C     0.44000   0.36955   0.88297   0.00000  Uiso   1.00
C13    C     0.45917   0.41264   0.95605   0.00000  Uiso   1.00
C14    C     0.36704   0.18650   0.91343   0.00000  Uiso   1.00
C15    C     0.42515   0.16292   0.85409   0.00000  Uiso   1.00
C16    C     0.45881   0.10168   0.86396   0.00000  Uiso   1.00
C17    C     0.51058   0.08959   0.80279   0.00000  Uiso   1.00
C18    C     0.30560   0.20696   0.89017   0.00000  Uiso   1.00
C19    C     0.23875   0.18275   0.93038   0.00000  Uiso   1.00
C20    C     0.18987   0.20774   0.89960   0.00000  Uiso   1.00
C21    C     0.39235   0.24954   0.90956   0.00000  Uiso   1.00
C22    C     0.39841   0.26113   0.96608   0.00000  Uiso   1.00
C23    C     0.42254   0.32197   0.95163   0.00000  Uiso   1.00
H24    H     0.41268   0.31092   0.73389   0.00000  Uiso   1.00
H25    H     0.50776   0.23519   0.67133   0.00000  Uiso   1.00
H26    H     0.28773   0.31625   0.73775   0.00000  Uiso   1.00
H27    H     0.44737   0.39462   0.77344   0.00000  Uiso   1.00
H28    H     0.60548   0.13028   0.63218   0.00000  Uiso   1.00
H29    H     0.14152   0.30121   0.77225   0.00000  Uiso   1.00
H30    H     0.47815   0.46647   0.84751   0.00000  Uiso   1.00
H31    H     0.35348   0.14952   0.96678   0.00000  Uiso   1.00
H32    H     0.44532   0.06493   0.91700   0.00000  Uiso   1.00
H33    H     0.22528   0.14599   0.98342   0.00000  Uiso   1.00
H34    H     0.38492   0.22436   0.01911   0.00000  Uiso   1.00
H35    H     0.55480   0.99208   0.83158   0.00000  Uiso   1.00
H36    H     0.09083   0.16303   0.97164   0.00000  Uiso   1.00
H37    H     0.42747   0.32828   0.04690   0.00000  Uiso   1.00
O38    O     0.64161   0.00844   0.69492   0.00000  Uiso   1.00
O39    O     0.03291   0.23271   0.87869   0.00000  Uiso   1.00
O40    O     0.47456   0.44952   0.97743   0.00000  Uiso   1.00
N41    N     0.58096   0.10937   0.68595   0.00000  Uiso   1.00
N42    N     0.14719   0.26918   0.81689   0.00000  Uiso   1.00
N43    N     0.46189   0.42368   0.88726   0.00000  Uiso   1.00
N44    N     0.55369   0.03501   0.79324   0.00000  Uiso   1.00
N45    N     0.11991   0.19482   0.92418   0.00000  Uiso   1.00
N46    N     0.43462   0.34932   0.99455   0.00000  Uiso   1.00
C47    C     0.03037   0.25415   0.11919   0.00000  Uiso   1.00
C48    C     0.08364   0.29563   0.04836   0.00000  Uiso   1.00
C49    C     0.06857   0.34283   0.99253   0.00000  Uiso   1.00
C50    C     0.12464   0.37543   0.93220   0.00000  Uiso   1.00
C51    C     0.19692   0.44197   0.82285   0.00000  Uiso   1.00
C52    C     0.05286   0.18273   0.12437   0.00000  Uiso   1.00
C53    C     0.01191   0.13500   0.13246   0.00000  Uiso   1.00
C54    C     0.04207   0.07256   0.13612   0.00000  Uiso   1.00
C55    C     0.06654   0.96380   0.14484   0.00000  Uiso   1.00
C56    C     0.04122   0.26625   0.17945   0.00000  Uiso   1.00
C57    C     0.99047   0.28873   0.23386   0.00000  Uiso   1.00
C58    C     0.01082   0.29659   0.28391   0.00000  Uiso   1.00
C59    C     0.01721   0.31751   0.37815   0.00000  Uiso   1.00
C60    C     0.15675   0.22812   0.11134   0.00000  Uiso   1.00
C61    C     0.15228   0.28149   0.04410   0.00000  Uiso   1.00
C62    C     0.20839   0.31403   0.98384   0.00000  Uiso   1.00
C63    C     0.19341   0.36127   0.92792   0.00000  Uiso   1.00
C64    C     0.12150   0.16859   0.12011   0.00000  Uiso   1.00
C65    C     0.15173   0.10620   0.12377   0.00000  Uiso   1.00
C66    C     0.11083   0.05839   0.13185   0.00000  Uiso   1.00
C67    C     0.10986   0.25211   0.17519   0.00000  Uiso   1.00
C68    C     0.13029   0.25993   0.22517   0.00000  Uiso   1.00
C69    C     0.07958   0.28243   0.27964   0.00000  Uiso   1.00
H70    H     0.97694   0.26515   0.12251   0.00000  Uiso   1.00
H71    H     0.01545   0.35375   0.99585   0.00000  Uiso   1.00
H72    H     0.95879   0.14595   0.13576   0.00000  Uiso   1.00
H73    H     0.93736   0.29966   0.23715   0.00000  Uiso   1.00
H74    H     0.08842   0.44573   0.85352   0.00000  Uiso   1.00
H75    H     0.96895   0.00757   0.14856   0.00000  Uiso   1.00
H76    H     0.92375   0.33169   0.36236   0.00000  Uiso   1.00
H77    H     0.21019   0.21711   0.10802   0.00000  Uiso   1.00
H78    H     0.26150   0.30308   0.98055   0.00000  Uiso   1.00
H79    H     0.20484   0.09528   0.12047   0.00000  Uiso   1.00
H80    H     0.18341   0.24899   0.22185   0.00000  Uiso   1.00
H81    H     0.28813   0.40460   0.84110   0.00000  Uiso   1.00
H82    H     0.16865   0.96643   0.13615   0.00000  Uiso   1.00
H83    H     0.12346   0.29057   0.34994   0.00000  Uiso   1.00
O84    O     0.21782   0.48257   0.76371   0.00000  Uiso   1.00
O85    O     0.06107   0.90771   0.15081   0.00000  Uiso   1.00
O86    O     0.00178   0.33297   0.43130   0.00000  Uiso   1.00
N87    N     0.12838   0.42426   0.86810   0.00000  Uiso   1.00
N88    N     0.01668   0.01461   0.14393   0.00000  Uiso   1.00
N89    N     0.97442   0.31762   0.34382   0.00000  Uiso   1.00
N90    N     0.23584   0.40213   0.86142   0.00000  Uiso   1.00
N91    N     0.12414   0.99248   0.13725   0.00000  Uiso   1.00
N92    N     0.08188   0.29549   0.33714   0.00000  Uiso   1.00
C93    C     0.39991   0.79840   0.22855   0.00000  Uiso   1.00
C94    C     0.37499   0.75265   0.30658   0.00000  Uiso   1.00
C95    C     0.40930   0.69543   0.33287   0.00000  Uiso   1.00
C96    C     0.37796   0.66043   0.40592   0.00000  Uiso   1.00
C97    C     0.34890   0.58611   0.52021   0.00000  Uiso   1.00
C98    C     0.34069   0.80351   0.20412   0.00000  Uiso   1.00
C99    C     0.34615   0.78906   0.14427   0.00000  Uiso   1.00
C100   C     0.28593   0.79687   0.13108   0.00000  Uiso   1.00
C101   C     0.20362   0.80156   0.08628   0.00000  Uiso   1.00
C102   C     0.40409   0.86616   0.23182   0.00000  Uiso   1.00
C103   C     0.46286   0.90440   0.19524   0.00000  Uiso   1.00
C104   C     0.45601   0.96497   0.20535   0.00000  Uiso   1.00
C105   C     0.47214   0.06693   0.20356   0.00000  Uiso   1.00
C106   C     0.28324   0.83799   0.31154   0.00000  Uiso   1.00
C107   C     0.31162   0.77416   0.35165   0.00000  Uiso   1.00
C108   C     0.28023   0.73923   0.42469   0.00000  Uiso   1.00
C109   C     0.31448   0.68197   0.45108   0.00000  Uiso   1.00
C110   C     0.27732   0.82501   0.24920   0.00000  Uiso   1.00
C111   C     0.21708   0.83286   0.23609   0.00000  Uiso   1.00
C112   C     0.22245   0.81842   0.17624   0.00000  Uiso   1.00
C113   C     0.34072   0.88767   0.27690   0.00000  Uiso   1.00
C114   C     0.33378   0.94820   0.28707   0.00000  Uiso   1.00
C115   C     0.39253   0.98652   0.25051   0.00000  Uiso   1.00
H116   H     0.44924   0.78166   0.19345   0.00000  Uiso   1.00
H117   H     0.45834   0.67880   0.29796   0.00000  Uiso   1.00
H118   H     0.39520   0.77242   0.10939   0.00000  Uiso   1.00
H119   H     0.51188   0.88774   0.16036   0.00000  Uiso   1.00
H120   H     0.44047   0.57424   0.43370   0.00000  Uiso   1.00
H121   H     0.30735   0.77166   0.03608   0.00000  Uiso   1.00
H122   H     0.55340   0.01484   0.14355   0.00000  Uiso   1.00
H123   H     0.23390   0.85473   0.34664   0.00000  Uiso   1.00
H124   H     0.23119   0.75589   0.45956   0.00000  Uiso   1.00
H125   H     0.16805   0.84950   0.27099   0.00000  Uiso   1.00
H126   H     0.28474   0.96482   0.32196   0.00000  Uiso   1.00
H127   H     0.25610   0.63680   0.56486   0.00000  Uiso   1.00
H128   H     0.12298   0.83423   0.16723   0.00000  Uiso   1.00
H129   H     0.36903   0.07740   0.27471   0.00000  Uiso   1.00
O130   O     0.35037   0.53917   0.57079   0.00000  Uiso   1.00
O131   O     0.17573   0.79819   0.04912   0.00000  Uiso   1.00
O132   O     0.49854   0.11723   0.19013   0.00000  Uiso   1.00
N133   N     0.39746   0.60254   0.44908   0.00000  Uiso   1.00
N134   N     0.27299   0.78710   0.07733   0.00000  Uiso   1.00
N135   N     0.50303   0.01446   0.17779   0.00000  Uiso   1.00
N136   N     0.29825   0.63620   0.51965   0.00000  Uiso   1.00
N137   N     0.17379   0.82077   0.14790   0.00000  Uiso   1.00
N138   N     0.40382   0.04812   0.24837   0.00000  Uiso   1.00
C139   C     0.81623   0.28507   0.77744   0.00000  Uiso   1.00
C140   C     0.88804   0.25228   0.76867   0.00000  Uiso   1.00
C141   C     0.90417   0.20242   0.82213   0.00000  Uiso   1.00
C142   C     0.97292   0.17899   0.80334   0.00000  Uiso   1.00
C143   C     0.07670   0.12417   0.80032   0.00000  Uiso   1.00
C144   C     0.79868   0.27676   0.71918   0.00000  Uiso   1.00
C145   C     0.73968   0.24748   0.73103   0.00000  Uiso   1.00
C146   C     0.73321   0.24466   0.67057   0.00000  Uiso   1.00
C147   C     0.69824   0.22789   0.59072   0.00000  Uiso   1.00
C148   C     0.82597   0.35841   0.75645   0.00000  Uiso   1.00
C149   C     0.78990   0.39779   0.79963   0.00000  Uiso   1.00
C150   C     0.80639   0.46372   0.77055   0.00000  Uiso   1.00
C151   C     0.81379   0.57372   0.74857   0.00000  Uiso   1.00
C152   C     0.90965   0.33213   0.64901   0.00000  Uiso   1.00
C153   C     0.93878   0.27784   0.69891   0.00000  Uiso   1.00
C154   C     0.00753   0.25449   0.68004   0.00000  Uiso   1.00
C155   C     0.02376   0.20460   0.73346   0.00000  Uiso   1.00
C156   C     0.84943   0.30232   0.64943   0.00000  Uiso   1.00
C157   C     0.84304   0.29955   0.58894   0.00000  Uiso   1.00
C158   C     0.78404   0.27027   0.60069   0.00000  Uiso   1.00
C159   C     0.87672   0.38397   0.68670   0.00000  Uiso   1.00
C160   C     0.89327   0.44986   0.65754   0.00000  Uiso   1.00
C161   C     0.85723   0.48933   0.70067   0.00000  Uiso   1.00
H162   H     0.77672   0.26517   0.83174   0.00000  Uiso   1.00
H163   H     0.86488   0.18265   0.87610   0.00000  Uiso   1.00
H164   H     0.70041   0.22771   0.78501   0.00000  Uiso   1.00
H165   H     0.75063   0.37799   0.85361   0.00000  Uiso   1.00
H166   H     0.98500   0.10241   0.89451   0.00000  Uiso   1.00
H167   H     0.63820   0.19745   0.70245   0.00000  Uiso   1.00
H168   H     0.74409   0.51436   0.84709   0.00000  Uiso   1.00
H169   H     0.94916   0.35203   0.59470   0.00000  Uiso   1.00
H170   H     0.04679   0.27428   0.62605   0.00000  Uiso   1.00
H171   H     0.88232   0.31934   0.53497   0.00000  Uiso   1.00
H172   H     0.93254   0.46962   0.60356   0.00000  Uiso   1.00
H173   H     0.13264   0.17678   0.69156   0.00000  Uiso   1.00
H174   H     0.78584   0.27182   0.49950   0.00000  Uiso   1.00
H175   H     0.89173   0.58872   0.64414   0.00000  Uiso   1.00
O176   O     0.11993   0.08687   0.81793   0.00000  Uiso   1.00
O177   O     0.66493   0.21156   0.56595   0.00000  Uiso   1.00
O178   O     0.80386   0.62733   0.75572   0.00000  Uiso   1.00
N179   N     0.00635   0.13060   0.84245   0.00000  Uiso   1.00
N180   N     0.68212   0.21944   0.66288   0.00000  Uiso   1.00
N181   N     0.78111   0.51572   0.79811   0.00000  Uiso   1.00
N182   N     0.08580   0.17062   0.73324   0.00000  Uiso   1.00
N183   N     0.76156   0.25946   0.55367   0.00000  Uiso   1.00
N184   N     0.86055   0.55574   0.68890   0.00000  Uiso   1.00
C185   C     0.39902   0.84047   0.87126   0.00000  Uiso   1.00
C186   C     0.39567   0.76575   0.89820   0.00000  Uiso   1.00
C187   C     0.33545   0.72979   0.94104   0.00000  Uiso   1.00
C188   C     0.34340   0.66185   0.95991   0.00000  Uiso   1.00
C189   C     0.32819   0.55052   0.00523   0.00000  Uiso   1.00
C190   C     0.43553   0.86026   0.78904   0.00000  Uiso   1.00
C191   C     0.40882   0.90376   0.74011   0.00000  Uiso   1.00
C192   C     0.45032   0.91538   0.66709   0.00000  Uiso   1.00
C193   C     0.49700   0.95081   0.54294   0.00000  Uiso   1.00
C194   C     0.44890   0.85654   0.89731   0.00000  Uiso   1.00
C195   C     0.43346   0.89694   0.93940   0.00000  Uiso   1.00
C196   C     0.48623   0.90544   0.95754   0.00000  Uiso   1.00
C197   C     0.55368   0.93510   0.00150   0.00000  Uiso   1.00
C198   C     0.52021   0.78376   0.82861   0.00000  Uiso   1.00
C199   C     0.46150   0.73495   0.87502   0.00000  Uiso   1.00
C200   C     0.46954   0.66705   0.89384   0.00000  Uiso   1.00
C201   C     0.40934   0.63099   0.93671   0.00000  Uiso   1.00
C202   C     0.50135   0.82946   0.76587   0.00000  Uiso   1.00
C203   C     0.54290   0.84102   0.69291   0.00000  Uiso   1.00
C204   C     0.51626   0.88453   0.64388   0.00000  Uiso   1.00
C205   C     0.51473   0.82574   0.87415   0.00000  Uiso   1.00
C206   C     0.56754   0.83419   0.89221   0.00000  Uiso   1.00
C207   C     0.55217   0.87459   0.93432   0.00000  Uiso   1.00
H208   H     0.34777   0.86446   0.88930   0.00000  Uiso   1.00
H209   H     0.28452   0.75365   0.95895   0.00000  Uiso   1.00
H210   H     0.35788   0.92760   0.75805   0.00000  Uiso   1.00
H211   H     0.38251   0.92077   0.95732   0.00000  Uiso   1.00
H212   H     0.24342   0.61722   0.02594   0.00000  Uiso   1.00
H213   H     0.39811   0.98401   0.60233   0.00000  Uiso   1.00
H214   H     0.45005   0.96962   0.02253   0.00000  Uiso   1.00
H215   H     0.57146   0.75978   0.81056   0.00000  Uiso   1.00
H216   H     0.52049   0.64323   0.87590   0.00000  Uiso   1.00
H217   H     0.59384   0.81718   0.67500   0.00000  Uiso   1.00
H218   H     0.61847   0.81035   0.87427   0.00000  Uiso   1.00
H219   H     0.43494   0.52759   0.95853   0.00000  Uiso   1.00
H220   H     0.58963   0.89439   0.53492   0.00000  Uiso   1.00
H221   H     0.64157   0.87999   0.95512   0.00000  Uiso   1.00
O222   O     0.30161   0.49762   0.03661   0.00000  Uiso   1.00
O223   O     0.50456   0.97885   0.48086   0.00000  Uiso   1.00
O224   O     0.57270   0.95996   0.03215   0.00000  Uiso   1.00
N225   N     0.29549   0.61212   0.00112   0.00000  Uiso   1.00
N226   N     0.44011   0.95504   0.60507   0.00000  Uiso   1.00
N227   N     0.48868   0.94160   0.99790   0.00000  Uiso   1.00
N228   N     0.39855   0.56389   0.96485   0.00000  Uiso   1.00
N229   N     0.54317   0.90682   0.56880   0.00000  Uiso   1.00
N230   N     0.59173   0.89337   0.96163   0.00000  Uiso   1.00
C231   C     0.92650   0.63500   0.38093   0.00000  Uiso   1.00
C232   C     0.93028   0.69306   0.31370   0.00000  Uiso   1.00
C233   C     0.98732   0.70834   0.24794   0.00000  Uiso   1.00
C234   C     0.98041   0.76350   0.19307   0.00000  Uiso   1.00
C235   C     0.99567   0.84778   0.08705   0.00000  Uiso   1.00
C236   C     0.86341   0.59636   0.40102   0.00000  Uiso   1.00
C237   C     0.86422   0.53033   0.40869   0.00000  Uiso   1.00
C238   C     0.80101   0.50408   0.42733   0.00000  Uiso   1.00
C239   C     0.71243   0.43823   0.45694   0.00000  Uiso   1.00
C240   C     0.90788   0.66410   0.44142   0.00000  Uiso   1.00
C241   C     0.94607   0.65501   0.48308   0.00000  Uiso   1.00
C242   C     0.92028   0.68578   0.53575   0.00000  Uiso   1.00
C243   C     0.90075   0.72510   0.62808   0.00000  Uiso   1.00
C244   C     0.81278   0.70581   0.40041   0.00000  Uiso   1.00
C245   C     0.86851   0.73152   0.32428   0.00000  Uiso   1.00
C246   C     0.86151   0.78667   0.26949   0.00000  Uiso   1.00
C247   C     0.91853   0.80203   0.20367   0.00000  Uiso   1.00
C248   C     0.80164   0.63482   0.41160   0.00000  Uiso   1.00
C249   C     0.73841   0.60867   0.43024   0.00000  Uiso   1.00
C250   C     0.73913   0.54261   0.43793   0.00000  Uiso   1.00
C251   C     0.84611   0.70256   0.45200   0.00000  Uiso   1.00
C252   C     0.82025   0.73335   0.50463   0.00000  Uiso   1.00
C253   C     0.85840   0.72431   0.54635   0.00000  Uiso   1.00
H254   H     0.97459   0.60506   0.37269   0.00000  Uiso   1.00
H255   H     0.03512   0.67856   0.23977   0.00000  Uiso   1.00
H256   H     0.91203   0.50058   0.40050   0.00000  Uiso   1.00
H257   H     0.99386   0.62524   0.47487   0.00000  Uiso   1.00
H258   H     0.07497   0.77699   0.09706   0.00000  Uiso   1.00
H259   H     0.81544   0.40170   0.43599   0.00000  Uiso   1.00
H260   H     0.98800   0.66458   0.59282   0.00000  Uiso   1.00
H261   H     0.76469   0.73575   0.40865   0.00000  Uiso   1.00
H262   H     0.81370   0.81643   0.27770   0.00000  Uiso   1.00
H263   H     0.69062   0.63844   0.43843   0.00000  Uiso   1.00
H264   H     0.77245   0.76311   0.51280   0.00000  Uiso   1.00
H265   H     0.89527   0.88889   0.12784   0.00000  Uiso   1.00
H266   H     0.63573   0.51360   0.46678   0.00000  Uiso   1.00
H267   H     0.80829   0.77648   0.62361   0.00000  Uiso   1.00
O268   O     0.02114   0.88364   0.02565   0.00000  Uiso   1.00
O269   O     0.68064   0.39127   0.47034   0.00000  Uiso   1.00
O270   O     0.90704   0.73617   0.67608   0.00000  Uiso   1.00
N271   N     0.02596   0.79226   0.12228   0.00000  Uiso   1.00
N272   N     0.78331   0.44139   0.43915   0.00000  Uiso   1.00
N273   N     0.94463   0.68715   0.58579   0.00000  Uiso   1.00
N274   N     0.92926   0.85247   0.13884   0.00000  Uiso   1.00
N275   N     0.68661   0.50160   0.45572   0.00000  Uiso   1.00
N276   N     0.84793   0.74736   0.60235   0.00000  Uiso   1.00
C277   C     0.79499   0.70102   0.09414   0.00000  Uiso   1.00
C278   C     0.77377   0.77378   0.07715   0.00000  Uiso   1.00
C279   C     0.72538   0.80338   0.12634   0.00000  Uiso   1.00
C280   C     0.71325   0.87055   0.10014   0.00000  Uiso   1.00
C281   C     0.67499   0.97803   0.08484   0.00000  Uiso   1.00
C282   C     0.87404   0.69790   0.07079   0.00000  Uiso   1.00
C283   C     0.90995   0.66368   0.11464   0.00000  Uiso   1.00
C284   C     0.98222   0.66697   0.08308   0.00000  Uiso   1.00
C285   C     0.09964   0.65659   0.05790   0.00000  Uiso   1.00
C286   C     0.78139   0.67707   0.04264   0.00000  Uiso   1.00
C287   C     0.73941   0.62534   0.06281   0.00000  Uiso   1.00
C288   C     0.73370   0.61109   0.00755   0.00000  Uiso   1.00
C289   C     0.70725   0.56838   0.93865   0.00000  Uiso   1.00
C290   C     0.85952   0.76768   0.96012   0.00000  Uiso   1.00
C291   C     0.80882   0.80998   0.00436   0.00000  Uiso   1.00
C292   C     0.79676   0.87713   0.97807   0.00000  Uiso   1.00
C293   C     0.74836   0.90683   0.02722   0.00000  Uiso   1.00
C294   C     0.90909   0.73410   0.99800   0.00000  Uiso   1.00
C295   C     0.98133   0.73743   0.96637   0.00000  Uiso   1.00
C296   C     0.01733   0.70324   0.01016   0.00000  Uiso   1.00
C297   C     0.81643   0.71328   0.96984   0.00000  Uiso   1.00
C298   C     0.81079   0.69910   0.91454   0.00000  Uiso   1.00
C299   C     0.76881   0.64736   0.93463   0.00000  Uiso   1.00
H300   H     0.76771   0.67283   0.15081   0.00000  Uiso   1.00
H301   H     0.69827   0.77535   0.18267   0.00000  Uiso   1.00
H302   H     0.88281   0.63567   0.17096   0.00000  Uiso   1.00
H303   H     0.71230   0.59734   0.11914   0.00000  Uiso   1.00
H304   H     0.63676   0.90497   0.18591   0.00000  Uiso   1.00
H305   H     0.02587   0.61043   0.16121   0.00000  Uiso   1.00
H306   H     0.66631   0.52960   0.05194   0.00000  Uiso   1.00
H307   H     0.88680   0.79587   0.90345   0.00000  Uiso   1.00
H308   H     0.82389   0.90514   0.92174   0.00000  Uiso   1.00
H309   H     0.00843   0.76545   0.91004   0.00000  Uiso   1.00
H310   H     0.83792   0.72713   0.85822   0.00000  Uiso   1.00
H311   H     0.73872   0.01031   0.97413   0.00000  Uiso   1.00
H312   H     0.12783   0.71577   0.94944   0.00000  Uiso   1.00
H313   H     0.76827   0.63495   0.84016   0.00000  Uiso   1.00
O314   O     0.64422   0.02731   0.09652   0.00000  Uiso   1.00
O315   O     0.15472   0.64087   0.06412   0.00000  Uiso   1.00
O316   O     0.68298   0.53483   0.92076   0.00000  Uiso   1.00
N317   N     0.66938   0.91477   0.13355   0.00000  Uiso   1.00
N318   N     0.03317   0.63940   0.11047   0.00000  Uiso   1.00
N319   N     0.69703   0.56382   0.00831   0.00000  Uiso   1.00
N320   N     0.72424   0.97145   0.01959   0.00000  Uiso   1.00
N321   N     0.08803   0.69608   0.99651   0.00000  Uiso   1.00
N322   N     0.75189   0.62050   0.89435   0.00000  Uiso   1.00
C323   C     0.27635   0.79533   0.62764   0.00000  Uiso   1.00
C324   C     0.33432   0.76082   0.65331   0.00000  Uiso   1.00
C325   C     0.39986   0.74226   0.61034   0.00000  Uiso   1.00
C326   C     0.44552   0.71126   0.64405   0.00000  Uiso   1.00
C327   C     0.53848   0.65953   0.67264   0.00000  Uiso   1.00
C328   C     0.25735   0.85815   0.64815   0.00000  Uiso   1.00
C329   C     0.25818   0.92142   0.60084   0.00000  Uiso   1.00
C330   C     0.23904   0.97235   0.63021   0.00000  Uiso   1.00
C331   C     0.21246   0.07173   0.65080   0.00000  Uiso   1.00
C332   C     0.21306   0.75190   0.67485   0.00000  Uiso   1.00
C333   C     0.17664   0.72586   0.64999   0.00000  Uiso   1.00
C334   C     0.12020   0.68735   0.70184   0.00000  Uiso   1.00
C335   C     0.02485   0.62176   0.76388   0.00000  Uiso   1.00
C336   C     0.24087   0.77327   0.76392   0.00000  Uiso   1.00
C337   C     0.31505   0.74884   0.72733   0.00000  Uiso   1.00
C338   C     0.36061   0.71785   0.76112   0.00000  Uiso   1.00
C339   C     0.42622   0.69925   0.71820   0.00000  Uiso   1.00
C340   C     0.23808   0.84617   0.72217   0.00000  Uiso   1.00
C341   C     0.21893   0.89702   0.75162   0.00000  Uiso   1.00
C342   C     0.21973   0.96035   0.70436   0.00000  Uiso   1.00
C343   C     0.19379   0.73992   0.74887   0.00000  Uiso   1.00
C344   C     0.13739   0.70145   0.80077   0.00000  Uiso   1.00
C345   C     0.10089   0.67535   0.77599   0.00000  Uiso   1.00
H346   H     0.29135   0.80466   0.57001   0.00000  Uiso   1.00
H347   H     0.41476   0.75155   0.55305   0.00000  Uiso   1.00
H348   H     0.27309   0.93068   0.54356   0.00000  Uiso   1.00
H349   H     0.19156   0.73514   0.59270   0.00000  Uiso   1.00
H350   H     0.54309   0.68740   0.56690   0.00000  Uiso   1.00
H351   H     0.24435   0.06511   0.54688   0.00000  Uiso   1.00
H352   H     0.07244   0.65278   0.65051   0.00000  Uiso   1.00
H353   H     0.22587   0.76394   0.82155   0.00000  Uiso   1.00
H354   H     0.34569   0.70859   0.81840   0.00000  Uiso   1.00
H355   H     0.20402   0.88772   0.80890   0.00000  Uiso   1.00
H356   H     0.12249   0.69219   0.85804   0.00000  Uiso   1.00
H357   H     0.48704   0.65254   0.78226   0.00000  Uiso   1.00
H358   H     0.18829   0.03025   0.76224   0.00000  Uiso   1.00
H359   H     0.01638   0.61792   0.86587   0.00000  Uiso   1.00
O360   O     0.59508   0.63431   0.66796   0.00000  Uiso   1.00
O361   O     0.20313   0.12985   0.64170   0.00000  Uiso   1.00
O362   O     0.97758   0.58888   0.77766   0.00000  Uiso   1.00
N363   N     0.51345   0.68678   0.61802   0.00000  Uiso   1.00
N364   N     0.23416   0.03992   0.59930   0.00000  Uiso   1.00
N365   N     0.07342   0.65444   0.69618   0.00000  Uiso   1.00
N366   N     0.48329   0.66802   0.73390   0.00000  Uiso   1.00
N367   N     0.20399   0.02116   0.71518   0.00000  Uiso   1.00
N368   N     0.04326   0.63568   0.81207   0.00000  Uiso   1.00
C369   C     0.87278   0.06266   0.73890   0.00000  Uiso   1.00
C370   C     0.94225   0.08541   0.67606   0.00000  Uiso   1.00
C371   C     0.95462   0.14720   0.62427   0.00000  Uiso   1.00
C372   C     0.02174   0.15836   0.57118   0.00000  Uiso   1.00
C373   C     0.12158   0.20113   0.47380   0.00000  Uiso   1.00
C374   C     0.88753   0.03952   0.80739   0.00000  Uiso   1.00
C375   C     0.85390   0.06271   0.86602   0.00000  Uiso   1.00
C376   C     0.87495   0.03523   0.92349   0.00000  Uiso   1.00
C377   C     0.88980   0.00671   0.03003   0.00000  Uiso   1.00
C378   C     0.85516   0.00135   0.73176   0.00000  Uiso   1.00
C379   C     0.79431   0.99244   0.72682   0.00000  Uiso   1.00
C380   C     0.78810   0.93281   0.72062   0.00000  Uiso   1.00
C381   C     0.75270   0.84503   0.70974   0.00000  Uiso   1.00
C382   C     0.96996   0.97259   0.73672   0.00000  Uiso   1.00
C383   C     0.99503   0.03649   0.67488   0.00000  Uiso   1.00
C384   C     0.06214   0.04755   0.62185   0.00000  Uiso   1.00
C385   C     0.07461   0.10935   0.56999   0.00000  Uiso   1.00
C386   C     0.94031   0.99060   0.80621   0.00000  Uiso   1.00
C387   C     0.96141   0.96306   0.86361   0.00000  Uiso   1.00
C388   C     0.92782   0.98622   0.92230   0.00000  Uiso   1.00
C389   C     0.90795   0.95242   0.73057   0.00000  Uiso   1.00
C390   C     0.90183   0.89279   0.72440   0.00000  Uiso   1.00
C391   C     0.84097   0.88380   0.71944   0.00000  Uiso   1.00
H392   H     0.83169   0.10075   0.73983   0.00000  Uiso   1.00
H393   H     0.91376   0.18505   0.62521   0.00000  Uiso   1.00
H394   H     0.81305   0.10057   0.86692   0.00000  Uiso   1.00
H395   H     0.75347   0.03031   0.72773   0.00000  Uiso   1.00
H396   H     0.02804   0.25694   0.49762   0.00000  Uiso   1.00
H397   H     0.81566   0.07879   0.00730   0.00000  Uiso   1.00
H398   H     0.69003   0.93064   0.71380   0.00000  Uiso   1.00
H399   H     0.01105   0.93450   0.73580   0.00000  Uiso   1.00
H400   H     0.10298   0.00968   0.62095   0.00000  Uiso   1.00
H401   H     0.00226   0.92520   0.86267   0.00000  Uiso   1.00
H402   H     0.94268   0.85494   0.72348   0.00000  Uiso   1.00
H403   H     0.18162   0.11461   0.49417   0.00000  Uiso   1.00
H404   H     0.96923   0.93646   0.00386   0.00000  Uiso   1.00
H405   H     0.84360   0.78830   0.71035   0.00000  Uiso   1.00
O406   O     0.16207   0.23824   0.42043   0.00000  Uiso   1.00
O407   O     0.88342   0.00450   0.08912   0.00000  Uiso   1.00
O408   O     0.71860   0.81013   0.70405   0.00000  Uiso   1.00
N409   N     0.05157   0.21312   0.51256   0.00000  Uiso   1.00
N410   N     0.85301   0.04657   0.98908   0.00000  Uiso   1.00
N411   N     0.73555   0.90805   0.71470   0.00000  Uiso   1.00
N412   N     0.13420   0.13653   0.51070   0.00000  Uiso   1.00
N413   N     0.93565   0.96998   0.98722   0.00000  Uiso   1.00
N414   N     0.81819   0.83146   0.71284   0.00000  Uiso   1.00
C415   C     0.35780   0.53830   0.28315   0.00000  Uiso   1.00
C416   C     0.30015   0.54113   0.35498   0.00000  Uiso   1.00
C417   C     0.25625   0.59494   0.36602   0.00000  Uiso   1.00
C418   C     0.20687   0.58769   0.43574   0.00000  Uiso   1.00
C419   C     0.11817   0.60107   0.53867   0.00000  Uiso   1.00
C420   C     0.42478   0.51913   0.29683   0.00000  Uiso   1.00
C421   C     0.48567   0.55445   0.25898   0.00000  Uiso   1.00
C422   C     0.54120   0.52867   0.27975   0.00000  Uiso   1.00
C423   C     0.64601   0.50787   0.29238   0.00000  Uiso   1.00
C424   C     0.34187   0.48023   0.26904   0.00000  Uiso   1.00
C425   C     0.33307   0.48283   0.20781   0.00000  Uiso   1.00
C426   C     0.31882   0.42430   0.20518   0.00000  Uiso   1.00
C427   C     0.29491   0.34310   0.17465   0.00000  Uiso   1.00
C428   C     0.34817   0.42973   0.38734   0.00000  Uiso   1.00
C429   C     0.29492   0.48216   0.41157   0.00000  Uiso   1.00
C430   C     0.24559   0.47482   0.48130   0.00000  Uiso   1.00
C431   C     0.20162   0.52861   0.49244   0.00000  Uiso   1.00
C432   C     0.41955   0.46016   0.35342   0.00000  Uiso   1.00
C433   C     0.47501   0.43432   0.37426   0.00000  Uiso   1.00
C434   C     0.53596   0.46959   0.33645   0.00000  Uiso   1.00
C435   C     0.33664   0.42126   0.32564   0.00000  Uiso   1.00
C436   C     0.32241   0.36271   0.32309   0.00000  Uiso   1.00
C437   C     0.31358   0.36522   0.26188   0.00000  Uiso   1.00
H438   H     0.36188   0.58421   0.23909   0.00000  Uiso   1.00
H439   H     0.26032   0.64058   0.32221   0.00000  Uiso   1.00
H440   H     0.48970   0.60008   0.21518   0.00000  Uiso   1.00
H441   H     0.33712   0.52848   0.16403   0.00000  Uiso   1.00
H442   H     0.14543   0.67707   0.43933   0.00000  Uiso   1.00
H443   H     0.62910   0.59167   0.21364   0.00000  Uiso   1.00
H444   H     0.30737   0.44068   0.10577   0.00000  Uiso   1.00
H445   H     0.34410   0.38381   0.43140   0.00000  Uiso   1.00
H446   H     0.24156   0.42917   0.52508   0.00000  Uiso   1.00
H447   H     0.47094   0.38868   0.41805   0.00000  Uiso   1.00
H448   H     0.31837   0.31708   0.36690   0.00000  Uiso   1.00
H449   H     0.13021   0.50549   0.60398   0.00000  Uiso   1.00
H450   H     0.61388   0.42009   0.37829   0.00000  Uiso   1.00
H451   H     0.29215   0.26910   0.27043   0.00000  Uiso   1.00
O452   O     0.07070   0.62474   0.57981   0.00000  Uiso   1.00
O453   O     0.70527   0.51270   0.28371   0.00000  Uiso   1.00
O454   O     0.28315   0.31460   0.14219   0.00000  Uiso   1.00
N455   N     0.15591   0.63045   0.46522   0.00000  Uiso   1.00
N456   N     0.60811   0.55062   0.25422   0.00000  Uiso   1.00
N457   N     0.30734   0.40945   0.15336   0.00000  Uiso   1.00
N458   N     0.14772   0.53813   0.55382   0.00000  Uiso   1.00
N459   N     0.59992   0.45829   0.34282   0.00000  Uiso   1.00
N460   N     0.29914   0.31713   0.24196   0.00000  Uiso   1.00
C461   C     0.78396   0.28080   0.10005   0.00000  Uiso   1.00
C462   C     0.83079   0.32538   0.02686   0.00000  Uiso   1.00
C463   C     0.88721   0.30483   0.97463   0.00000  Uiso   1.00
C464   C     0.92344   0.35324   0.91127   0.00000  Uiso   1.00
C465   C     0.99915   0.41234   0.79926   0.00000  Uiso   1.00
C466   C     0.78673   0.30543   0.15675   0.00000  Uiso   1.00
C467   C     0.80611   0.26809   0.21373   0.00000  Uiso   1.00
C468   C     0.80526   0.29971   0.25971   0.00000  Uiso   1.00
C469   C     0.81252   0.32782   0.34939   0.00000  Uiso   1.00
C470   C     0.70970   0.29556   0.10310   0.00000  Uiso   1.00
C471   C     0.66429   0.24993   0.11498   0.00000  Uiso   1.00
C472   C     0.59856   0.27324   0.11582   0.00000  Uiso   1.00
C473   C     0.48621   0.28603   0.12219   0.00000  Uiso   1.00
C474   C     0.74797   0.40334   0.08042   0.00000  Uiso   1.00
C475   C     0.81124   0.39194   0.01620   0.00000  Uiso   1.00
C476   C     0.84740   0.44040   0.95290   0.00000  Uiso   1.00
C477   C     0.90386   0.41992   0.90059   0.00000  Uiso   1.00
C478   C     0.76719   0.37198   0.14609   0.00000  Uiso   1.00
C479   C     0.76630   0.40366   0.19200   0.00000  Uiso   1.00
C480   C     0.78567   0.36638   0.24903   0.00000  Uiso   1.00
C481   C     0.69015   0.36212   0.09243   0.00000  Uiso   1.00
C482   C     0.62448   0.38550   0.09325   0.00000  Uiso   1.00
C483   C     0.57898   0.33992   0.10513   0.00000  Uiso   1.00
H484   H     0.79917   0.22898   0.10836   0.00000  Uiso   1.00
H485   H     0.90232   0.25332   0.98290   0.00000  Uiso   1.00
H486   H     0.82123   0.21658   0.22197   0.00000  Uiso   1.00
H487   H     0.67943   0.19843   0.12323   0.00000  Uiso   1.00
H488   H     0.00808   0.30965   0.83912   0.00000  Uiso   1.00
H489   H     0.83707   0.23219   0.34322   0.00000  Uiso   1.00
H490   H     0.53805   0.19390   0.13502   0.00000  Uiso   1.00
H491   H     0.73275   0.45515   0.07212   0.00000  Uiso   1.00
H492   H     0.83226   0.49190   0.94467   0.00000  Uiso   1.00
H493   H     0.75117   0.45517   0.18373   0.00000  Uiso   1.00
H494   H     0.60937   0.43701   0.08500   0.00000  Uiso   1.00
H495   H     0.95121   0.50329   0.80809   0.00000  Uiso   1.00
H496   H     0.78020   0.42583   0.31219   0.00000  Uiso   1.00
H497   H     0.48119   0.38755   0.10399   0.00000  Uiso   1.00
O498   O     0.04632   0.42656   0.74043   0.00000  Uiso   1.00
O499   O     0.82194   0.32493   0.40179   0.00000  Uiso   1.00
O500   O     0.42965   0.27471   0.12863   0.00000  Uiso   1.00
N501   N     0.98103   0.35018   0.84930   0.00000  Uiso   1.00
N502   N     0.82116   0.27776   0.32060   0.00000  Uiso   1.00
N503   N     0.54160   0.24196   0.12597   0.00000  Uiso   1.00
N504   N     0.95043   0.45437   0.83260   0.00000  Uiso   1.00
N505   N     0.79056   0.38196   0.30390   0.00000  Uiso   1.00
N506   N     0.51100   0.34616   0.10927   0.00000  Uiso   1.00
C507   C     0.32151   0.23513   0.60502   0.00000  Uiso   1.00
C508   C     0.32848   0.17570   0.66665   0.00000  Uiso   1.00
C509   C     0.27679   0.15291   0.73544   0.00000  Uiso   1.00
C510   C     0.29346   0.09779   0.78416   0.00000  Uiso   1.00
C511   C     0.29426   0.01026   0.88284   0.00000  Uiso   1.00
C512   C     0.38027   0.28037   0.58204   0.00000  Uiso   1.00
C513   C     0.37212   0.34559   0.57967   0.00000  Uiso   1.00
C514   C     0.43238   0.37858   0.55714   0.00000  Uiso   1.00
C515   C     0.51359   0.45357   0.52440   0.00000  Uiso   1.00
C516   C     0.33905   0.21001   0.54182   0.00000  Uiso   1.00
C517   C     0.29624   0.21610   0.50563   0.00000  Uiso   1.00
C518   C     0.32181   0.18986   0.44923   0.00000  Uiso   1.00
C519   C     0.33902   0.15561   0.35404   0.00000  Uiso   1.00
C520   C     0.44303   0.17775   0.56920   0.00000  Uiso   1.00
C521   C     0.39449   0.14454   0.64720   0.00000  Uiso   1.00
C522   C     0.41124   0.08943   0.69582   0.00000  Uiso   1.00
C523   C     0.35958   0.06656   0.76467   0.00000  Uiso   1.00
C524   C     0.44628   0.24921   0.56258   0.00000  Uiso   1.00
C525   C     0.50657   0.28211   0.54005   0.00000  Uiso   1.00
C526   C     0.49851   0.34736   0.53766   0.00000  Uiso   1.00
C527   C     0.40506   0.17885   0.52237   0.00000  Uiso   1.00
C528   C     0.43070   0.15261   0.46601   0.00000  Uiso   1.00
C529   C     0.38794   0.15864   0.42974   0.00000  Uiso   1.00
H530   H     0.27012   0.25940   0.62016   0.00000  Uiso   1.00
H531   H     0.22571   0.17705   0.75048   0.00000  Uiso   1.00
H532   H     0.32103   0.36970   0.59472   0.00000  Uiso   1.00
H533   H     0.24517   0.24022   0.52069   0.00000  Uiso   1.00
H534   H     0.20560   0.07202   0.88639   0.00000  Uiso   1.00
H535   H     0.40658   0.47823   0.55795   0.00000  Uiso   1.00
H536   H     0.24661   0.20520   0.40184   0.00000  Uiso   1.00
H537   H     0.49442   0.15349   0.55406   0.00000  Uiso   1.00
H538   H     0.46233   0.06532   0.68075   0.00000  Uiso   1.00
H539   H     0.55764   0.25797   0.52500   0.00000  Uiso   1.00
H540   H     0.48178   0.12849   0.45097   0.00000  Uiso   1.00
H541   H     0.39765   0.98133   0.82980   0.00000  Uiso   1.00
H542   H     0.59862   0.38756   0.50135   0.00000  Uiso   1.00
H543   H     0.43866   0.11452   0.34525   0.00000  Uiso   1.00
O544   O     0.27647   0.97060   0.94264   0.00000  Uiso   1.00
O545   O     0.54014   0.50355   0.51172   0.00000  Uiso   1.00
O546   O     0.33027   0.14533   0.30692   0.00000  Uiso   1.00
N547   N     0.25520   0.06277   0.85568   0.00000  Uiso   1.00
N548   N     0.44310   0.44255   0.54862   0.00000  Uiso   1.00
N549   N     0.29355   0.18730   0.40266   0.00000  Uiso   1.00
N550   N     0.35854   0.01397   0.82523   0.00000  Uiso   1.00
N551   N     0.54644   0.39376   0.51817   0.00000  Uiso   1.00
N552   N     0.39689   0.13851   0.37221   0.00000  Uiso   1.00
