data_job_04759
_audit_creation_date              2018-12-19
_audit_creation_method            'Materials Studio'
_symmetry_space_group_name_H-M    'P1'
_symmetry_Int_Tables_number       1
_symmetry_cell_setting            triclinic
loop_
_symmetry_equiv_pos_as_xyz
  x,y,z
_cell_length_a                    15.1207
_cell_length_b                    15.4049
_cell_length_c                    9.8789
_cell_angle_alpha                 90.0000
_cell_angle_beta                  90.0000
_cell_angle_gamma                 90.0000
loop_
_atom_site_label
_atom_site_type_symbol
_atom_site_fract_x
_atom_site_fract_y
_atom_site_fract_z
_atom_site_U_iso_or_equiv
_atom_site_adp_type
_atom_site_occupancy
C1     C     0.17778   0.57744   0.82147   0.00000  Uiso   1.00
C2     C     0.26751   0.61460   0.78136   0.00000  Uiso   1.00
C3     C     0.28143   0.68240   0.69135   0.00000  Uiso   1.00
C4     C     0.36850   0.70683   0.66812   0.00000  Uiso   1.00
C5     C     0.49710   0.77088   0.59598   0.00000  Uiso   1.00
C6     C     0.18189   0.48072   0.78915   0.00000  Uiso   1.00
C7     C     0.12381   0.43596   0.70570   0.00000  Uiso   1.00
C8     C     0.13881   0.34768   0.68905   0.00000  Uiso   1.00
C9     C     0.13443   0.20388   0.62908   0.00000  Uiso   1.00
C10    C     0.17295   0.58408   0.97529   0.00000  Uiso   1.00
C11    C     0.10735   0.62621   0.04837   0.00000  Uiso   1.00
C12    C     0.11480   0.62493   0.18844   0.00000  Uiso   1.00
C13    C     0.09655   0.64161   0.41749   0.00000  Uiso   1.00
C14    C     0.30765   0.50025   0.94028   0.00000  Uiso   1.00
C15    C     0.33805   0.57268   0.84590   0.00000  Uiso   1.00
C16    C     0.42512   0.59701   0.82281   0.00000  Uiso   1.00
C17    C     0.43917   0.66483   0.73278   0.00000  Uiso   1.00
C18    C     0.25242   0.43880   0.85368   0.00000  Uiso   1.00
C19    C     0.26750   0.35057   0.83716   0.00000  Uiso   1.00
C20    C     0.20947   0.30568   0.75370   0.00000  Uiso   1.00
C21    C     0.24349   0.54216   0.03983   0.00000  Uiso   1.00
C22    C     0.25104   0.54082   0.17982   0.00000  Uiso   1.00
C23    C     0.18547   0.58293   0.25309   0.00000  Uiso   1.00
H24    H     0.12286   0.61007   0.77122   0.00000  Uiso   1.00
H25    H     0.22682   0.71482   0.64142   0.00000  Uiso   1.00
H26    H     0.06923   0.46842   0.65578   0.00000  Uiso   1.00
H27    H     0.05277   0.65864   0.99839   0.00000  Uiso   1.00
H28    H     0.37320   0.81245   0.52593   0.00000  Uiso   1.00
H29    H     0.04088   0.29289   0.55625   0.00000  Uiso   1.00
H30    H     0.00617   0.69401   0.27872   0.00000  Uiso   1.00
H31    H     0.36257   0.46761   0.99053   0.00000  Uiso   1.00
H32    H     0.47969   0.56455   0.87276   0.00000  Uiso   1.00
H33    H     0.32209   0.31815   0.88712   0.00000  Uiso   1.00
H34    H     0.30564   0.50837   0.22973   0.00000  Uiso   1.00
H35    H     0.57844   0.69049   0.71369   0.00000  Uiso   1.00
H36    H     0.24611   0.17092   0.74402   0.00000  Uiso   1.00
H37    H     0.21141   0.57204   0.46648   0.00000  Uiso   1.00
O38    O     0.54854   0.81779   0.53835   0.00000  Uiso   1.00
O39    O     0.11254   0.13615   0.57815   0.00000  Uiso   1.00
O40    O     0.06701   0.66240   0.52600   0.00000  Uiso   1.00
N41    N     0.40543   0.77046   0.58631   0.00000  Uiso   1.00
N42    N     0.09474   0.28470   0.61464   0.00000  Uiso   1.00
N43    N     0.06227   0.65969   0.29008   0.00000  Uiso   1.00
N44    N     0.51586   0.70483   0.68734   0.00000  Uiso   1.00
N45    N     0.20517   0.21907   0.71567   0.00000  Uiso   1.00
N46    N     0.17271   0.59406   0.39111   0.00000  Uiso   1.00
C47    C     0.82222   0.42256   0.82147   0.00000  Uiso   1.00
C48    C     0.73249   0.38540   0.78136   0.00000  Uiso   1.00
C49    C     0.71857   0.31760   0.69135   0.00000  Uiso   1.00
C50    C     0.63150   0.29317   0.66812   0.00000  Uiso   1.00
C51    C     0.50290   0.22912   0.59598   0.00000  Uiso   1.00
C52    C     0.81811   0.51928   0.78915   0.00000  Uiso   1.00
C53    C     0.87619   0.56404   0.70570   0.00000  Uiso   1.00
C54    C     0.86119   0.65232   0.68905   0.00000  Uiso   1.00
C55    C     0.86557   0.79612   0.62908   0.00000  Uiso   1.00
C56    C     0.82705   0.41592   0.97529   0.00000  Uiso   1.00
C57    C     0.89265   0.37379   0.04837   0.00000  Uiso   1.00
C58    C     0.88520   0.37507   0.18844   0.00000  Uiso   1.00
C59    C     0.90345   0.35839   0.41749   0.00000  Uiso   1.00
C60    C     0.69235   0.49975   0.94028   0.00000  Uiso   1.00
C61    C     0.66195   0.42732   0.84590   0.00000  Uiso   1.00
C62    C     0.57488   0.40299   0.82281   0.00000  Uiso   1.00
C63    C     0.56083   0.33517   0.73278   0.00000  Uiso   1.00
C64    C     0.74758   0.56120   0.85368   0.00000  Uiso   1.00
C65    C     0.73250   0.64943   0.83716   0.00000  Uiso   1.00
C66    C     0.79053   0.69432   0.75370   0.00000  Uiso   1.00
C67    C     0.75651   0.45784   0.03983   0.00000  Uiso   1.00
C68    C     0.74896   0.45918   0.17982   0.00000  Uiso   1.00
C69    C     0.81453   0.41707   0.25309   0.00000  Uiso   1.00
H70    H     0.87714   0.38993   0.77122   0.00000  Uiso   1.00
H71    H     0.77318   0.28518   0.64142   0.00000  Uiso   1.00
H72    H     0.93077   0.53158   0.65578   0.00000  Uiso   1.00
H73    H     0.94723   0.34136   0.99839   0.00000  Uiso   1.00
H74    H     0.62680   0.18755   0.52593   0.00000  Uiso   1.00
H75    H     0.95912   0.70711   0.55625   0.00000  Uiso   1.00
H76    H     0.99383   0.30599   0.27872   0.00000  Uiso   1.00
H77    H     0.63743   0.53239   0.99053   0.00000  Uiso   1.00
H78    H     0.52031   0.43545   0.87276   0.00000  Uiso   1.00
H79    H     0.67791   0.68185   0.88712   0.00000  Uiso   1.00
H80    H     0.69436   0.49163   0.22973   0.00000  Uiso   1.00
H81    H     0.42156   0.30951   0.71369   0.00000  Uiso   1.00
H82    H     0.75389   0.82908   0.74402   0.00000  Uiso   1.00
H83    H     0.78859   0.42796   0.46648   0.00000  Uiso   1.00
O84    O     0.45146   0.18221   0.53835   0.00000  Uiso   1.00
O85    O     0.88746   0.86385   0.57815   0.00000  Uiso   1.00
O86    O     0.93299   0.33760   0.52600   0.00000  Uiso   1.00
N87    N     0.59457   0.22954   0.58631   0.00000  Uiso   1.00
N88    N     0.90526   0.71530   0.61464   0.00000  Uiso   1.00
N89    N     0.93773   0.34031   0.29008   0.00000  Uiso   1.00
N90    N     0.48414   0.29517   0.68734   0.00000  Uiso   1.00
N91    N     0.79483   0.78093   0.71567   0.00000  Uiso   1.00
N92    N     0.82729   0.40594   0.39111   0.00000  Uiso   1.00
C93    C     0.17778   0.92256   0.32147   0.00000  Uiso   1.00
C94    C     0.26751   0.88540   0.28136   0.00000  Uiso   1.00
C95    C     0.28143   0.81760   0.19135   0.00000  Uiso   1.00
C96    C     0.36850   0.79317   0.16812   0.00000  Uiso   1.00
C97    C     0.49710   0.72912   0.09598   0.00000  Uiso   1.00
C98    C     0.18189   0.01928   0.28915   0.00000  Uiso   1.00
C99    C     0.12381   0.06404   0.20570   0.00000  Uiso   1.00
C100   C     0.13881   0.15232   0.18905   0.00000  Uiso   1.00
C101   C     0.13443   0.29612   0.12908   0.00000  Uiso   1.00
C102   C     0.17295   0.91592   0.47529   0.00000  Uiso   1.00
C103   C     0.10735   0.87379   0.54837   0.00000  Uiso   1.00
C104   C     0.11480   0.87507   0.68844   0.00000  Uiso   1.00
C105   C     0.09655   0.85839   0.91749   0.00000  Uiso   1.00
C106   C     0.30765   0.99975   0.44028   0.00000  Uiso   1.00
C107   C     0.33805   0.92732   0.34590   0.00000  Uiso   1.00
C108   C     0.42512   0.90299   0.32281   0.00000  Uiso   1.00
C109   C     0.43917   0.83517   0.23278   0.00000  Uiso   1.00
C110   C     0.25242   0.06120   0.35368   0.00000  Uiso   1.00
C111   C     0.26750   0.14943   0.33716   0.00000  Uiso   1.00
C112   C     0.20947   0.19432   0.25370   0.00000  Uiso   1.00
C113   C     0.24349   0.95784   0.53983   0.00000  Uiso   1.00
C114   C     0.25104   0.95918   0.67982   0.00000  Uiso   1.00
C115   C     0.18547   0.91707   0.75309   0.00000  Uiso   1.00
H116   H     0.12286   0.88993   0.27122   0.00000  Uiso   1.00
H117   H     0.22682   0.78518   0.14142   0.00000  Uiso   1.00
H118   H     0.06923   0.03158   0.15578   0.00000  Uiso   1.00
H119   H     0.05277   0.84136   0.49839   0.00000  Uiso   1.00
H120   H     0.37320   0.68755   0.02593   0.00000  Uiso   1.00
H121   H     0.04088   0.20711   0.05625   0.00000  Uiso   1.00
H122   H     0.00617   0.80599   0.77872   0.00000  Uiso   1.00
H123   H     0.36257   0.03239   0.49053   0.00000  Uiso   1.00
H124   H     0.47969   0.93545   0.37276   0.00000  Uiso   1.00
H125   H     0.32209   0.18185   0.38712   0.00000  Uiso   1.00
H126   H     0.30564   0.99163   0.72973   0.00000  Uiso   1.00
H127   H     0.57844   0.80951   0.21369   0.00000  Uiso   1.00
H128   H     0.24611   0.32908   0.24402   0.00000  Uiso   1.00
H129   H     0.21141   0.92796   0.96648   0.00000  Uiso   1.00
O130   O     0.54854   0.68221   0.03835   0.00000  Uiso   1.00
O131   O     0.11254   0.36385   0.07815   0.00000  Uiso   1.00
O132   O     0.06701   0.83760   0.02600   0.00000  Uiso   1.00
N133   N     0.40543   0.72954   0.08631   0.00000  Uiso   1.00
N134   N     0.09474   0.21530   0.11464   0.00000  Uiso   1.00
N135   N     0.06227   0.84031   0.79008   0.00000  Uiso   1.00
N136   N     0.51586   0.79517   0.18734   0.00000  Uiso   1.00
N137   N     0.20517   0.28093   0.21567   0.00000  Uiso   1.00
N138   N     0.17271   0.90594   0.89111   0.00000  Uiso   1.00
C139   C     0.82222   0.07744   0.32147   0.00000  Uiso   1.00
C140   C     0.73249   0.11460   0.28136   0.00000  Uiso   1.00
C141   C     0.71857   0.18240   0.19135   0.00000  Uiso   1.00
C142   C     0.63150   0.20683   0.16812   0.00000  Uiso   1.00
C143   C     0.50290   0.27088   0.09598   0.00000  Uiso   1.00
C144   C     0.81811   0.98072   0.28915   0.00000  Uiso   1.00
C145   C     0.87619   0.93596   0.20570   0.00000  Uiso   1.00
C146   C     0.86119   0.84768   0.18905   0.00000  Uiso   1.00
C147   C     0.86557   0.70388   0.12908   0.00000  Uiso   1.00
C148   C     0.82705   0.08408   0.47529   0.00000  Uiso   1.00
C149   C     0.89265   0.12621   0.54837   0.00000  Uiso   1.00
C150   C     0.88520   0.12493   0.68844   0.00000  Uiso   1.00
C151   C     0.90345   0.14161   0.91749   0.00000  Uiso   1.00
C152   C     0.69235   0.00025   0.44028   0.00000  Uiso   1.00
C153   C     0.66195   0.07268   0.34590   0.00000  Uiso   1.00
C154   C     0.57488   0.09701   0.32281   0.00000  Uiso   1.00
C155   C     0.56083   0.16483   0.23278   0.00000  Uiso   1.00
C156   C     0.74758   0.93880   0.35368   0.00000  Uiso   1.00
C157   C     0.73250   0.85057   0.33716   0.00000  Uiso   1.00
C158   C     0.79053   0.80568   0.25370   0.00000  Uiso   1.00
C159   C     0.75651   0.04216   0.53983   0.00000  Uiso   1.00
C160   C     0.74896   0.04082   0.67982   0.00000  Uiso   1.00
C161   C     0.81453   0.08293   0.75309   0.00000  Uiso   1.00
H162   H     0.87714   0.11007   0.27122   0.00000  Uiso   1.00
H163   H     0.77318   0.21482   0.14142   0.00000  Uiso   1.00
H164   H     0.93077   0.96842   0.15578   0.00000  Uiso   1.00
H165   H     0.94723   0.15864   0.49839   0.00000  Uiso   1.00
H166   H     0.62680   0.31245   0.02593   0.00000  Uiso   1.00
H167   H     0.95912   0.79289   0.05625   0.00000  Uiso   1.00
H168   H     0.99383   0.19401   0.77872   0.00000  Uiso   1.00
H169   H     0.63743   0.96761   0.49053   0.00000  Uiso   1.00
H170   H     0.52031   0.06455   0.37276   0.00000  Uiso   1.00
H171   H     0.67791   0.81815   0.38712   0.00000  Uiso   1.00
H172   H     0.69436   0.00837   0.72973   0.00000  Uiso   1.00
H173   H     0.42156   0.19049   0.21369   0.00000  Uiso   1.00
H174   H     0.75389   0.67092   0.24402   0.00000  Uiso   1.00
H175   H     0.78859   0.07204   0.96648   0.00000  Uiso   1.00
O176   O     0.45146   0.31779   0.03835   0.00000  Uiso   1.00
O177   O     0.88746   0.63615   0.07815   0.00000  Uiso   1.00
O178   O     0.93299   0.16240   0.02600   0.00000  Uiso   1.00
N179   N     0.59457   0.27046   0.08631   0.00000  Uiso   1.00
N180   N     0.90526   0.78470   0.11464   0.00000  Uiso   1.00
N181   N     0.93773   0.15969   0.79008   0.00000  Uiso   1.00
N182   N     0.48414   0.20483   0.18734   0.00000  Uiso   1.00
N183   N     0.79483   0.71907   0.21567   0.00000  Uiso   1.00
N184   N     0.82729   0.09406   0.89111   0.00000  Uiso   1.00
