data_job_06584
_audit_creation_date              2018-12-19
_audit_creation_method            'Materials Studio'
_symmetry_space_group_name_H-M    'P1'
_symmetry_Int_Tables_number       1
_symmetry_cell_setting            triclinic
loop_
_symmetry_equiv_pos_as_xyz
  x,y,z
_cell_length_a                    17.8511
_cell_length_b                    22.4998
_cell_length_c                    23.3921
_cell_angle_alpha                 117.3781
_cell_angle_beta                  69.6786
_cell_angle_gamma                 87.5382
loop_
_atom_site_label
_atom_site_type_symbol
_atom_site_fract_x
_atom_site_fract_y
_atom_site_fract_z
_atom_site_U_iso_or_equiv
_atom_site_adp_type
_atom_site_occupancy
C1     C     0.43358   0.76974   0.96724   0.00000  Uiso   1.00
C2     C     0.51930   0.73805   0.90680   0.00000  Uiso   1.00
C3     C     0.55421   0.76108   0.86010   0.00000  Uiso   1.00
C4     C     0.63334   0.72508   0.80843   0.00000  Uiso   1.00
C5     C     0.75995   0.68451   0.71527   0.00000  Uiso   1.00
C6     C     0.38919   0.71155   0.95486   0.00000  Uiso   1.00
C7     C     0.31470   0.71231   0.94857   0.00000  Uiso   1.00
C8     C     0.28430   0.65401   0.93737   0.00000  Uiso   1.00
C9     C     0.20887   0.57234   0.91888   0.00000  Uiso   1.00
C10    C     0.44600   0.78773   0.03410   0.00000  Uiso   1.00
C11    C     0.41926   0.85254   0.09445   0.00000  Uiso   1.00
C12    C     0.43667   0.85838   0.14998   0.00000  Uiso   1.00
C13    C     0.44945   0.89498   0.25452   0.00000  Uiso   1.00
C14    C     0.51202   0.66485   0.95854   0.00000  Uiso   1.00
C15    C     0.56191   0.68108   0.90207   0.00000  Uiso   1.00
C16    C     0.64101   0.64503   0.85046   0.00000  Uiso   1.00
C17    C     0.67603   0.66801   0.80369   0.00000  Uiso   1.00
C18    C     0.43179   0.65459   0.95013   0.00000  Uiso   1.00
C19    C     0.40149   0.59627   0.93894   0.00000  Uiso   1.00
C20    C     0.32698   0.59694   0.93264   0.00000  Uiso   1.00
C21    C     0.48861   0.73076   0.02937   0.00000  Uiso   1.00
C22    C     0.50606   0.73650   0.08482   0.00000  Uiso   1.00
C23    C     0.47935   0.80130   0.14524   0.00000  Uiso   1.00
H24    H     0.40040   0.81409   0.97092   0.00000  Uiso   1.00
H25    H     0.52122   0.80516   0.86377   0.00000  Uiso   1.00
H26    H     0.28174   0.75641   0.95224   0.00000  Uiso   1.00
H27    H     0.38629   0.89662   0.09809   0.00000  Uiso   1.00
H28    H     0.67394   0.77013   0.74286   0.00000  Uiso   1.00
H29    H     0.16897   0.66734   0.92944   0.00000  Uiso   1.00
H30    H     0.38943   0.96299   0.23700   0.00000  Uiso   1.00
H31    H     0.54520   0.62050   0.95486   0.00000  Uiso   1.00
H32    H     0.67396   0.60095   0.84682   0.00000  Uiso   1.00
H33    H     0.43448   0.55220   0.93529   0.00000  Uiso   1.00
H34    H     0.53903   0.69240   0.08114   0.00000  Uiso   1.00
H35    H     0.79791   0.60438   0.72910   0.00000  Uiso   1.00
H36    H     0.29294   0.50159   0.91568   0.00000  Uiso   1.00
H37    H     0.51340   0.79724   0.22324   0.00000  Uiso   1.00
O38    O     0.81801   0.67787   0.66519   0.00000  Uiso   1.00
O39    O     0.15550   0.54303   0.90998   0.00000  Uiso   1.00
O40    O     0.44474   0.93091   0.31349   0.00000  Uiso   1.00
N41    N     0.68545   0.73381   0.75446   0.00000  Uiso   1.00
N42    N     0.21334   0.63770   0.92889   0.00000  Uiso   1.00
N43    N     0.41943   0.91411   0.21644   0.00000  Uiso   1.00
N44    N     0.75216   0.64462   0.74706   0.00000  Uiso   1.00
N45    N     0.28005   0.54852   0.92148   0.00000  Uiso   1.00
N46    N     0.48614   0.82492   0.20903   0.00000  Uiso   1.00
C47    C     0.80286   0.88665   0.65466   0.00000  Uiso   1.00
C48    C     0.86196   0.93332   0.65244   0.00000  Uiso   1.00
C49    C     0.90754   0.95374   0.69268   0.00000  Uiso   1.00
C50    C     0.95805   0.99657   0.68293   0.00000  Uiso   1.00
C51    C     0.04906   0.06578   0.68685   0.00000  Uiso   1.00
C52    C     0.72002   0.92732   0.67158   0.00000  Uiso   1.00
C53    C     0.64626   0.94269   0.72791   0.00000  Uiso   1.00
C54    C     0.57728   0.98046   0.73426   0.00000  Uiso   1.00
C55    C     0.44792   0.04032   0.76786   0.00000  Uiso   1.00
C56    C     0.83253   0.82655   0.57905   0.00000  Uiso   1.00
C57    C     0.85335   0.75718   0.55759   0.00000  Uiso   1.00
C58    C     0.87907   0.71011   0.48604   0.00000  Uiso   1.00
C59    C     0.92440   0.61351   0.37599   0.00000  Uiso   1.00
C60    C     0.81149   0.92640   0.56577   0.00000  Uiso   1.00
C61    C     0.86664   0.95491   0.60416   0.00000  Uiso   1.00
C62    C     0.91709   0.99772   0.59433   0.00000  Uiso   1.00
C63    C     0.96275   0.01820   0.63455   0.00000  Uiso   1.00
C64    C     0.72470   0.94892   0.62330   0.00000  Uiso   1.00
C65    C     0.65581   0.98667   0.62956   0.00000  Uiso   1.00
C66    C     0.58198   0.00210   0.68589   0.00000  Uiso   1.00
C67    C     0.83722   0.84814   0.53077   0.00000  Uiso   1.00
C68    C     0.86290   0.80117   0.45924   0.00000  Uiso   1.00
C69    C     0.88377   0.73175   0.43767   0.00000  Uiso   1.00
H70    H     0.79921   0.86984   0.69225   0.00000  Uiso   1.00
H71    H     0.90389   0.93702   0.73005   0.00000  Uiso   1.00
H72    H     0.64265   0.92596   0.76526   0.00000  Uiso   1.00
H73    H     0.84971   0.74049   0.59497   0.00000  Uiso   1.00
H74    H     0.02200   0.02105   0.75067   0.00000  Uiso   1.00
H75    H     0.47116   0.99772   0.82491   0.00000  Uiso   1.00
H76    H     0.90778   0.60661   0.46582   0.00000  Uiso   1.00
H77    H     0.81514   0.94322   0.52818   0.00000  Uiso   1.00
H78    H     0.92070   0.01443   0.55697   0.00000  Uiso   1.00
H79    H     0.65946   0.00337   0.59218   0.00000  Uiso   1.00
H80    H     0.86652   0.81790   0.42189   0.00000  Uiso   1.00
H81    H     0.03564   0.08388   0.61020   0.00000  Uiso   1.00
H82    H     0.48480   0.06054   0.68444   0.00000  Uiso   1.00
H83    H     0.92142   0.66944   0.32535   0.00000  Uiso   1.00
O84    O     0.09795   0.09800   0.70235   0.00000  Uiso   1.00
O85    O     0.37527   0.06738   0.79974   0.00000  Uiso   1.00
O86    O     0.94811   0.55426   0.32862   0.00000  Uiso   1.00
N87    N     0.01073   0.02605   0.71365   0.00000  Uiso   1.00
N88    N     0.49573   0.00425   0.78307   0.00000  Uiso   1.00
N89    N     0.90392   0.63859   0.44735   0.00000  Uiso   1.00
N90    N     0.01807   0.05986   0.63806   0.00000  Uiso   1.00
N91    N     0.50307   0.03806   0.70748   0.00000  Uiso   1.00
N92    N     0.91126   0.67240   0.37176   0.00000  Uiso   1.00
C93    C     0.88779   0.17715   0.94708   0.00000  Uiso   1.00
C94    C     0.90952   0.16611   0.99961   0.00000  Uiso   1.00
C95    C     0.97923   0.12089   0.98297   0.00000  Uiso   1.00
C96    C     0.98787   0.11832   0.03858   0.00000  Uiso   1.00
C97    C     0.03057   0.09487   0.10953   0.00000  Uiso   1.00
C98    C     0.80269   0.16323   0.95661   0.00000  Uiso   1.00
C99    C     0.78259   0.11560   0.90381   0.00000  Uiso   1.00
C100   C     0.70130   0.11062   0.92323   0.00000  Uiso   1.00
C101   C     0.57813   0.08274   0.92741   0.00000  Uiso   1.00
C102   C     0.87671   0.25409   0.97300   0.00000  Uiso   1.00
C103   C     0.91883   0.28286   0.93398   0.00000  Uiso   1.00
C104   C     0.89985   0.35437   0.96719   0.00000  Uiso   1.00
C105   C     0.89161   0.46756   0.99682   0.00000  Uiso   1.00
C106   C     0.77916   0.25299   0.07545   0.00000  Uiso   1.00
C107   C     0.85051   0.20730   0.06933   0.00000  Uiso   1.00
C108   C     0.85905   0.20480   0.12499   0.00000  Uiso   1.00
C109   C     0.92877   0.15959   0.10843   0.00000  Uiso   1.00
C110   C     0.74369   0.20442   0.02633   0.00000  Uiso   1.00
C111   C     0.66240   0.19951   0.04583   0.00000  Uiso   1.00
C112   C     0.64218   0.15188   0.99308   0.00000  Uiso   1.00
C113   C     0.81771   0.29528   0.04272   0.00000  Uiso   1.00
C114   C     0.79865   0.36676   0.07600   0.00000  Uiso   1.00
C115   C     0.84074   0.39563   0.03704   0.00000  Uiso   1.00
H116   H     0.93372   0.14508   0.89280   0.00000  Uiso   1.00
H117   H     0.02488   0.08902   0.92900   0.00000  Uiso   1.00
H118   H     0.82826   0.08374   0.84986   0.00000  Uiso   1.00
H119   H     0.96449   0.25096   0.88002   0.00000  Uiso   1.00
H120   H     0.09991   0.04500   0.99988   0.00000  Uiso   1.00
H121   H     0.68533   0.03389   0.83299   0.00000  Uiso   1.00
H122   H     0.97258   0.38652   0.89661   0.00000  Uiso   1.00
H123   H     0.73322   0.28506   0.12973   0.00000  Uiso   1.00
H124   H     0.81338   0.23668   0.17894   0.00000  Uiso   1.00
H125   H     0.61676   0.23140   0.09979   0.00000  Uiso   1.00
H126   H     0.75298   0.39862   0.12996   0.00000  Uiso   1.00
H127   H     0.92824   0.16485   0.20274   0.00000  Uiso   1.00
H128   H     0.51366   0.15373   0.03585   0.00000  Uiso   1.00
H129   H     0.80092   0.50637   0.09947   0.00000  Uiso   1.00
O130   O     0.07041   0.07056   0.12940   0.00000  Uiso   1.00
O131   O     0.52649   0.05598   0.91045   0.00000  Uiso   1.00
O132   O     0.90337   0.51862   0.99391   0.00000  Uiso   1.00
N133   N     0.04851   0.07986   0.04087   0.00000  Uiso   1.00
N134   N     0.66091   0.06946   0.88484   0.00000  Uiso   1.00
N135   N     0.92945   0.39914   0.94431   0.00000  Uiso   1.00
N136   N     0.95614   0.14435   0.15003   0.00000  Uiso   1.00
N137   N     0.56853   0.13395   0.99400   0.00000  Uiso   1.00
N138   N     0.83708   0.46363   0.05347   0.00000  Uiso   1.00
C139   C     0.24634   0.19822   0.08337   0.00000  Uiso   1.00
C140   C     0.31613   0.23355   0.06995   0.00000  Uiso   1.00
C141   C     0.37780   0.21422   0.00439   0.00000  Uiso   1.00
C142   C     0.43598   0.25317   0.00326   0.00000  Uiso   1.00
C143   C     0.54484   0.29950   0.97295   0.00000  Uiso   1.00
C144   C     0.16668   0.25418   0.12280   0.00000  Uiso   1.00
C145   C     0.10271   0.25218   0.10167   0.00000  Uiso   1.00
C146   C     0.03508   0.30850   0.14504   0.00000  Uiso   1.00
C147   C     0.91190   0.38683   0.19679   0.00000  Uiso   1.00
C148   C     0.25185   0.17789   0.13589   0.00000  Uiso   1.00
C149   C     0.25947   0.11174   0.12579   0.00000  Uiso   1.00
C150   C     0.26352   0.10382   0.18019   0.00000  Uiso   1.00
C151   C     0.27258   0.06370   0.25228   0.00000  Uiso   1.00
C152   C     0.23998   0.30177   0.19795   0.00000  Uiso   1.00
C153   C     0.31266   0.28980   0.13219   0.00000  Uiso   1.00
C154   C     0.37076   0.32879   0.13116   0.00000  Uiso   1.00
C155   C     0.43252   0.30952   0.06561   0.00000  Uiso   1.00
C156   C     0.16322   0.31043   0.18503   0.00000  Uiso   1.00
C157   C     0.09567   0.36675   0.22844   0.00000  Uiso   1.00
C158   C     0.03162   0.36485   0.20738   0.00000  Uiso   1.00
C159   C     0.24840   0.23413   0.19813   0.00000  Uiso   1.00
C160   C     0.25243   0.22631   0.25256   0.00000  Uiso   1.00
C161   C     0.26006   0.16017   0.24254   0.00000  Uiso   1.00
H162   H     0.24903   0.15443   0.03492   0.00000  Uiso   1.00
H163   H     0.38045   0.17069   0.95624   0.00000  Uiso   1.00
H164   H     0.10540   0.20865   0.05351   0.00000  Uiso   1.00
H165   H     0.26214   0.06823   0.07762   0.00000  Uiso   1.00
H166   H     0.52462   0.21354   0.89645   0.00000  Uiso   1.00
H167   H     0.94465   0.29356   0.10156   0.00000  Uiso   1.00
H168   H     0.27516   0.99746   0.15241   0.00000  Uiso   1.00
H169   H     0.23728   0.34556   0.24641   0.00000  Uiso   1.00
H170   H     0.36807   0.37231   0.17933   0.00000  Uiso   1.00
H171   H     0.09302   0.41027   0.27660   0.00000  Uiso   1.00
H172   H     0.24975   0.26985   0.30071   0.00000  Uiso   1.00
H173   H     0.51457   0.37719   0.07751   0.00000  Uiso   1.00
H174   H     0.93459   0.45721   0.28263   0.00000  Uiso   1.00
H175   H     0.26510   0.16111   0.33348   0.00000  Uiso   1.00
O176   O     0.60583   0.30953   0.93903   0.00000  Uiso   1.00
O177   O     0.84492   0.41451   0.20814   0.00000  Uiso   1.00
O178   O     0.27854   0.02602   0.27485   0.00000  Uiso   1.00
N179   N     0.50432   0.24838   0.94827   0.00000  Uiso   1.00
N180   N     0.96208   0.32320   0.14003   0.00000  Uiso   1.00
N181   N     0.27106   0.04637   0.18758   0.00000  Uiso   1.00
N182   N     0.49891   0.33643   0.04570   0.00000  Uiso   1.00
N183   N     0.95667   0.41125   0.23746   0.00000  Uiso   1.00
N184   N     0.26565   0.13442   0.28501   0.00000  Uiso   1.00
C185   C     0.33036   0.96390   0.61314   0.00000  Uiso   1.00
C186   C     0.40693   0.92028   0.60276   0.00000  Uiso   1.00
C187   C     0.41270   0.90048   0.64949   0.00000  Uiso   1.00
C188   C     0.48814   0.86058   0.63035   0.00000  Uiso   1.00
C189   C     0.59680   0.79576   0.62389   0.00000  Uiso   1.00
C190   C     0.31297   0.92130   0.54840   0.00000  Uiso   1.00
C191   C     0.23974   0.90237   0.54943   0.00000  Uiso   1.00
C192   C     0.23609   0.86334   0.48452   0.00000  Uiso   1.00
C193   C     0.19885   0.80016   0.39367   0.00000  Uiso   1.00
C194   C     0.35596   0.02568   0.60802   0.00000  Uiso   1.00
C195   C     0.31886   0.09452   0.65916   0.00000  Uiso   1.00
C196   C     0.35139   0.14337   0.64445   0.00000  Uiso   1.00
C197   C     0.38090   0.24225   0.64617   0.00000  Uiso   1.00
C198   C     0.45407   0.92825   0.49606   0.00000  Uiso   1.00
C199   C     0.47412   0.90091   0.53917   0.00000  Uiso   1.00
C200   C     0.54958   0.86104   0.51995   0.00000  Uiso   1.00
C201   C     0.55546   0.84118   0.56664   0.00000  Uiso   1.00
C202   C     0.38016   0.90194   0.48481   0.00000  Uiso   1.00
C203   C     0.37662   0.86293   0.41989   0.00000  Uiso   1.00
C204   C     0.30340   0.84395   0.42082   0.00000  Uiso   1.00
C205   C     0.42316   0.00632   0.54443   0.00000  Uiso   1.00
C206   C     0.45574   0.05508   0.52963   0.00000  Uiso   1.00
C207   C     0.41871   0.12397   0.58074   0.00000  Uiso   1.00
H208   H     0.27804   0.97897   0.66265   0.00000  Uiso   1.00
H209   H     0.36068   0.91546   0.69869   0.00000  Uiso   1.00
H210   H     0.18775   0.91737   0.59865   0.00000  Uiso   1.00
H211   H     0.26687   0.10948   0.70837   0.00000  Uiso   1.00
H212   H     0.48193   0.83650   0.71060   0.00000  Uiso   1.00
H213   H     0.11728   0.84053   0.49965   0.00000  Uiso   1.00
H214   H     0.28411   0.24564   0.73101   0.00000  Uiso   1.00
H215   H     0.50639   0.91318   0.44655   0.00000  Uiso   1.00
H216   H     0.60156   0.84606   0.47074   0.00000  Uiso   1.00
H217   H     0.42863   0.84796   0.37069   0.00000  Uiso   1.00
H218   H     0.50774   0.04007   0.48041   0.00000  Uiso   1.00
H219   H     0.67744   0.78017   0.52558   0.00000  Uiso   1.00
H220   H     0.31278   0.78420   0.31463   0.00000  Uiso   1.00
H221   H     0.47961   0.18931   0.54600   0.00000  Uiso   1.00
O222   O     0.63816   0.76535   0.63789   0.00000  Uiso   1.00
O223   O     0.15975   0.77065   0.36113   0.00000  Uiso   1.00
O224   O     0.37863   0.30214   0.66468   0.00000  Uiso   1.00
N225   N     0.51489   0.83246   0.66374   0.00000  Uiso   1.00
N226   N     0.17396   0.83622   0.46651   0.00000  Uiso   1.00
N227   N     0.32992   0.21496   0.68282   0.00000  Uiso   1.00
N228   N     0.62009   0.80215   0.56419   0.00000  Uiso   1.00
N229   N     0.27917   0.80591   0.36696   0.00000  Uiso   1.00
N230   N     0.43512   0.18465   0.58326   0.00000  Uiso   1.00
C231   C     0.12711   0.57641   0.67798   0.00000  Uiso   1.00
C232   C     0.19250   0.60804   0.70137   0.00000  Uiso   1.00
C233   C     0.22641   0.65778   0.68940   0.00000  Uiso   1.00
C234   C     0.28540   0.68008   0.71504   0.00000  Uiso   1.00
C235   C     0.38323   0.73326   0.74588   0.00000  Uiso   1.00
C236   C     0.05580   0.58910   0.74488   0.00000  Uiso   1.00
C237   C     0.97478   0.62289   0.76948   0.00000  Uiso   1.00
C238   C     0.91869   0.62924   0.83174   0.00000  Uiso   1.00
C239   C     0.80428   0.65296   0.93010   0.00000  Uiso   1.00
C240   C     0.16348   0.49863   0.63348   0.00000  Uiso   1.00
C241   C     0.17298   0.45635   0.56442   0.00000  Uiso   1.00
C242   C     0.20754   0.38653   0.53290   0.00000  Uiso   1.00
C243   C     0.26033   0.26979   0.45829   0.00000  Uiso   1.00
C244   C     0.17156   0.52758   0.74481   0.00000  Uiso   1.00
C245   C     0.21664   0.58152   0.73768   0.00000  Uiso   1.00
C246   C     0.27559   0.60375   0.76334   0.00000  Uiso   1.00
C247   C     0.30959   0.65351   0.75140   0.00000  Uiso   1.00
C248   C     0.07994   0.56258   0.78119   0.00000  Uiso   1.00
C249   C     0.02396   0.56887   0.84343   0.00000  Uiso   1.00
C250   C     0.94288   0.60267   0.86811   0.00000  Uiso   1.00
C251   C     0.18763   0.47211   0.66978   0.00000  Uiso   1.00
C252   C     0.22217   0.40233   0.63837   0.00000  Uiso   1.00
C253   C     0.23172   0.35996   0.56927   0.00000  Uiso   1.00
H254   H     0.10830   0.59706   0.64972   0.00000  Uiso   1.00
H255   H     0.20770   0.67829   0.66131   0.00000  Uiso   1.00
H256   H     0.95611   0.64341   0.74137   0.00000  Uiso   1.00
H257   H     0.15429   0.47690   0.53634   0.00000  Uiso   1.00
H258   H     0.32853   0.75668   0.69019   0.00000  Uiso   1.00
H259   H     0.79803   0.68310   0.85900   0.00000  Uiso   1.00
H260   H     0.21593   0.33198   0.42665   0.00000  Uiso   1.00
H261   H     0.19035   0.50693   0.77308   0.00000  Uiso   1.00
H262   H     0.29426   0.58322   0.79143   0.00000  Uiso   1.00
H263   H     0.04266   0.54833   0.87150   0.00000  Uiso   1.00
H264   H     0.24084   0.38182   0.66647   0.00000  Uiso   1.00
H265   H     0.39878   0.67951   0.79581   0.00000  Uiso   1.00
H266   H     0.86828   0.60593   0.96462   0.00000  Uiso   1.00
H267   H     0.28618   0.25481   0.53227   0.00000  Uiso   1.00
O268   O     0.43051   0.76992   0.75287   0.00000  Uiso   1.00
O269   O     0.73451   0.67338   0.97433   0.00000  Uiso   1.00
O270   O     0.28278   0.21272   0.40711   0.00000  Uiso   1.00
N271   N     0.33082   0.72804   0.71251   0.00000  Uiso   1.00
N272   N     0.83483   0.65926   0.87035   0.00000  Uiso   1.00
N273   N     0.22551   0.33098   0.46615   0.00000  Uiso   1.00
N274   N     0.36862   0.68652   0.76934   0.00000  Uiso   1.00
N275   N     0.87263   0.61773   0.92718   0.00000  Uiso   1.00
N276   N     0.26331   0.28946   0.52298   0.00000  Uiso   1.00
C277   C     0.80249   0.28330   0.81248   0.00000  Uiso   1.00
C278   C     0.76806   0.36065   0.86420   0.00000  Uiso   1.00
C279   C     0.74201   0.39316   0.93699   0.00000  Uiso   1.00
C280   C     0.71249   0.46437   0.97503   0.00000  Uiso   1.00
C281   C     0.65956   0.57881   0.06045   0.00000  Uiso   1.00
C282   C     0.88691   0.27501   0.75890   0.00000  Uiso   1.00
C283   C     0.96079   0.23549   0.74316   0.00000  Uiso   1.00
C284   C     0.03132   0.23461   0.69255   0.00000  Uiso   1.00
C285   C     0.16291   0.21603   0.61445   0.00000  Uiso   1.00
C286   C     0.74833   0.26132   0.77194   0.00000  Uiso   1.00
C287   C     0.70571   0.21028   0.76714   0.00000  Uiso   1.00
C288   C     0.65958   0.19786   0.72750   0.00000  Uiso   1.00
C289   C     0.57600   0.15804   0.66964   0.00000  Uiso   1.00
C290   C     0.79638   0.35199   0.75061   0.00000  Uiso   1.00
C291   C     0.76474   0.39796   0.83059   0.00000  Uiso   1.00
C292   C     0.73525   0.46915   0.86853   0.00000  Uiso   1.00
C293   C     0.70916   0.50175   0.94137   0.00000  Uiso   1.00
C294   C     0.88360   0.31231   0.72530   0.00000  Uiso   1.00
C295   C     0.95403   0.31149   0.67470   0.00000  Uiso   1.00
C296   C     0.02800   0.27198   0.65888   0.00000  Uiso   1.00
C297   C     0.74501   0.29863   0.73833   0.00000  Uiso   1.00
C298   C     0.69895   0.28628   0.69869   0.00000  Uiso   1.00
C299   C     0.65626   0.23524   0.69383   0.00000  Uiso   1.00
H300   H     0.80508   0.25426   0.83864   0.00000  Uiso   1.00
H301   H     0.74460   0.36427   0.96298   0.00000  Uiso   1.00
H302   H     0.96334   0.20662   0.76917   0.00000  Uiso   1.00
H303   H     0.70829   0.18142   0.79315   0.00000  Uiso   1.00
H304   H     0.67610   0.50269   0.08600   0.00000  Uiso   1.00
H305   H     0.13733   0.17027   0.67733   0.00000  Uiso   1.00
H306   H     0.59952   0.11712   0.72790   0.00000  Uiso   1.00
H307   H     0.79380   0.38104   0.72444   0.00000  Uiso   1.00
H308   H     0.73269   0.49801   0.84251   0.00000  Uiso   1.00
H309   H     0.95144   0.34036   0.64870   0.00000  Uiso   1.00
H310   H     0.69639   0.31516   0.67269   0.00000  Uiso   1.00
H311   H     0.66644   0.61124   0.98823   0.00000  Uiso   1.00
H312   H     0.12767   0.27881   0.57955   0.00000  Uiso   1.00
H313   H     0.58986   0.22567   0.63012   0.00000  Uiso   1.00
O314   O     0.63130   0.63162   0.11684   0.00000  Uiso   1.00
O315   O     0.23641   0.19549   0.58067   0.00000  Uiso   1.00
O316   O     0.53081   0.12577   0.64702   0.00000  Uiso   1.00
N317   N     0.68220   0.51218   0.04679   0.00000  Uiso   1.00
N318   N     0.11342   0.20139   0.66471   0.00000  Uiso   1.00
N319   N     0.61063   0.15170   0.71198   0.00000  Uiso   1.00
N320   N     0.67700   0.57059   0.99418   0.00000  Uiso   1.00
N321   N     0.10822   0.25980   0.61210   0.00000  Uiso   1.00
N322   N     0.60543   0.21011   0.65936   0.00000  Uiso   1.00
C323   C     0.69443   0.11248   0.16386   0.00000  Uiso   1.00
C324   C     0.70482   0.05999   0.08944   0.00000  Uiso   1.00
C325   C     0.77569   0.03615   0.02794   0.00000  Uiso   1.00
C326   C     0.77279   0.98815   0.96509   0.00000  Uiso   1.00
C327   C     0.79978   0.91015   0.84974   0.00000  Uiso   1.00
C328   C     0.66812   0.07742   0.20751   0.00000  Uiso   1.00
C329   C     0.70812   0.06824   0.24527   0.00000  Uiso   1.00
C330   C     0.67431   0.03491   0.28182   0.00000  Uiso   1.00
C331   C     0.64428   0.98402   0.34980   0.00000  Uiso   1.00
C332   C     0.62048   0.17066   0.19309   0.00000  Uiso   1.00
C333   C     0.62041   0.23989   0.21876   0.00000  Uiso   1.00
C334   C     0.54649   0.28507   0.24319   0.00000  Uiso   1.00
C335   C     0.44248   0.37896   0.28879   0.00000  Uiso   1.00
C336   C     0.56327   0.06962   0.16163   0.00000  Uiso   1.00
C337   C     0.63358   0.03671   0.08823   0.00000  Uiso   1.00
C338   C     0.63057   0.98873   0.02547   0.00000  Uiso   1.00
C339   C     0.70142   0.96482   0.96388   0.00000  Uiso   1.00
C340   C     0.59688   0.05413   0.20630   0.00000  Uiso   1.00
C341   C     0.56300   0.02081   0.24280   0.00000  Uiso   1.00
C342   C     0.60294   0.01158   0.28061   0.00000  Uiso   1.00
C343   C     0.54923   0.14738   0.19188   0.00000  Uiso   1.00
C344   C     0.47529   0.19246   0.21628   0.00000  Uiso   1.00
C345   C     0.47512   0.26175   0.24198   0.00000  Uiso   1.00
H346   H     0.74990   0.13061   0.16480   0.00000  Uiso   1.00
H347   H     0.83081   0.05418   0.02890   0.00000  Uiso   1.00
H348   H     0.76324   0.08627   0.24620   0.00000  Uiso   1.00
H349   H     0.67555   0.25789   0.21969   0.00000  Uiso   1.00
H350   H     0.88912   0.95916   0.87769   0.00000  Uiso   1.00
H351   H     0.74663   0.02684   0.33591   0.00000  Uiso   1.00
H352   H     0.56171   0.38874   0.28000   0.00000  Uiso   1.00
H353   H     0.50780   0.05149   0.16068   0.00000  Uiso   1.00
H354   H     0.57543   0.97072   0.02455   0.00000  Uiso   1.00
H355   H     0.50787   0.00281   0.24185   0.00000  Uiso   1.00
H356   H     0.42017   0.17443   0.21534   0.00000  Uiso   1.00
H357   H     0.68184   0.89141   0.87416   0.00000  Uiso   1.00
H358   H     0.53935   0.95910   0.33238   0.00000  Uiso   1.00
H359   H     0.35444   0.32100   0.27647   0.00000  Uiso   1.00
O360   O     0.83435   0.87356   0.78644   0.00000  Uiso   1.00
O361   O     0.64740   0.96237   0.38762   0.00000  Uiso   1.00
O362   O     0.40480   0.43718   0.31427   0.00000  Uiso   1.00
N363   N     0.83105   0.95431   0.89554   0.00000  Uiso   1.00
N364   N     0.69784   0.01758   0.32394   0.00000  Uiso   1.00
N365   N     0.52495   0.35593   0.27169   0.00000  Uiso   1.00
N366   N     0.71951   0.91786   0.89364   0.00000  Uiso   1.00
N367   N     0.58630   0.98112   0.32204   0.00000  Uiso   1.00
N368   N     0.41342   0.31948   0.26979   0.00000  Uiso   1.00
C369   C     0.75549   0.56419   0.52426   0.00000  Uiso   1.00
C370   C     0.73505   0.56180   0.46524   0.00000  Uiso   1.00
C371   C     0.71844   0.61775   0.45736   0.00000  Uiso   1.00
C372   C     0.70114   0.60486   0.39984   0.00000  Uiso   1.00
C373   C     0.66954   0.61124   0.31545   0.00000  Uiso   1.00
C374   C     0.83827   0.51258   0.48778   0.00000  Uiso   1.00
C375   C     0.90843   0.52716   0.49887   0.00000  Uiso   1.00
C376   C     0.97801   0.47284   0.46032   0.00000  Uiso   1.00
C377   C     0.10664   0.40280   0.41097   0.00000  Uiso   1.00
C378   C     0.69235   0.53433   0.55936   0.00000  Uiso   1.00
C379   C     0.63984   0.56719   0.63063   0.00000  Uiso   1.00
C380   C     0.58659   0.53117   0.65235   0.00000  Uiso   1.00
C381   C     0.48866   0.49491   0.71413   0.00000  Uiso   1.00
C382   C     0.75430   0.44181   0.43611   0.00000  Uiso   1.00
C383   C     0.73441   0.49532   0.41736   0.00000  Uiso   1.00
C384   C     0.71713   0.48235   0.35983   0.00000  Uiso   1.00
C385   C     0.70049   0.53827   0.35187   0.00000  Uiso   1.00
C386   C     0.83762   0.44611   0.43990   0.00000  Uiso   1.00
C387   C     0.90712   0.39176   0.40134   0.00000  Uiso   1.00
C388   C     0.97737   0.40624   0.41236   0.00000  Uiso   1.00
C389   C     0.69170   0.46786   0.51148   0.00000  Uiso   1.00
C390   C     0.63853   0.43179   0.53309   0.00000  Uiso   1.00
C391   C     0.58594   0.46458   0.60438   0.00000  Uiso   1.00
H392   H     0.75600   0.61594   0.56154   0.00000  Uiso   1.00
H393   H     0.71895   0.66918   0.49442   0.00000  Uiso   1.00
H394   H     0.90891   0.57860   0.53593   0.00000  Uiso   1.00
H395   H     0.64036   0.61862   0.66766   0.00000  Uiso   1.00
H396   H     0.67763   0.69888   0.39888   0.00000  Uiso   1.00
H397   H     0.07815   0.50789   0.48641   0.00000  Uiso   1.00
H398   H     0.51186   0.59229   0.76420   0.00000  Uiso   1.00
H399   H     0.75380   0.39006   0.39884   0.00000  Uiso   1.00
H400   H     0.71663   0.43090   0.32279   0.00000  Uiso   1.00
H401   H     0.90659   0.34032   0.36429   0.00000  Uiso   1.00
H402   H     0.63804   0.38035   0.49603   0.00000  Uiso   1.00
H403   H     0.67575   0.50549   0.25958   0.00000  Uiso   1.00
H404   H     0.07628   0.31449   0.34711   0.00000  Uiso   1.00
H405   H     0.50998   0.39889   0.62490   0.00000  Uiso   1.00
O406   O     0.65230   0.63312   0.28213   0.00000  Uiso   1.00
O407   O     0.17777   0.38254   0.39698   0.00000  Uiso   1.00
O408   O     0.43481   0.49328   0.76143   0.00000  Uiso   1.00
N409   N     0.68227   0.64776   0.37654   0.00000  Uiso   1.00
N410   N     0.05674   0.46920   0.45837   0.00000  Uiso   1.00
N411   N     0.52732   0.54810   0.71808   0.00000  Uiso   1.00
N412   N     0.68126   0.54370   0.30158   0.00000  Uiso   1.00
N413   N     0.05573   0.36513   0.38341   0.00000  Uiso   1.00
N414   N     0.52631   0.44403   0.64313   0.00000  Uiso   1.00
C415   C     0.36267   0.69193   0.50966   0.00000  Uiso   1.00
C416   C     0.27484   0.73281   0.56318   0.00000  Uiso   1.00
C417   C     0.25254   0.79764   0.62285   0.00000  Uiso   1.00
C418   C     0.16893   0.82634   0.66517   0.00000  Uiso   1.00
C419   C     0.04154   0.89512   0.75085   0.00000  Uiso   1.00
C420   C     0.37249   0.62277   0.50668   0.00000  Uiso   1.00
C421   C     0.43232   0.59507   0.51883   0.00000  Uiso   1.00
C422   C     0.43092   0.53113   0.51357   0.00000  Uiso   1.00
C423   C     0.45518   0.42904   0.51148   0.00000  Uiso   1.00
C424   C     0.36610   0.67614   0.43792   0.00000  Uiso   1.00
C425   C     0.42055   0.69330   0.39224   0.00000  Uiso   1.00
C426   C     0.41378   0.67429   0.32907   0.00000  Uiso   1.00
C427   C     0.42811   0.65507   0.22022   0.00000  Uiso   1.00
C428   C     0.25383   0.62763   0.47871   0.00000  Uiso   1.00
C429   C     0.21572   0.69788   0.54637   0.00000  Uiso   1.00
C430   C     0.13212   0.72650   0.58860   0.00000  Uiso   1.00
C431   C     0.10970   0.79135   0.64832   0.00000  Uiso   1.00
C432   C     0.31338   0.58784   0.48987   0.00000  Uiso   1.00
C433   C     0.31190   0.52393   0.48458   0.00000  Uiso   1.00
C434   C     0.37170   0.49614   0.49673   0.00000  Uiso   1.00
C435   C     0.30698   0.64122   0.42110   0.00000  Uiso   1.00
C436   C     0.30013   0.62216   0.35799   0.00000  Uiso   1.00
C437   C     0.35456   0.63930   0.31223   0.00000  Uiso   1.00
H438   H     0.40870   0.71912   0.52275   0.00000  Uiso   1.00
H439   H     0.29831   0.82465   0.63585   0.00000  Uiso   1.00
H440   H     0.47806   0.62211   0.53184   0.00000  Uiso   1.00
H441   H     0.46629   0.72033   0.40527   0.00000  Uiso   1.00
H442   H     0.14985   0.92623   0.75384   0.00000  Uiso   1.00
H443   H     0.52889   0.49915   0.53449   0.00000  Uiso   1.00
H444   H     0.50408   0.70628   0.26760   0.00000  Uiso   1.00
H445   H     0.20780   0.60043   0.46561   0.00000  Uiso   1.00
H446   H     0.08639   0.69945   0.57558   0.00000  Uiso   1.00
H447   H     0.26614   0.49691   0.47156   0.00000  Uiso   1.00
H448   H     0.25437   0.59514   0.34500   0.00000  Uiso   1.00
H449   H     0.97785   0.82462   0.70492   0.00000  Uiso   1.00
H450   H     0.35689   0.39754   0.48557   0.00000  Uiso   1.00
H451   H     0.33207   0.60466   0.21868   0.00000  Uiso   1.00
O452   O     0.98761   0.94270   0.80276   0.00000  Uiso   1.00
O453   O     0.48490   0.38238   0.51498   0.00000  Uiso   1.00
O454   O     0.45234   0.65413   0.16482   0.00000  Uiso   1.00
N455   N     0.12603   0.88874   0.72722   0.00000  Uiso   1.00
N456   N     0.48040   0.48945   0.52216   0.00000  Uiso   1.00
N457   N     0.45722   0.68307   0.27263   0.00000  Uiso   1.00
N458   N     0.03348   0.83406   0.70090   0.00000  Uiso   1.00
N459   N     0.38785   0.43477   0.49584   0.00000  Uiso   1.00
N460   N     0.36466   0.62840   0.24631   0.00000  Uiso   1.00
C461   C     0.99865   0.70871   0.07996   0.00000  Uiso   1.00
C462   C     0.02402   0.76783   0.06900   0.00000  Uiso   1.00
C463   C     0.05422   0.76608   0.00485   0.00000  Uiso   1.00
C464   C     0.07393   0.82550   0.00591   0.00000  Uiso   1.00
C465   C     0.11491   0.90831   0.97929   0.00000  Uiso   1.00
C466   C     0.04949   0.69555   0.11542   0.00000  Uiso   1.00
C467   C     0.10111   0.63302   0.09031   0.00000  Uiso   1.00
C468   C     0.14226   0.63159   0.13046   0.00000  Uiso   1.00
C469   C     0.22274   0.60217   0.17595   0.00000  Uiso   1.00
C470   C     0.90962   0.73720   0.13494   0.00000  Uiso   1.00
C471   C     0.84362   0.70967   0.12625   0.00000  Uiso   1.00
C472   C     0.76700   0.74330   0.18284   0.00000  Uiso   1.00
C473   C     0.63030   0.77855   0.25863   0.00000  Uiso   1.00
C474   C     0.97994   0.81736   0.19593   0.00000  Uiso   1.00
C475   C     0.01386   0.82684   0.13199   0.00000  Uiso   1.00
C476   C     0.03352   0.88628   0.13315   0.00000  Uiso   1.00
C477   C     0.06375   0.88462   0.06901   0.00000  Uiso   1.00
C478   C     0.03934   0.75456   0.17841   0.00000  Uiso   1.00
C479   C     0.08041   0.75322   0.21861   0.00000  Uiso   1.00
C480   C     0.13208   0.69070   0.19357   0.00000  Uiso   1.00
C481   C     0.89945   0.79621   0.19793   0.00000  Uiso   1.00
C482   C     0.82292   0.82988   0.25455   0.00000  Uiso   1.00
C483   C     0.75682   0.80242   0.24594   0.00000  Uiso   1.00
H484   H     0.00656   0.66277   0.03093   0.00000  Uiso   1.00
H485   H     0.06208   0.72040   0.95611   0.00000  Uiso   1.00
H486   H     0.10895   0.58736   0.04157   0.00000  Uiso   1.00
H487   H     0.85151   0.66401   0.07749   0.00000  Uiso   1.00
H488   H     0.11919   0.81031   0.90094   0.00000  Uiso   1.00
H489   H     0.21800   0.52978   0.08114   0.00000  Uiso   1.00
H490   H     0.67512   0.69141   0.15690   0.00000  Uiso   1.00
H491   H     0.97203   0.86330   0.24497   0.00000  Uiso   1.00
H492   H     0.02566   0.93194   0.18190   0.00000  Uiso   1.00
H493   H     0.07253   0.79890   0.26736   0.00000  Uiso   1.00
H494   H     0.81508   0.87555   0.30328   0.00000  Uiso   1.00
H495   H     0.08963   0.98200   0.08419   0.00000  Uiso   1.00
H496   H     0.18843   0.70147   0.26440   0.00000  Uiso   1.00
H497   H     0.64556   0.86310   0.34016   0.00000  Uiso   1.00
O498   O     0.14033   0.93768   0.94721   0.00000  Uiso   1.00
O499   O     0.26995   0.56964   0.18364   0.00000  Uiso   1.00
O500   O     0.55771   0.78169   0.28303   0.00000  Uiso   1.00
N501   N     0.10485   0.84130   0.95272   0.00000  Uiso   1.00
N502   N     0.19725   0.57903   0.12120   0.00000  Uiso   1.00
N503   N     0.68970   0.73013   0.19203   0.00000  Uiso   1.00
N504   N     0.08895   0.93369   0.05133   0.00000  Uiso   1.00
N505   N     0.18134   0.67141   0.21981   0.00000  Uiso   1.00
N506   N     0.67379   0.82251   0.29064   0.00000  Uiso   1.00
C507   C     0.23407   0.34217   0.98892   0.00000  Uiso   1.00
C508   C     0.21210   0.27997   0.93942   0.00000  Uiso   1.00
C509   C     0.21680   0.21669   0.93617   0.00000  Uiso   1.00
C510   C     0.19398   0.16638   0.88730   0.00000  Uiso   1.00
C511   C     0.16394   0.06787   0.81710   0.00000  Uiso   1.00
C512   C     0.29906   0.36083   0.94159   0.00000  Uiso   1.00
C513   C     0.37688   0.36556   0.94019   0.00000  Uiso   1.00
C514   C     0.42725   0.38333   0.89315   0.00000  Uiso   1.00
C515   C     0.53220   0.41042   0.82637   0.00000  Uiso   1.00
C516   C     0.15755   0.40158   0.03020   0.00000  Uiso   1.00
C517   C     0.11638   0.44058   0.10331   0.00000  Uiso   1.00
C518   C     0.04761   0.49267   0.13087   0.00000  Uiso   1.00
C519   C     0.93284   0.58302   0.20168   0.00000  Uiso   1.00
C520   C     0.18516   0.36534   0.90788   0.00000  Uiso   1.00
C521   C     0.18554   0.29256   0.89540   0.00000  Uiso   1.00
C522   C     0.16269   0.24233   0.84651   0.00000  Uiso   1.00
C523   C     0.16736   0.17899   0.84320   0.00000  Uiso   1.00
C524   C     0.27250   0.37342   0.89757   0.00000  Uiso   1.00
C525   C     0.32277   0.39120   0.85052   0.00000  Uiso   1.00
C526   C     0.40064   0.39594   0.84905   0.00000  Uiso   1.00
C527   C     0.13098   0.41417   0.98618   0.00000  Uiso   1.00
C528   C     0.06227   0.46621   0.01364   0.00000  Uiso   1.00
C529   C     0.02100   0.50528   0.08677   0.00000  Uiso   1.00
H530   H     0.25476   0.33237   0.02319   0.00000  Uiso   1.00
H531   H     0.23737   0.20696   0.97024   0.00000  Uiso   1.00
H532   H     0.39742   0.35582   0.97426   0.00000  Uiso   1.00
H533   H     0.13696   0.43082   0.13735   0.00000  Uiso   1.00
H534   H     0.20641   0.07347   0.89212   0.00000  Uiso   1.00
H535   H     0.54386   0.38737   0.90061   0.00000  Uiso   1.00
H536   H     0.99463   0.54552   0.24452   0.00000  Uiso   1.00
H537   H     0.16448   0.37515   0.87360   0.00000  Uiso   1.00
H538   H     0.14214   0.25209   0.81245   0.00000  Uiso   1.00
H539   H     0.30219   0.40094   0.81647   0.00000  Uiso   1.00
H540   H     0.04173   0.47594   0.97956   0.00000  Uiso   1.00
H541   H     0.12912   0.11010   0.76405   0.00000  Uiso   1.00
H542   H     0.46657   0.42399   0.77254   0.00000  Uiso   1.00
H543   H     0.91734   0.58214   0.11645   0.00000  Uiso   1.00
O544   O     0.15472   0.01005   0.79054   0.00000  Uiso   1.00
O545   O     0.59744   0.42188   0.80169   0.00000  Uiso   1.00
O546   O     0.87686   0.62937   0.25289   0.00000  Uiso   1.00
N547   N     0.19127   0.09899   0.87038   0.00000  Uiso   1.00
N548   N     0.50677   0.39245   0.87831   0.00000  Uiso   1.00
N549   N     0.99330   0.54032   0.19984   0.00000  Uiso   1.00
N550   N     0.14968   0.11869   0.80147   0.00000  Uiso   1.00
N551   N     0.46518   0.41215   0.80940   0.00000  Uiso   1.00
N552   N     0.95171   0.56003   0.13093   0.00000  Uiso   1.00
