data_job_02365
_audit_creation_date              2018-12-19
_audit_creation_method            'Materials Studio'
_symmetry_space_group_name_H-M    'P1'
_symmetry_Int_Tables_number       1
_symmetry_cell_setting            triclinic
loop_
_symmetry_equiv_pos_as_xyz
  x,y,z
_cell_length_a                    7.9191
_cell_length_b                    18.1496
_cell_length_c                    18.3987
_cell_angle_alpha                 90.0000
_cell_angle_beta                  117.5452
_cell_angle_gamma                 90.0000
loop_
_atom_site_label
_atom_site_type_symbol
_atom_site_fract_x
_atom_site_fract_y
_atom_site_fract_z
_atom_site_U_iso_or_equiv
_atom_site_adp_type
_atom_site_occupancy
C1     C     0.00396   0.23835   0.76246   0.00000  Uiso   1.00
C2     C     0.16016   0.19847   0.83560   0.00000  Uiso   1.00
C3     C     0.15097   0.17749   0.90622   0.00000  Uiso   1.00
C4     C     0.30884   0.14157   0.96609   0.00000  Uiso   1.00
C5     C     0.52692   0.08186   0.08126   0.00000  Uiso   1.00
C6     C     0.09522   0.30829   0.75068   0.00000  Uiso   1.00
C7     C     0.03139   0.37965   0.74989   0.00000  Uiso   1.00
C8     C     0.13458   0.43618   0.73826   0.00000  Uiso   1.00
C9     C     0.25174   0.54696   0.72153   0.00000  Uiso   1.00
C10    C     0.95983   0.19015   0.68792   0.00000  Uiso   1.00
C11    C     0.78216   0.16220   0.63433   0.00000  Uiso   1.00
C12    C     0.77135   0.11928   0.56985   0.00000  Uiso   1.00
C13    C     0.67829   0.04664   0.45567   0.00000  Uiso   1.00
C14    C     0.30067   0.21186   0.74321   0.00000  Uiso   1.00
C15    C     0.32133   0.18408   0.82514   0.00000  Uiso   1.00
C16    C     0.47925   0.14818   0.88492   0.00000  Uiso   1.00
C17    C     0.47029   0.12715   0.95561   0.00000  Uiso   1.00
C18    C     0.25637   0.29390   0.74022   0.00000  Uiso   1.00
C19    C     0.35967   0.35034   0.72859   0.00000  Uiso   1.00
C20    C     0.29603   0.42176   0.72778   0.00000  Uiso   1.00
C21    C     0.12099   0.17576   0.67746   0.00000  Uiso   1.00
C22    C     0.11044   0.13289   0.61304   0.00000  Uiso   1.00
C23    C     0.93280   0.10486   0.55937   0.00000  Uiso   1.00
H24    H     0.87849   0.24956   0.77060   0.00000  Uiso   1.00
H25    H     0.02623   0.18864   0.91429   0.00000  Uiso   1.00
H26    H     0.90666   0.39076   0.75798   0.00000  Uiso   1.00
H27    H     0.65748   0.17334   0.64245   0.00000  Uiso   1.00
H28    H     0.26114   0.11478   0.06900   0.00000  Uiso   1.00
H29    H     0.00898   0.54097   0.73937   0.00000  Uiso   1.00
H30    H     0.48351   0.08250   0.49575   0.00000  Uiso   1.00
H31    H     0.42614   0.20066   0.73506   0.00000  Uiso   1.00
H32    H     0.60395   0.13705   0.87681   0.00000  Uiso   1.00
H33    H     0.48437   0.33918   0.72049   0.00000  Uiso   1.00
H34    H     0.23519   0.12176   0.60496   0.00000  Uiso   1.00
H35    H     0.73003   0.07291   0.03857   0.00000  Uiso   1.00
H36    H     0.47787   0.49911   0.70894   0.00000  Uiso   1.00
H37    H     0.95241   0.04063   0.46533   0.00000  Uiso   1.00
O38    O     0.60269   0.05291   0.14768   0.00000  Uiso   1.00
O39    O     0.27184   0.61205   0.71521   0.00000  Uiso   1.00
O40    O     0.58245   0.01054   0.39559   0.00000  Uiso   1.00
N41    N     0.34708   0.11364   0.04238   0.00000  Uiso   1.00
N42    N     0.11134   0.51210   0.73421   0.00000  Uiso   1.00
N43    N     0.62006   0.08349   0.50643   0.00000  Uiso   1.00
N44    N     0.59938   0.09111   0.02601   0.00000  Uiso   1.00
N45    N     0.36365   0.48958   0.71784   0.00000  Uiso   1.00
N46    N     0.87237   0.06096   0.49006   0.00000  Uiso   1.00
C47    C     0.99604   0.73835   0.73754   0.00000  Uiso   1.00
C48    C     0.83984   0.69847   0.66440   0.00000  Uiso   1.00
C49    C     0.84903   0.67749   0.59378   0.00000  Uiso   1.00
C50    C     0.69116   0.64157   0.53391   0.00000  Uiso   1.00
C51    C     0.47308   0.58186   0.41874   0.00000  Uiso   1.00
C52    C     0.90478   0.80829   0.74932   0.00000  Uiso   1.00
C53    C     0.96861   0.87965   0.75011   0.00000  Uiso   1.00
C54    C     0.86542   0.93618   0.76174   0.00000  Uiso   1.00
C55    C     0.74826   0.04696   0.77847   0.00000  Uiso   1.00
C56    C     0.04017   0.69015   0.81208   0.00000  Uiso   1.00
C57    C     0.21784   0.66220   0.86567   0.00000  Uiso   1.00
C58    C     0.22865   0.61928   0.93015   0.00000  Uiso   1.00
C59    C     0.32171   0.54664   0.04433   0.00000  Uiso   1.00
C60    C     0.69933   0.71186   0.75679   0.00000  Uiso   1.00
C61    C     0.67867   0.68408   0.67486   0.00000  Uiso   1.00
C62    C     0.52075   0.64818   0.61508   0.00000  Uiso   1.00
C63    C     0.52971   0.62715   0.54439   0.00000  Uiso   1.00
C64    C     0.74363   0.79390   0.75978   0.00000  Uiso   1.00
C65    C     0.64033   0.85034   0.77141   0.00000  Uiso   1.00
C66    C     0.70397   0.92176   0.77222   0.00000  Uiso   1.00
C67    C     0.87901   0.67576   0.82254   0.00000  Uiso   1.00
C68    C     0.88956   0.63289   0.88696   0.00000  Uiso   1.00
C69    C     0.06720   0.60486   0.94063   0.00000  Uiso   1.00
H70    H     0.12151   0.74956   0.72940   0.00000  Uiso   1.00
H71    H     0.97377   0.68864   0.58571   0.00000  Uiso   1.00
H72    H     0.09334   0.89076   0.74202   0.00000  Uiso   1.00
H73    H     0.34252   0.67334   0.85755   0.00000  Uiso   1.00
H74    H     0.73886   0.61478   0.43100   0.00000  Uiso   1.00
H75    H     0.99102   0.04097   0.76063   0.00000  Uiso   1.00
H76    H     0.51649   0.58250   0.00425   0.00000  Uiso   1.00
H77    H     0.57386   0.70066   0.76494   0.00000  Uiso   1.00
H78    H     0.39605   0.63705   0.62319   0.00000  Uiso   1.00
H79    H     0.51563   0.83918   0.77951   0.00000  Uiso   1.00
H80    H     0.76481   0.62176   0.89504   0.00000  Uiso   1.00
H81    H     0.26997   0.57291   0.46143   0.00000  Uiso   1.00
H82    H     0.52213   0.99911   0.79106   0.00000  Uiso   1.00
H83    H     0.04759   0.54063   0.03467   0.00000  Uiso   1.00
O84    O     0.39731   0.55291   0.35232   0.00000  Uiso   1.00
O85    O     0.72816   0.11205   0.78479   0.00000  Uiso   1.00
O86    O     0.41755   0.51054   0.10441   0.00000  Uiso   1.00
N87    N     0.65292   0.61364   0.45762   0.00000  Uiso   1.00
N88    N     0.88866   0.01210   0.76579   0.00000  Uiso   1.00
N89    N     0.37994   0.58349   0.99357   0.00000  Uiso   1.00
N90    N     0.40062   0.59111   0.47399   0.00000  Uiso   1.00
N91    N     0.63635   0.98958   0.78216   0.00000  Uiso   1.00
N92    N     0.12763   0.56096   0.00994   0.00000  Uiso   1.00
C93    C     0.99604   0.76165   0.23754   0.00000  Uiso   1.00
C94    C     0.83984   0.80153   0.16440   0.00000  Uiso   1.00
C95    C     0.84903   0.82251   0.09378   0.00000  Uiso   1.00
C96    C     0.69116   0.85843   0.03391   0.00000  Uiso   1.00
C97    C     0.47308   0.91814   0.91874   0.00000  Uiso   1.00
C98    C     0.90478   0.69171   0.24932   0.00000  Uiso   1.00
C99    C     0.96861   0.62035   0.25011   0.00000  Uiso   1.00
C100   C     0.86542   0.56382   0.26174   0.00000  Uiso   1.00
C101   C     0.74826   0.45304   0.27847   0.00000  Uiso   1.00
C102   C     0.04017   0.80985   0.31208   0.00000  Uiso   1.00
C103   C     0.21784   0.83780   0.36567   0.00000  Uiso   1.00
C104   C     0.22865   0.88072   0.43015   0.00000  Uiso   1.00
C105   C     0.32171   0.95336   0.54433   0.00000  Uiso   1.00
C106   C     0.69933   0.78814   0.25679   0.00000  Uiso   1.00
C107   C     0.67867   0.81592   0.17486   0.00000  Uiso   1.00
C108   C     0.52075   0.85182   0.11508   0.00000  Uiso   1.00
C109   C     0.52971   0.87285   0.04439   0.00000  Uiso   1.00
C110   C     0.74363   0.70610   0.25978   0.00000  Uiso   1.00
C111   C     0.64033   0.64966   0.27141   0.00000  Uiso   1.00
C112   C     0.70397   0.57824   0.27222   0.00000  Uiso   1.00
C113   C     0.87901   0.82424   0.32254   0.00000  Uiso   1.00
C114   C     0.88956   0.86711   0.38696   0.00000  Uiso   1.00
C115   C     0.06720   0.89514   0.44063   0.00000  Uiso   1.00
H116   H     0.12151   0.75044   0.22940   0.00000  Uiso   1.00
H117   H     0.97377   0.81136   0.08571   0.00000  Uiso   1.00
H118   H     0.09334   0.60924   0.24202   0.00000  Uiso   1.00
H119   H     0.34252   0.82666   0.35755   0.00000  Uiso   1.00
H120   H     0.73886   0.88522   0.93100   0.00000  Uiso   1.00
H121   H     0.99102   0.45903   0.26063   0.00000  Uiso   1.00
H122   H     0.51649   0.91750   0.50425   0.00000  Uiso   1.00
H123   H     0.57386   0.79934   0.26494   0.00000  Uiso   1.00
H124   H     0.39605   0.86295   0.12319   0.00000  Uiso   1.00
H125   H     0.51563   0.66082   0.27951   0.00000  Uiso   1.00
H126   H     0.76481   0.87824   0.39504   0.00000  Uiso   1.00
H127   H     0.26997   0.92709   0.96143   0.00000  Uiso   1.00
H128   H     0.52213   0.50089   0.29106   0.00000  Uiso   1.00
H129   H     0.04759   0.95937   0.53467   0.00000  Uiso   1.00
O130   O     0.39731   0.94709   0.85232   0.00000  Uiso   1.00
O131   O     0.72816   0.38795   0.28479   0.00000  Uiso   1.00
O132   O     0.41755   0.98946   0.60441   0.00000  Uiso   1.00
N133   N     0.65292   0.88636   0.95762   0.00000  Uiso   1.00
N134   N     0.88866   0.48790   0.26579   0.00000  Uiso   1.00
N135   N     0.37994   0.91651   0.49357   0.00000  Uiso   1.00
N136   N     0.40062   0.90889   0.97399   0.00000  Uiso   1.00
N137   N     0.63635   0.51042   0.28216   0.00000  Uiso   1.00
N138   N     0.12763   0.93904   0.50994   0.00000  Uiso   1.00
C139   C     0.00396   0.26165   0.26246   0.00000  Uiso   1.00
C140   C     0.16016   0.30153   0.33560   0.00000  Uiso   1.00
C141   C     0.15097   0.32251   0.40622   0.00000  Uiso   1.00
C142   C     0.30884   0.35843   0.46609   0.00000  Uiso   1.00
C143   C     0.52692   0.41814   0.58126   0.00000  Uiso   1.00
C144   C     0.09522   0.19171   0.25068   0.00000  Uiso   1.00
C145   C     0.03139   0.12035   0.24989   0.00000  Uiso   1.00
C146   C     0.13458   0.06382   0.23826   0.00000  Uiso   1.00
C147   C     0.25174   0.95304   0.22153   0.00000  Uiso   1.00
C148   C     0.95983   0.30985   0.18792   0.00000  Uiso   1.00
C149   C     0.78216   0.33780   0.13433   0.00000  Uiso   1.00
C150   C     0.77135   0.38072   0.06985   0.00000  Uiso   1.00
C151   C     0.67829   0.45336   0.95567   0.00000  Uiso   1.00
C152   C     0.30067   0.28814   0.24321   0.00000  Uiso   1.00
C153   C     0.32133   0.31592   0.32514   0.00000  Uiso   1.00
C154   C     0.47925   0.35182   0.38492   0.00000  Uiso   1.00
C155   C     0.47029   0.37285   0.45561   0.00000  Uiso   1.00
C156   C     0.25637   0.20610   0.24022   0.00000  Uiso   1.00
C157   C     0.35967   0.14966   0.22859   0.00000  Uiso   1.00
C158   C     0.29603   0.07824   0.22778   0.00000  Uiso   1.00
C159   C     0.12099   0.32424   0.17746   0.00000  Uiso   1.00
C160   C     0.11044   0.36711   0.11304   0.00000  Uiso   1.00
C161   C     0.93280   0.39514   0.05937   0.00000  Uiso   1.00
H162   H     0.87849   0.25044   0.27060   0.00000  Uiso   1.00
H163   H     0.02623   0.31136   0.41429   0.00000  Uiso   1.00
H164   H     0.90666   0.10924   0.25798   0.00000  Uiso   1.00
H165   H     0.65748   0.32666   0.14245   0.00000  Uiso   1.00
H166   H     0.26114   0.38522   0.56900   0.00000  Uiso   1.00
H167   H     0.00898   0.95903   0.23937   0.00000  Uiso   1.00
H168   H     0.48351   0.41750   0.99575   0.00000  Uiso   1.00
H169   H     0.42614   0.29934   0.23506   0.00000  Uiso   1.00
H170   H     0.60395   0.36295   0.37681   0.00000  Uiso   1.00
H171   H     0.48437   0.16082   0.22049   0.00000  Uiso   1.00
H172   H     0.23519   0.37824   0.10496   0.00000  Uiso   1.00
H173   H     0.73003   0.42709   0.53857   0.00000  Uiso   1.00
H174   H     0.47787   0.00089   0.20894   0.00000  Uiso   1.00
H175   H     0.95241   0.45937   0.96533   0.00000  Uiso   1.00
O176   O     0.60269   0.44709   0.64768   0.00000  Uiso   1.00
O177   O     0.27184   0.88795   0.21521   0.00000  Uiso   1.00
O178   O     0.58245   0.48946   0.89559   0.00000  Uiso   1.00
N179   N     0.34708   0.38636   0.54238   0.00000  Uiso   1.00
N180   N     0.11134   0.98790   0.23421   0.00000  Uiso   1.00
N181   N     0.62006   0.41651   0.00643   0.00000  Uiso   1.00
N182   N     0.59938   0.40889   0.52601   0.00000  Uiso   1.00
N183   N     0.36365   0.01042   0.21784   0.00000  Uiso   1.00
N184   N     0.87237   0.43904   0.99006   0.00000  Uiso   1.00
