data_job_07038
_audit_creation_date              2018-12-19
_audit_creation_method            'Materials Studio'
_symmetry_space_group_name_H-M    'P1'
_symmetry_Int_Tables_number       1
_symmetry_cell_setting            triclinic
loop_
_symmetry_equiv_pos_as_xyz
  x,y,z
_cell_length_a                    19.2426
_cell_length_b                    20.0035
_cell_length_c                    24.8717
_cell_angle_alpha                 71.2186
_cell_angle_beta                  101.5333
_cell_angle_gamma                 98.8399
loop_
_atom_site_label
_atom_site_type_symbol
_atom_site_fract_x
_atom_site_fract_y
_atom_site_fract_z
_atom_site_U_iso_or_equiv
_atom_site_adp_type
_atom_site_occupancy
C1     C     0.56021   0.16808   0.82041   0.00000  Uiso   1.00
C2     C     0.53943   0.24261   0.80876   0.00000  Uiso   1.00
C3     C     0.56851   0.30429   0.77237   0.00000  Uiso   1.00
C4     C     0.54229   0.36722   0.76756   0.00000  Uiso   1.00
C5     C     0.51816   0.48278   0.74486   0.00000  Uiso   1.00
C6     C     0.58227   0.13941   0.88540   0.00000  Uiso   1.00
C7     C     0.64737   0.11431   0.91344   0.00000  Uiso   1.00
C8     C     0.65721   0.09036   0.97314   0.00000  Uiso   1.00
C9     C     0.69957   0.04564   0.06942   0.00000  Uiso   1.00
C10    C     0.49160   0.12364   0.80556   0.00000  Uiso   1.00
C11    C     0.48047   0.08527   0.76648   0.00000  Uiso   1.00
C12    C     0.41398   0.04803   0.75898   0.00000  Uiso   1.00
C13    C     0.31557   0.97885   0.73130   0.00000  Uiso   1.00
C14    C     0.46194   0.17016   0.87658   0.00000  Uiso   1.00
C15    C     0.48605   0.24373   0.83927   0.00000  Uiso   1.00
C16    C     0.45978   0.30659   0.83451   0.00000  Uiso   1.00
C17    C     0.48881   0.36835   0.79812   0.00000  Uiso   1.00
C18    C     0.52889   0.14053   0.91591   0.00000  Uiso   1.00
C19    C     0.53864   0.11661   0.97558   0.00000  Uiso   1.00
C20    C     0.60374   0.09149   0.00371   0.00000  Uiso   1.00
C21    C     0.43822   0.12477   0.83607   0.00000  Uiso   1.00
C22    C     0.37174   0.08758   0.82863   0.00000  Uiso   1.00
C23    C     0.36050   0.04916   0.78954   0.00000  Uiso   1.00
H24    H     0.60178   0.16720   0.79666   0.00000  Uiso   1.00
H25    H     0.60982   0.30339   0.74877   0.00000  Uiso   1.00
H26    H     0.68867   0.11344   0.88982   0.00000  Uiso   1.00
H27    H     0.52179   0.08441   0.74288   0.00000  Uiso   1.00
H28    H     0.59522   0.45489   0.70915   0.00000  Uiso   1.00
H29    H     0.76146   0.05434   0.00655   0.00000  Uiso   1.00
H30    H     0.40957   0.99313   0.69671   0.00000  Uiso   1.00
H31    H     0.42038   0.17103   0.90033   0.00000  Uiso   1.00
H32    H     0.41847   0.30745   0.85813   0.00000  Uiso   1.00
H33    H     0.49732   0.11749   0.99918   0.00000  Uiso   1.00
H34    H     0.33044   0.08846   0.85224   0.00000  Uiso   1.00
H35    H     0.43991   0.45818   0.79791   0.00000  Uiso   1.00
H36    H     0.60615   0.05762   0.09532   0.00000  Uiso   1.00
H37    H     0.25426   0.99642   0.78548   0.00000  Uiso   1.00
O38    O     0.51960   0.54621   0.72391   0.00000  Uiso   1.00
O39    O     0.73769   0.02068   0.11409   0.00000  Uiso   1.00
O40    O     0.27603   0.94038   0.70759   0.00000  Uiso   1.00
N41    N     0.55892   0.43695   0.73582   0.00000  Uiso   1.00
N42    N     0.71435   0.06246   0.01388   0.00000  Uiso   1.00
N43    N     0.38537   0.00522   0.72422   0.00000  Uiso   1.00
N44    N     0.47535   0.43872   0.78358   0.00000  Uiso   1.00
N45    N     0.63078   0.06423   0.06164   0.00000  Uiso   1.00
N46    N     0.30180   0.00699   0.77198   0.00000  Uiso   1.00
C47    C     0.16033   0.19649   0.54075   0.00000  Uiso   1.00
C48    C     0.19070   0.25092   0.49018   0.00000  Uiso   1.00
C49    C     0.24607   0.30337   0.49408   0.00000  Uiso   1.00
C50    C     0.26603   0.34794   0.44281   0.00000  Uiso   1.00
C51    C     0.31837   0.43364   0.37238   0.00000  Uiso   1.00
C52    C     0.08084   0.20494   0.52976   0.00000  Uiso   1.00
C53    C     0.04384   0.21872   0.56694   0.00000  Uiso   1.00
C54    C     0.97132   0.22457   0.54898   0.00000  Uiso   1.00
C55    C     0.85309   0.23883   0.54002   0.00000  Uiso   1.00
C56    C     0.16628   0.12396   0.53515   0.00000  Uiso   1.00
C57    C     0.20110   0.06964   0.57688   0.00000  Uiso   1.00
C58    C     0.20050   0.00731   0.56346   0.00000  Uiso   1.00
C59    C     0.21492   0.89584   0.56287   0.00000  Uiso   1.00
C60    C     0.09734   0.18238   0.44274   0.00000  Uiso   1.00
C61    C     0.15648   0.24325   0.43695   0.00000  Uiso   1.00
C62    C     0.17637   0.28776   0.38565   0.00000  Uiso   1.00
C63    C     0.23176   0.34026   0.38947   0.00000  Uiso   1.00
C64    C     0.04663   0.19727   0.47652   0.00000  Uiso   1.00
C65    C     0.97414   0.20311   0.45850   0.00000  Uiso   1.00
C66    C     0.93704   0.21690   0.49565   0.00000  Uiso   1.00
C67    C     0.13207   0.11629   0.48192   0.00000  Uiso   1.00
C68    C     0.13141   0.05403   0.46844   0.00000  Uiso   1.00
C69    C     0.16622   0.99964   0.51013   0.00000  Uiso   1.00
H70    H     0.18696   0.20246   0.58220   0.00000  Uiso   1.00
H71    H     0.27253   0.30929   0.53529   0.00000  Uiso   1.00
H72    H     0.07033   0.22464   0.60814   0.00000  Uiso   1.00
H73    H     0.22757   0.07559   0.61807   0.00000  Uiso   1.00
H74    H     0.35228   0.42436   0.45981   0.00000  Uiso   1.00
H75    H     0.92593   0.24585   0.61342   0.00000  Uiso   1.00
H76    H     0.25750   0.93156   0.63436   0.00000  Uiso   1.00
H77    H     0.07070   0.17641   0.40129   0.00000  Uiso   1.00
H78    H     0.14989   0.28181   0.34446   0.00000  Uiso   1.00
H79    H     0.94769   0.19717   0.41731   0.00000  Uiso   1.00
H80    H     0.10492   0.04812   0.42724   0.00000  Uiso   1.00
H81    H     0.25274   0.40206   0.30492   0.00000  Uiso   1.00
H82    H     0.82639   0.22355   0.45853   0.00000  Uiso   1.00
H83    H     0.15796   0.90926   0.47947   0.00000  Uiso   1.00
O84    O     0.35668   0.48303   0.34824   0.00000  Uiso   1.00
O85    O     0.79733   0.24882   0.54978   0.00000  Uiso   1.00
O86    O     0.23234   0.83648   0.57725   0.00000  Uiso   1.00
N87    N     0.31800   0.40464   0.43116   0.00000  Uiso   1.00
N88    N     0.91939   0.23776   0.57477   0.00000  Uiso   1.00
N89    N     0.22936   0.94391   0.59435   0.00000  Uiso   1.00
N90    N     0.26444   0.39264   0.34781   0.00000  Uiso   1.00
N91    N     0.86582   0.22576   0.49142   0.00000  Uiso   1.00
N92    N     0.17580   0.93191   0.51101   0.00000  Uiso   1.00
C93    C     0.47880   0.26513   0.38617   0.00000  Uiso   1.00
C94    C     0.53554   0.31976   0.40367   0.00000  Uiso   1.00
C95    C     0.52473   0.38803   0.40052   0.00000  Uiso   1.00
C96    C     0.58347   0.42984   0.41860   0.00000  Uiso   1.00
C97    C     0.66137   0.51857   0.44264   0.00000  Uiso   1.00
C98    C     0.50680   0.24339   0.34165   0.00000  Uiso   1.00
C99    C     0.47182   0.24744   0.28636   0.00000  Uiso   1.00
C100   C     0.50636   0.22496   0.25223   0.00000  Uiso   1.00
C101   C     0.53962   0.19508   0.18000   0.00000  Uiso   1.00
C102   C     0.47873   0.19993   0.43902   0.00000  Uiso   1.00
C103   C     0.42014   0.16742   0.46558   0.00000  Uiso   1.00
C104   C     0.43104   0.10833   0.51342   0.00000  Uiso   1.00
C105   C     0.42071   0.01097   0.59237   0.00000  Uiso   1.00
C106   C     0.60233   0.21798   0.42389   0.00000  Uiso   1.00
C107   C     0.60264   0.29415   0.42416   0.00000  Uiso   1.00
C108   C     0.66141   0.33587   0.44226   0.00000  Uiso   1.00
C109   C     0.65069   0.40419   0.43913   0.00000  Uiso   1.00
C110   C     0.57389   0.21779   0.36214   0.00000  Uiso   1.00
C111   C     0.60849   0.19529   0.32809   0.00000  Uiso   1.00
C112   C     0.57358   0.19930   0.27276   0.00000  Uiso   1.00
C113   C     0.54582   0.17432   0.45951   0.00000  Uiso   1.00
C114   C     0.55682   0.11526   0.50732   0.00000  Uiso   1.00
C115   C     0.49826   0.08267   0.53395   0.00000  Uiso   1.00
H116   H     0.42656   0.28506   0.37021   0.00000  Uiso   1.00
H117   H     0.47279   0.40782   0.38465   0.00000  Uiso   1.00
H118   H     0.41989   0.26725   0.27051   0.00000  Uiso   1.00
H119   H     0.36822   0.18725   0.44971   0.00000  Uiso   1.00
H120   H     0.55365   0.53265   0.40968   0.00000  Uiso   1.00
H121   H     0.44209   0.23622   0.16901   0.00000  Uiso   1.00
H122   H     0.33313   0.06751   0.54689   0.00000  Uiso   1.00
H123   H     0.65458   0.19805   0.43985   0.00000  Uiso   1.00
H124   H     0.71332   0.31604   0.45811   0.00000  Uiso   1.00
H125   H     0.66042   0.17547   0.34397   0.00000  Uiso   1.00
H126   H     0.60875   0.09546   0.52317   0.00000  Uiso   1.00
H127   H     0.74887   0.45815   0.46930   0.00000  Uiso   1.00
H128   H     0.63731   0.16173   0.22863   0.00000  Uiso   1.00
H129   H     0.52836   0.99302   0.60651   0.00000  Uiso   1.00
O130   O     0.68580   0.57460   0.45023   0.00000  Uiso   1.00
O131   O     0.53942   0.18569   0.13449   0.00000  Uiso   1.00
O132   O     0.39648   0.96435   0.63025   0.00000  Uiso   1.00
N133   N     0.59153   0.49892   0.42121   0.00000  Uiso   1.00
N134   N     0.48723   0.22179   0.19620   0.00000  Uiso   1.00
N135   N     0.38536   0.06405   0.54948   0.00000  Uiso   1.00
N136   N     0.69658   0.45883   0.45329   0.00000  Uiso   1.00
N137   N     0.59228   0.18170   0.22828   0.00000  Uiso   1.00
N138   N     0.49041   0.02396   0.58156   0.00000  Uiso   1.00
C139   C     0.89711   0.72077   0.26383   0.00000  Uiso   1.00
C140   C     0.95271   0.78451   0.26055   0.00000  Uiso   1.00
C141   C     0.93894   0.85518   0.23929   0.00000  Uiso   1.00
C142   C     0.99709   0.90563   0.24001   0.00000  Uiso   1.00
C143   C     0.07287   0.00757   0.23171   0.00000  Uiso   1.00
C144   C     0.90630   0.67560   0.32676   0.00000  Uiso   1.00
C145   C     0.85350   0.65470   0.36117   0.00000  Uiso   1.00
C146   C     0.87259   0.61347   0.41763   0.00000  Uiso   1.00
C147   C     0.87629   0.54629   0.51212   0.00000  Uiso   1.00
C148   C     0.91988   0.67750   0.23096   0.00000  Uiso   1.00
C149   C     0.87849   0.65816   0.18483   0.00000  Uiso   1.00
C150   C     0.90900   0.61851   0.16063   0.00000  Uiso   1.00
C151   C     0.93378   0.55427   0.10637   0.00000  Uiso   1.00
C152   C     0.02488   0.68471   0.30290   0.00000  Uiso   1.00
C153   C     0.02211   0.76492   0.28177   0.00000  Uiso   1.00
C154   C     0.08030   0.81528   0.28252   0.00000  Uiso   1.00
C155   C     0.06662   0.88601   0.26126   0.00000  Uiso   1.00
C156   C     0.97570   0.65602   0.34799   0.00000  Uiso   1.00
C157   C     0.99486   0.61480   0.40440   0.00000  Uiso   1.00
C158   C     0.94211   0.59385   0.43889   0.00000  Uiso   1.00
C159   C     0.98928   0.65791   0.25218   0.00000  Uiso   1.00
C160   C     0.01985   0.61827   0.22805   0.00000  Uiso   1.00
C161   C     0.97852   0.59888   0.18189   0.00000  Uiso   1.00
H162   H     0.84308   0.73602   0.24731   0.00000  Uiso   1.00
H163   H     0.88522   0.87031   0.22288   0.00000  Uiso   1.00
H164   H     0.79980   0.66986   0.34474   0.00000  Uiso   1.00
H165   H     0.82479   0.67333   0.16842   0.00000  Uiso   1.00
H166   H     0.96255   0.01056   0.20516   0.00000  Uiso   1.00
H167   H     0.78243   0.58788   0.46211   0.00000  Uiso   1.00
H168   H     0.83511   0.59519   0.09030   0.00000  Uiso   1.00
H169   H     0.07891   0.66946   0.31943   0.00000  Uiso   1.00
H170   H     0.13400   0.80010   0.29895   0.00000  Uiso   1.00
H171   H     0.04857   0.59965   0.42081   0.00000  Uiso   1.00
H172   H     0.07356   0.60312   0.24449   0.00000  Uiso   1.00
H173   H     0.16446   0.95358   0.26691   0.00000  Uiso   1.00
H174   H     0.98433   0.53089   0.52385   0.00000  Uiso   1.00
H175   H     0.03702   0.53821   0.15205   0.00000  Uiso   1.00
O176   O     0.09549   0.06921   0.22128   0.00000  Uiso   1.00
O177   O     0.85916   0.51466   0.55837   0.00000  Uiso   1.00
O178   O     0.92828   0.52425   0.07058   0.00000  Uiso   1.00
N179   N     0.00251   0.97922   0.22249   0.00000  Uiso   1.00
N180   N     0.83411   0.58405   0.46272   0.00000  Uiso   1.00
N181   N     0.88335   0.59087   0.11513   0.00000  Uiso   1.00
N182   N     0.11116   0.94856   0.25572   0.00000  Uiso   1.00
N183   N     0.94276   0.55339   0.49595   0.00000  Uiso   1.00
N184   N     0.99200   0.56020   0.14835   0.00000  Uiso   1.00
C185   C     0.13795   0.75338   0.00987   0.00000  Uiso   1.00
C186   C     0.12347   0.83103   0.98328   0.00000  Uiso   1.00
C187   C     0.10406   0.87317   0.01151   0.00000  Uiso   1.00
C188   C     0.09323   0.94288   0.97965   0.00000  Uiso   1.00
C189   C     0.06952   0.05942   0.94720   0.00000  Uiso   1.00
C190   C     0.21304   0.74941   0.00067   0.00000  Uiso   1.00
C191   C     0.26893   0.72291   0.04351   0.00000  Uiso   1.00
C192   C     0.33350   0.72391   0.02628   0.00000  Uiso   1.00
C193   C     0.44883   0.71369   0.02082   0.00000  Uiso   1.00
C194   C     0.08785   0.71319   0.97248   0.00000  Uiso   1.00
C195   C     0.03848   0.65623   0.99162   0.00000  Uiso   1.00
C196   C     0.99766   0.62672   0.95066   0.00000  Uiso   1.00
C197   C     0.91861   0.56027   0.90144   0.00000  Uiso   1.00
C198   C     0.15326   0.80224   0.90309   0.00000  Uiso   1.00
C199   C     0.13179   0.85756   0.92528   0.00000  Uiso   1.00
C200   C     0.12099   0.92723   0.89337   0.00000  Uiso   1.00
C201   C     0.10156   0.96947   0.92155   0.00000  Uiso   1.00
C202   C     0.22136   0.77594   0.94267   0.00000  Uiso   1.00
C203   C     0.28586   0.77698   0.92538   0.00000  Uiso   1.00
C204   C     0.34183   0.75050   0.96818   0.00000  Uiso   1.00
C205   C     0.09616   0.73973   0.91448   0.00000  Uiso   1.00
C206   C     0.05541   0.71030   0.87349   0.00000  Uiso   1.00
C207   C     0.00599   0.65331   0.89256   0.00000  Uiso   1.00
H208   H     0.13149   0.73271   0.05502   0.00000  Uiso   1.00
H209   H     0.09763   0.85261   0.05639   0.00000  Uiso   1.00
H210   H     0.26248   0.70237   0.08839   0.00000  Uiso   1.00
H211   H     0.03206   0.63571   0.03651   0.00000  Uiso   1.00
H212   H     0.06379   0.99725   0.03234   0.00000  Uiso   1.00
H213   H     0.41136   0.68045   0.09981   0.00000  Uiso   1.00
H214   H     0.92550   0.53986   0.99041   0.00000  Uiso   1.00
H215   H     0.15973   0.82290   0.85794   0.00000  Uiso   1.00
H216   H     0.12743   0.94775   0.84849   0.00000  Uiso   1.00
H217   H     0.29227   0.79751   0.88049   0.00000  Uiso   1.00
H218   H     0.06186   0.73085   0.82861   0.00000  Uiso   1.00
H219   H     0.08798   0.07448   0.86360   0.00000  Uiso   1.00
H220   H     0.43555   0.75766   0.93107   0.00000  Uiso   1.00
H221   H     0.94968   0.61708   0.82167   0.00000  Uiso   1.00
O222   O     0.05415   0.11638   0.94532   0.00000  Uiso   1.00
O223   O     0.51014   0.70072   0.03384   0.00000  Uiso   1.00
O224   O     0.87270   0.51629   0.89030   0.00000  Uiso   1.00
N225   N     0.07391   0.99829   0.99392   0.00000  Uiso   1.00
N226   N     0.39887   0.70210   0.05700   0.00000  Uiso   1.00
N227   N     0.94464   0.57066   0.95472   0.00000  Uiso   1.00
N228   N     0.08692   0.03984   0.90313   0.00000  Uiso   1.00
N229   N     0.41188   0.74365   0.96620   0.00000  Uiso   1.00
N230   N     0.95765   0.61221   0.86393   0.00000  Uiso   1.00
C231   C     0.71621   0.60532   0.91836   0.00000  Uiso   1.00
C232   C     0.74555   0.67755   0.92599   0.00000  Uiso   1.00
C233   C     0.79783   0.72357   0.89803   0.00000  Uiso   1.00
C234   C     0.81734   0.78715   0.91088   0.00000  Uiso   1.00
C235   C     0.86769   0.89676   0.91670   0.00000  Uiso   1.00
C236   C     0.63585   0.60776   0.90052   0.00000  Uiso   1.00
C237   C     0.59589   0.59508   0.85115   0.00000  Uiso   1.00
C238   C     0.52306   0.59989   0.84257   0.00000  Uiso   1.00
C239   C     0.40309   0.60109   0.80888   0.00000  Uiso   1.00
C240   C     0.72727   0.55195   0.97829   0.00000  Uiso   1.00
C241   C     0.76416   0.49233   0.99432   0.00000  Uiso   1.00
C242   C     0.76829   0.45014   0.05122   0.00000  Uiso   1.00
C243   C     0.79026   0.36469   0.13828   0.00000  Uiso   1.00
C244   C     0.65790   0.63639   0.99091   0.00000  Uiso   1.00
C245   C     0.71387   0.69443   0.96539   0.00000  Uiso   1.00
C246   C     0.73332   0.75795   0.97829   0.00000  Uiso   1.00
C247   C     0.78562   0.80406   0.95036   0.00000  Uiso   1.00
C248   C     0.60418   0.62464   0.93992   0.00000  Uiso   1.00
C249   C     0.53138   0.62946   0.93142   0.00000  Uiso   1.00
C250   C     0.49133   0.61680   0.88205   0.00000  Uiso   1.00
C251   C     0.69560   0.56882   0.01770   0.00000  Uiso   1.00
C252   C     0.69966   0.52672   0.07458   0.00000  Uiso   1.00
C253   C     0.73656   0.46705   0.09069   0.00000  Uiso   1.00
H254   H     0.74086   0.59218   0.88768   0.00000  Uiso   1.00
H255   H     0.82232   0.71049   0.86753   0.00000  Uiso   1.00
H256   H     0.62042   0.58201   0.82067   0.00000  Uiso   1.00
H257   H     0.78867   0.47928   0.96381   0.00000  Uiso   1.00
H258   H     0.89865   0.84912   0.86255   0.00000  Uiso   1.00
H259   H     0.47292   0.57820   0.76375   0.00000  Uiso   1.00
H260   H     0.82770   0.36157   0.06559   0.00000  Uiso   1.00
H261   H     0.63324   0.64954   0.02159   0.00000  Uiso   1.00
H262   H     0.70880   0.77100   0.00879   0.00000  Uiso   1.00
H263   H     0.50689   0.64252   0.96192   0.00000  Uiso   1.00
H264   H     0.67514   0.53980   0.10507   0.00000  Uiso   1.00
H265   H     0.80650   0.89823   0.97720   0.00000  Uiso   1.00
H266   H     0.38077   0.62731   0.87840   0.00000  Uiso   1.00
H267   H     0.73556   0.41068   0.18024   0.00000  Uiso   1.00
O268   O     0.90420   0.95256   0.90902   0.00000  Uiso   1.00
O269   O     0.34566   0.59710   0.77940   0.00000  Uiso   1.00
O270   O     0.81114   0.31289   0.17541   0.00000  Uiso   1.00
N271   N     0.86660   0.84400   0.89130   0.00000  Uiso   1.00
N272   N     0.46857   0.59072   0.79892   0.00000  Uiso   1.00
N273   N     0.80025   0.38818   0.08111   0.00000  Uiso   1.00
N274   N     0.81702   0.87043   0.95299   0.00000  Uiso   1.00
N275   N     0.41899   0.61714   0.86061   0.00000  Uiso   1.00
N276   N     0.75067   0.41460   0.14281   0.00000  Uiso   1.00
C277   C     0.43979   0.83192   0.17959   0.00000  Uiso   1.00
C278   C     0.46057   0.75739   0.19124   0.00000  Uiso   1.00
C279   C     0.43149   0.69571   0.22763   0.00000  Uiso   1.00
C280   C     0.45771   0.63278   0.23244   0.00000  Uiso   1.00
C281   C     0.48184   0.51722   0.25514   0.00000  Uiso   1.00
C282   C     0.41773   0.86059   0.11460   0.00000  Uiso   1.00
C283   C     0.35263   0.88569   0.08656   0.00000  Uiso   1.00
C284   C     0.34279   0.90964   0.02686   0.00000  Uiso   1.00
C285   C     0.30043   0.95436   0.93058   0.00000  Uiso   1.00
C286   C     0.50840   0.87636   0.19444   0.00000  Uiso   1.00
C287   C     0.51953   0.91473   0.23352   0.00000  Uiso   1.00
C288   C     0.58602   0.95197   0.24102   0.00000  Uiso   1.00
C289   C     0.68443   0.02115   0.26870   0.00000  Uiso   1.00
C290   C     0.53806   0.82984   0.12342   0.00000  Uiso   1.00
C291   C     0.51395   0.75627   0.16073   0.00000  Uiso   1.00
C292   C     0.54022   0.69341   0.16549   0.00000  Uiso   1.00
C293   C     0.51119   0.63165   0.20188   0.00000  Uiso   1.00
C294   C     0.47111   0.85947   0.08409   0.00000  Uiso   1.00
C295   C     0.46136   0.88339   0.02442   0.00000  Uiso   1.00
C296   C     0.39626   0.90851   0.99629   0.00000  Uiso   1.00
C297   C     0.56178   0.87523   0.16393   0.00000  Uiso   1.00
C298   C     0.62826   0.91242   0.17137   0.00000  Uiso   1.00
C299   C     0.63950   0.95084   0.21046   0.00000  Uiso   1.00
H300   H     0.39822   0.83280   0.20334   0.00000  Uiso   1.00
H301   H     0.39018   0.69661   0.25123   0.00000  Uiso   1.00
H302   H     0.31133   0.88656   0.11018   0.00000  Uiso   1.00
H303   H     0.47821   0.91559   0.25712   0.00000  Uiso   1.00
H304   H     0.40478   0.54511   0.29085   0.00000  Uiso   1.00
H305   H     0.23854   0.94566   0.99345   0.00000  Uiso   1.00
H306   H     0.59043   0.00687   0.30329   0.00000  Uiso   1.00
H307   H     0.57962   0.82897   0.09967   0.00000  Uiso   1.00
H308   H     0.58153   0.69255   0.14187   0.00000  Uiso   1.00
H309   H     0.50268   0.88251   0.00082   0.00000  Uiso   1.00
H310   H     0.66956   0.91154   0.14776   0.00000  Uiso   1.00
H311   H     0.56009   0.54182   0.20209   0.00000  Uiso   1.00
H312   H     0.39385   0.94238   0.90468   0.00000  Uiso   1.00
H313   H     0.74574   0.00358   0.21452   0.00000  Uiso   1.00
O314   O     0.48040   0.45379   0.27609   0.00000  Uiso   1.00
O315   O     0.26231   0.97932   0.88591   0.00000  Uiso   1.00
O316   O     0.72397   0.05962   0.29241   0.00000  Uiso   1.00
N317   N     0.44108   0.56305   0.26418   0.00000  Uiso   1.00
N318   N     0.28565   0.93754   0.98612   0.00000  Uiso   1.00
N319   N     0.61463   0.99478   0.27578   0.00000  Uiso   1.00
N320   N     0.52465   0.56128   0.21642   0.00000  Uiso   1.00
N321   N     0.36922   0.93577   0.93836   0.00000  Uiso   1.00
N322   N     0.69820   0.99301   0.22802   0.00000  Uiso   1.00
C323   C     0.83967   0.80351   0.45925   0.00000  Uiso   1.00
C324   C     0.80930   0.74908   0.50982   0.00000  Uiso   1.00
C325   C     0.75393   0.69663   0.50592   0.00000  Uiso   1.00
C326   C     0.73397   0.65206   0.55719   0.00000  Uiso   1.00
C327   C     0.68163   0.56636   0.62762   0.00000  Uiso   1.00
C328   C     0.91916   0.79506   0.47024   0.00000  Uiso   1.00
C329   C     0.95616   0.78128   0.43306   0.00000  Uiso   1.00
C330   C     0.02868   0.77543   0.45102   0.00000  Uiso   1.00
C331   C     0.14691   0.76117   0.45998   0.00000  Uiso   1.00
C332   C     0.83372   0.87604   0.46485   0.00000  Uiso   1.00
C333   C     0.79890   0.93036   0.42312   0.00000  Uiso   1.00
C334   C     0.79950   0.99269   0.43654   0.00000  Uiso   1.00
C335   C     0.78508   0.10416   0.43713   0.00000  Uiso   1.00
C336   C     0.90266   0.81762   0.55726   0.00000  Uiso   1.00
C337   C     0.84352   0.75675   0.56305   0.00000  Uiso   1.00
C338   C     0.82363   0.71224   0.61435   0.00000  Uiso   1.00
C339   C     0.76824   0.65974   0.61053   0.00000  Uiso   1.00
C340   C     0.95337   0.80273   0.52348   0.00000  Uiso   1.00
C341   C     0.02586   0.79689   0.54150   0.00000  Uiso   1.00
C342   C     0.06296   0.78310   0.50435   0.00000  Uiso   1.00
C343   C     0.86793   0.88371   0.51808   0.00000  Uiso   1.00
C344   C     0.86859   0.94597   0.53156   0.00000  Uiso   1.00
C345   C     0.83378   0.00036   0.48987   0.00000  Uiso   1.00
H346   H     0.81304   0.79754   0.41780   0.00000  Uiso   1.00
H347   H     0.72747   0.69071   0.46471   0.00000  Uiso   1.00
H348   H     0.92967   0.77536   0.39186   0.00000  Uiso   1.00
H349   H     0.77243   0.92441   0.38193   0.00000  Uiso   1.00
H350   H     0.64772   0.57564   0.54019   0.00000  Uiso   1.00
H351   H     0.07407   0.75415   0.38658   0.00000  Uiso   1.00
H352   H     0.74250   0.06844   0.36564   0.00000  Uiso   1.00
H353   H     0.92930   0.82359   0.59871   0.00000  Uiso   1.00
H354   H     0.85011   0.71819   0.65554   0.00000  Uiso   1.00
H355   H     0.05231   0.80283   0.58269   0.00000  Uiso   1.00
H356   H     0.89508   0.95188   0.57276   0.00000  Uiso   1.00
H357   H     0.74726   0.59794   0.69508   0.00000  Uiso   1.00
H358   H     0.17361   0.77645   0.54147   0.00000  Uiso   1.00
H359   H     0.84204   0.09074   0.52053   0.00000  Uiso   1.00
O360   O     0.64332   0.51697   0.65176   0.00000  Uiso   1.00
O361   O     0.20267   0.75118   0.45022   0.00000  Uiso   1.00
O362   O     0.76766   0.16352   0.42275   0.00000  Uiso   1.00
N363   N     0.68200   0.59536   0.56884   0.00000  Uiso   1.00
N364   N     0.08061   0.76224   0.42523   0.00000  Uiso   1.00
N365   N     0.77064   0.05609   0.40565   0.00000  Uiso   1.00
N366   N     0.73556   0.60736   0.65219   0.00000  Uiso   1.00
N367   N     0.13418   0.77424   0.50858   0.00000  Uiso   1.00
N368   N     0.82420   0.06809   0.48899   0.00000  Uiso   1.00
C369   C     0.52120   0.73487   0.61383   0.00000  Uiso   1.00
C370   C     0.46446   0.68024   0.59633   0.00000  Uiso   1.00
C371   C     0.47527   0.61197   0.59948   0.00000  Uiso   1.00
C372   C     0.41653   0.57016   0.58140   0.00000  Uiso   1.00
C373   C     0.33863   0.48143   0.55736   0.00000  Uiso   1.00
C374   C     0.49320   0.75661   0.65835   0.00000  Uiso   1.00
C375   C     0.52818   0.75256   0.71364   0.00000  Uiso   1.00
C376   C     0.49364   0.77504   0.74777   0.00000  Uiso   1.00
C377   C     0.46038   0.80492   0.82000   0.00000  Uiso   1.00
C378   C     0.52127   0.80007   0.56098   0.00000  Uiso   1.00
C379   C     0.57986   0.83258   0.53442   0.00000  Uiso   1.00
C380   C     0.56896   0.89167   0.48658   0.00000  Uiso   1.00
C381   C     0.57929   0.98903   0.40763   0.00000  Uiso   1.00
C382   C     0.39767   0.78202   0.57611   0.00000  Uiso   1.00
C383   C     0.39736   0.70585   0.57584   0.00000  Uiso   1.00
C384   C     0.33859   0.66413   0.55774   0.00000  Uiso   1.00
C385   C     0.34931   0.59581   0.56087   0.00000  Uiso   1.00
C386   C     0.42611   0.78221   0.63786   0.00000  Uiso   1.00
C387   C     0.39151   0.80471   0.67191   0.00000  Uiso   1.00
C388   C     0.42642   0.80070   0.72724   0.00000  Uiso   1.00
C389   C     0.45418   0.82568   0.54049   0.00000  Uiso   1.00
C390   C     0.44318   0.88474   0.49268   0.00000  Uiso   1.00
C391   C     0.50174   0.91733   0.46605   0.00000  Uiso   1.00
H392   H     0.57344   0.71494   0.62979   0.00000  Uiso   1.00
H393   H     0.52721   0.59218   0.61535   0.00000  Uiso   1.00
H394   H     0.58011   0.73275   0.72949   0.00000  Uiso   1.00
H395   H     0.63178   0.81275   0.55029   0.00000  Uiso   1.00
H396   H     0.44635   0.46735   0.59032   0.00000  Uiso   1.00
H397   H     0.55791   0.76378   0.83099   0.00000  Uiso   1.00
H398   H     0.66687   0.93249   0.45311   0.00000  Uiso   1.00
H399   H     0.34542   0.80195   0.56015   0.00000  Uiso   1.00
H400   H     0.28668   0.68396   0.54189   0.00000  Uiso   1.00
H401   H     0.33958   0.82453   0.65603   0.00000  Uiso   1.00
H402   H     0.39125   0.90454   0.47683   0.00000  Uiso   1.00
H403   H     0.25113   0.54185   0.53070   0.00000  Uiso   1.00
H404   H     0.36269   0.83827   0.77137   0.00000  Uiso   1.00
H405   H     0.47164   0.00698   0.39349   0.00000  Uiso   1.00
O406   O     0.31420   0.42540   0.54977   0.00000  Uiso   1.00
O407   O     0.46058   0.81431   0.86551   0.00000  Uiso   1.00
O408   O     0.60352   0.03565   0.36975   0.00000  Uiso   1.00
N409   N     0.40847   0.50108   0.57879   0.00000  Uiso   1.00
N410   N     0.51277   0.77821   0.80380   0.00000  Uiso   1.00
N411   N     0.61464   0.93595   0.45052   0.00000  Uiso   1.00
N412   N     0.30342   0.54117   0.54671   0.00000  Uiso   1.00
N413   N     0.40772   0.81830   0.77172   0.00000  Uiso   1.00
N414   N     0.50959   0.97604   0.41844   0.00000  Uiso   1.00
C415   C     0.10289   0.27923   0.73617   0.00000  Uiso   1.00
C416   C     0.04729   0.21549   0.73945   0.00000  Uiso   1.00
C417   C     0.06106   0.14482   0.76071   0.00000  Uiso   1.00
C418   C     0.00291   0.09437   0.75999   0.00000  Uiso   1.00
C419   C     0.92713   0.99243   0.76829   0.00000  Uiso   1.00
C420   C     0.09370   0.32440   0.67324   0.00000  Uiso   1.00
C421   C     0.14650   0.34530   0.63883   0.00000  Uiso   1.00
C422   C     0.12741   0.38653   0.58237   0.00000  Uiso   1.00
C423   C     0.12371   0.45371   0.48788   0.00000  Uiso   1.00
C424   C     0.08012   0.32250   0.76904   0.00000  Uiso   1.00
C425   C     0.12151   0.34184   0.81517   0.00000  Uiso   1.00
C426   C     0.09100   0.38149   0.83937   0.00000  Uiso   1.00
C427   C     0.06622   0.44573   0.89363   0.00000  Uiso   1.00
C428   C     0.97512   0.31529   0.69710   0.00000  Uiso   1.00
C429   C     0.97789   0.23508   0.71823   0.00000  Uiso   1.00
C430   C     0.91970   0.18472   0.71748   0.00000  Uiso   1.00
C431   C     0.93338   0.11399   0.73874   0.00000  Uiso   1.00
C432   C     0.02430   0.34398   0.65201   0.00000  Uiso   1.00
C433   C     0.00514   0.38520   0.59560   0.00000  Uiso   1.00
C434   C     0.05789   0.40615   0.56111   0.00000  Uiso   1.00
C435   C     0.01072   0.34209   0.74782   0.00000  Uiso   1.00
C436   C     0.98015   0.38173   0.77195   0.00000  Uiso   1.00
C437   C     0.02148   0.40112   0.81811   0.00000  Uiso   1.00
H438   H     0.15692   0.26398   0.75269   0.00000  Uiso   1.00
H439   H     0.11478   0.12969   0.77712   0.00000  Uiso   1.00
H440   H     0.20020   0.33014   0.65526   0.00000  Uiso   1.00
H441   H     0.17521   0.32667   0.83158   0.00000  Uiso   1.00
H442   H     0.03745   0.98944   0.79484   0.00000  Uiso   1.00
H443   H     0.21757   0.41212   0.53789   0.00000  Uiso   1.00
H444   H     0.16489   0.40481   0.90970   0.00000  Uiso   1.00
H445   H     0.92109   0.33054   0.68057   0.00000  Uiso   1.00
H446   H     0.86600   0.19990   0.70105   0.00000  Uiso   1.00
H447   H     0.95143   0.40035   0.57919   0.00000  Uiso   1.00
H448   H     0.92644   0.39688   0.75551   0.00000  Uiso   1.00
H449   H     0.83554   0.04642   0.73309   0.00000  Uiso   1.00
H450   H     0.01567   0.46911   0.47615   0.00000  Uiso   1.00
H451   H     0.96298   0.46179   0.84795   0.00000  Uiso   1.00
O452   O     0.90451   0.93079   0.77872   0.00000  Uiso   1.00
O453   O     0.14084   0.48534   0.44163   0.00000  Uiso   1.00
O454   O     0.07172   0.47575   0.92942   0.00000  Uiso   1.00
N455   N     0.99749   0.02078   0.77751   0.00000  Uiso   1.00
N456   N     0.16589   0.41595   0.53728   0.00000  Uiso   1.00
N457   N     0.11665   0.40913   0.88487   0.00000  Uiso   1.00
N458   N     0.88884   0.05144   0.74428   0.00000  Uiso   1.00
N459   N     0.05724   0.44661   0.50405   0.00000  Uiso   1.00
N460   N     0.00800   0.43980   0.85165   0.00000  Uiso   1.00
C461   C     0.86205   0.24662   0.99013   0.00000  Uiso   1.00
C462   C     0.87653   0.16897   0.01672   0.00000  Uiso   1.00
C463   C     0.89594   0.12683   0.98849   0.00000  Uiso   1.00
C464   C     0.90677   0.05712   0.02035   0.00000  Uiso   1.00
C465   C     0.93048   0.94058   0.05280   0.00000  Uiso   1.00
C466   C     0.78696   0.25059   0.99933   0.00000  Uiso   1.00
C467   C     0.73107   0.27709   0.95649   0.00000  Uiso   1.00
C468   C     0.66650   0.27609   0.97372   0.00000  Uiso   1.00
C469   C     0.55117   0.28631   0.97918   0.00000  Uiso   1.00
C470   C     0.91215   0.28681   0.02752   0.00000  Uiso   1.00
C471   C     0.96152   0.34377   0.00838   0.00000  Uiso   1.00
C472   C     0.00234   0.37328   0.04934   0.00000  Uiso   1.00
C473   C     0.08139   0.43973   0.09856   0.00000  Uiso   1.00
C474   C     0.84674   0.19776   0.09691   0.00000  Uiso   1.00
C475   C     0.86821   0.14244   0.07472   0.00000  Uiso   1.00
C476   C     0.87901   0.07277   0.10663   0.00000  Uiso   1.00
C477   C     0.89844   0.03053   0.07845   0.00000  Uiso   1.00
C478   C     0.77864   0.22406   0.05733   0.00000  Uiso   1.00
C479   C     0.71414   0.22302   0.07462   0.00000  Uiso   1.00
C480   C     0.65817   0.24950   0.03182   0.00000  Uiso   1.00
C481   C     0.90384   0.26027   0.08552   0.00000  Uiso   1.00
C482   C     0.94459   0.28970   0.12651   0.00000  Uiso   1.00
C483   C     0.99401   0.34669   0.10744   0.00000  Uiso   1.00
H484   H     0.86851   0.26729   0.94498   0.00000  Uiso   1.00
H485   H     0.90237   0.14739   0.94361   0.00000  Uiso   1.00
H486   H     0.73752   0.29763   0.91161   0.00000  Uiso   1.00
H487   H     0.96794   0.36429   0.96349   0.00000  Uiso   1.00
H488   H     0.93621   0.00275   0.96766   0.00000  Uiso   1.00
H489   H     0.58864   0.31955   0.90019   0.00000  Uiso   1.00
H490   H     0.07450   0.46014   0.00959   0.00000  Uiso   1.00
H491   H     0.84027   0.17710   0.14206   0.00000  Uiso   1.00
H492   H     0.87257   0.05225   0.15151   0.00000  Uiso   1.00
H493   H     0.70773   0.20249   0.11951   0.00000  Uiso   1.00
H494   H     0.93814   0.26915   0.17139   0.00000  Uiso   1.00
H495   H     0.91202   0.92552   0.13640   0.00000  Uiso   1.00
H496   H     0.56445   0.24234   0.06893   0.00000  Uiso   1.00
H497   H     0.05032   0.38292   0.17833   0.00000  Uiso   1.00
O498   O     0.94585   0.88362   0.05468   0.00000  Uiso   1.00
O499   O     0.48986   0.29928   0.96616   0.00000  Uiso   1.00
O500   O     0.12730   0.48371   0.10970   0.00000  Uiso   1.00
N501   N     0.92609   0.00171   0.00608   0.00000  Uiso   1.00
N502   N     0.60113   0.29790   0.94300   0.00000  Uiso   1.00
N503   N     0.05536   0.42934   0.04528   0.00000  Uiso   1.00
N504   N     0.91308   0.96016   0.09687   0.00000  Uiso   1.00
N505   N     0.58812   0.25635   0.03380   0.00000  Uiso   1.00
N506   N     0.04235   0.38779   0.13607   0.00000  Uiso   1.00
C507   C     0.28379   0.39468   0.08164   0.00000  Uiso   1.00
C508   C     0.25445   0.32245   0.07401   0.00000  Uiso   1.00
C509   C     0.20217   0.27643   0.10197   0.00000  Uiso   1.00
C510   C     0.18266   0.21285   0.08912   0.00000  Uiso   1.00
C511   C     0.13231   0.10324   0.08330   0.00000  Uiso   1.00
C512   C     0.36415   0.39224   0.09948   0.00000  Uiso   1.00
C513   C     0.40411   0.40492   0.14885   0.00000  Uiso   1.00
C514   C     0.47694   0.40011   0.15743   0.00000  Uiso   1.00
C515   C     0.59691   0.39891   0.19112   0.00000  Uiso   1.00
C516   C     0.27273   0.44805   0.02171   0.00000  Uiso   1.00
C517   C     0.23584   0.50767   0.00568   0.00000  Uiso   1.00
C518   C     0.23171   0.54986   0.94878   0.00000  Uiso   1.00
C519   C     0.20974   0.63531   0.86172   0.00000  Uiso   1.00
C520   C     0.34210   0.36361   0.00909   0.00000  Uiso   1.00
C521   C     0.28613   0.30557   0.03461   0.00000  Uiso   1.00
C522   C     0.26668   0.24205   0.02171   0.00000  Uiso   1.00
C523   C     0.21438   0.19594   0.04964   0.00000  Uiso   1.00
C524   C     0.39582   0.37536   0.06008   0.00000  Uiso   1.00
C525   C     0.46862   0.37054   0.06858   0.00000  Uiso   1.00
C526   C     0.50867   0.38320   0.11795   0.00000  Uiso   1.00
C527   C     0.30440   0.43118   0.98230   0.00000  Uiso   1.00
C528   C     0.30034   0.47328   0.92542   0.00000  Uiso   1.00
C529   C     0.26344   0.53295   0.90931   0.00000  Uiso   1.00
H530   H     0.25914   0.40782   0.11232   0.00000  Uiso   1.00
H531   H     0.17768   0.28951   0.13247   0.00000  Uiso   1.00
H532   H     0.37958   0.41799   0.17933   0.00000  Uiso   1.00
H533   H     0.21133   0.52072   0.03619   0.00000  Uiso   1.00
H534   H     0.10135   0.15088   0.13745   0.00000  Uiso   1.00
H535   H     0.52708   0.42180   0.23625   0.00000  Uiso   1.00
H536   H     0.17230   0.63843   0.93441   0.00000  Uiso   1.00
H537   H     0.36676   0.35046   0.97841   0.00000  Uiso   1.00
H538   H     0.29120   0.22900   0.99121   0.00000  Uiso   1.00
H539   H     0.49311   0.35748   0.03808   0.00000  Uiso   1.00
H540   H     0.32486   0.46020   0.89493   0.00000  Uiso   1.00
H541   H     0.19350   0.10177   0.02280   0.00000  Uiso   1.00
H542   H     0.61923   0.37269   0.12160   0.00000  Uiso   1.00
H543   H     0.26444   0.58932   0.81976   0.00000  Uiso   1.00
O544   O     0.09580   0.04744   0.09098   0.00000  Uiso   1.00
O545   O     0.65434   0.40290   0.22060   0.00000  Uiso   1.00
O546   O     0.18886   0.68711   0.82459   0.00000  Uiso   1.00
N547   N     0.13340   0.15600   0.10870   0.00000  Uiso   1.00
N548   N     0.53143   0.40928   0.20108   0.00000  Uiso   1.00
N549   N     0.19975   0.61182   0.91889   0.00000  Uiso   1.00
N550   N     0.18298   0.12957   0.04701   0.00000  Uiso   1.00
N551   N     0.58101   0.38286   0.13939   0.00000  Uiso   1.00
N552   N     0.24933   0.58540   0.85719   0.00000  Uiso   1.00
