data_job_03244
_audit_creation_date              2018-12-19
_audit_creation_method            'Materials Studio'
_symmetry_space_group_name_H-M    'P1'
_symmetry_Int_Tables_number       1
_symmetry_cell_setting            triclinic
loop_
_symmetry_equiv_pos_as_xyz
  x,y,z
_cell_length_a                    12.9515
_cell_length_b                    10.7520
_cell_length_c                    25.0828
_cell_angle_alpha                 90.0000
_cell_angle_beta                  118.8747
_cell_angle_gamma                 90.0000
loop_
_atom_site_label
_atom_site_type_symbol
_atom_site_fract_x
_atom_site_fract_y
_atom_site_fract_z
_atom_site_U_iso_or_equiv
_atom_site_adp_type
_atom_site_occupancy
C1     C     0.69426   0.12796   0.44107   0.00000  Uiso   1.00
C2     C     0.55998   0.13324   0.40975   0.00000  Uiso   1.00
C3     C     0.49352   0.18794   0.43329   0.00000  Uiso   1.00
C4     C     0.37177   0.18295   0.39758   0.00000  Uiso   1.00
C5     C     0.17137   0.19988   0.35766   0.00000  Uiso   1.00
C6     C     0.72622   0.99062   0.44439   0.00000  Uiso   1.00
C7     C     0.79955   0.92541   0.49704   0.00000  Uiso   1.00
C8     C     0.81774   0.80037   0.49048   0.00000  Uiso   1.00
C9     C     0.87550   0.59589   0.50432   0.00000  Uiso   1.00
C10    C     0.72940   0.18726   0.39695   0.00000  Uiso   1.00
C11    C     0.80542   0.28738   0.40971   0.00000  Uiso   1.00
C12    C     0.82631   0.32787   0.36321   0.00000  Uiso   1.00
C13    C     0.88900   0.42871   0.30340   0.00000  Uiso   1.00
C14    C     0.59623   0.02183   0.33581   0.00000  Uiso   1.00
C15    C     0.50674   0.07560   0.35258   0.00000  Uiso   1.00
C16    C     0.38505   0.07053   0.31682   0.00000  Uiso   1.00
C17    C     0.31842   0.12521   0.34030   0.00000  Uiso   1.00
C18    C     0.67298   0.93298   0.38721   0.00000  Uiso   1.00
C19    C     0.69108   0.80800   0.38057   0.00000  Uiso   1.00
C20    C     0.76440   0.74262   0.43320   0.00000  Uiso   1.00
C21    C     0.67615   0.12962   0.33977   0.00000  Uiso   1.00
C22    C     0.69694   0.16996   0.29325   0.00000  Uiso   1.00
C23    C     0.77297   0.27012   0.30594   0.00000  Uiso   1.00
H24    H     0.73572   0.17282   0.48559   0.00000  Uiso   1.00
H25    H     0.53476   0.23253   0.47754   0.00000  Uiso   1.00
H26    H     0.84075   0.97005   0.54127   0.00000  Uiso   1.00
H27    H     0.84661   0.33196   0.45396   0.00000  Uiso   1.00
H28    H     0.28848   0.27327   0.44341   0.00000  Uiso   1.00
H29    H     0.93369   0.71982   0.57780   0.00000  Uiso   1.00
H30    H     0.94606   0.48297   0.39368   0.00000  Uiso   1.00
H31    H     0.55477   0.97695   0.29130   0.00000  Uiso   1.00
H32    H     0.34387   0.02591   0.27258   0.00000  Uiso   1.00
H33    H     0.64986   0.76343   0.33632   0.00000  Uiso   1.00
H34    H     0.65572   0.12534   0.24901   0.00000  Uiso   1.00
H35    H     0.13354   0.10556   0.27706   0.00000  Uiso   1.00
H36    H     0.77877   0.55211   0.41145   0.00000  Uiso   1.00
H37    H     0.79112   0.31527   0.22733   0.00000  Uiso   1.00
O38    O     0.07554   0.22512   0.35144   0.00000  Uiso   1.00
O39    O     0.92206   0.49903   0.52775   0.00000  Uiso   1.00
O40    O     0.93827   0.50027   0.28620   0.00000  Uiso   1.00
N41    N     0.28096   0.22710   0.40682   0.00000  Uiso   1.00
N42    N     0.88418   0.70965   0.53247   0.00000  Uiso   1.00
N43    N     0.89577   0.42312   0.36034   0.00000  Uiso   1.00
N44    N     0.19759   0.13686   0.31731   0.00000  Uiso   1.00
N45    N     0.80081   0.61941   0.44296   0.00000  Uiso   1.00
N46    N     0.81240   0.33288   0.27083   0.00000  Uiso   1.00
C47    C     0.30574   0.62796   0.05893   0.00000  Uiso   1.00
C48    C     0.44002   0.63324   0.09025   0.00000  Uiso   1.00
C49    C     0.50648   0.68794   0.06671   0.00000  Uiso   1.00
C50    C     0.62823   0.68295   0.10242   0.00000  Uiso   1.00
C51    C     0.82863   0.69988   0.14234   0.00000  Uiso   1.00
C52    C     0.27378   0.49062   0.05561   0.00000  Uiso   1.00
C53    C     0.20045   0.42541   0.00296   0.00000  Uiso   1.00
C54    C     0.18226   0.30037   0.00952   0.00000  Uiso   1.00
C55    C     0.12450   0.09589   0.99568   0.00000  Uiso   1.00
C56    C     0.27060   0.68726   0.10305   0.00000  Uiso   1.00
C57    C     0.19458   0.78738   0.09029   0.00000  Uiso   1.00
C58    C     0.17369   0.82787   0.13679   0.00000  Uiso   1.00
C59    C     0.11100   0.92871   0.19660   0.00000  Uiso   1.00
C60    C     0.40377   0.52183   0.16419   0.00000  Uiso   1.00
C61    C     0.49326   0.57560   0.14742   0.00000  Uiso   1.00
C62    C     0.61495   0.57053   0.18318   0.00000  Uiso   1.00
C63    C     0.68158   0.62521   0.15970   0.00000  Uiso   1.00
C64    C     0.32702   0.43298   0.11279   0.00000  Uiso   1.00
C65    C     0.30892   0.30800   0.11943   0.00000  Uiso   1.00
C66    C     0.23560   0.24262   0.06680   0.00000  Uiso   1.00
C67    C     0.32385   0.62962   0.16023   0.00000  Uiso   1.00
C68    C     0.30306   0.66996   0.20675   0.00000  Uiso   1.00
C69    C     0.22703   0.77012   0.19406   0.00000  Uiso   1.00
H70    H     0.26428   0.67282   0.01441   0.00000  Uiso   1.00
H71    H     0.46524   0.73253   0.02246   0.00000  Uiso   1.00
H72    H     0.15925   0.47005   0.95873   0.00000  Uiso   1.00
H73    H     0.15339   0.83196   0.04604   0.00000  Uiso   1.00
H74    H     0.71152   0.77327   0.05659   0.00000  Uiso   1.00
H75    H     0.06631   0.21982   0.92220   0.00000  Uiso   1.00
H76    H     0.05394   0.98297   0.10632   0.00000  Uiso   1.00
H77    H     0.44523   0.47695   0.20870   0.00000  Uiso   1.00
H78    H     0.65613   0.52591   0.22742   0.00000  Uiso   1.00
H79    H     0.35014   0.26343   0.16368   0.00000  Uiso   1.00
H80    H     0.34428   0.62534   0.25099   0.00000  Uiso   1.00
H81    H     0.86646   0.60556   0.22294   0.00000  Uiso   1.00
H82    H     0.22123   0.05211   0.08855   0.00000  Uiso   1.00
H83    H     0.20888   0.81527   0.27267   0.00000  Uiso   1.00
O84    O     0.92446   0.72512   0.14856   0.00000  Uiso   1.00
O85    O     0.07794   0.99903   0.97225   0.00000  Uiso   1.00
O86    O     0.06173   0.00027   0.21380   0.00000  Uiso   1.00
N87    N     0.71904   0.72710   0.09318   0.00000  Uiso   1.00
N88    N     0.11582   0.20965   0.96753   0.00000  Uiso   1.00
N89    N     0.10423   0.92312   0.13966   0.00000  Uiso   1.00
N90    N     0.80241   0.63686   0.18269   0.00000  Uiso   1.00
N91    N     0.19919   0.11941   0.05704   0.00000  Uiso   1.00
N92    N     0.18760   0.83288   0.22917   0.00000  Uiso   1.00
C93    C     0.30574   0.87204   0.55893   0.00000  Uiso   1.00
C94    C     0.44002   0.86676   0.59025   0.00000  Uiso   1.00
C95    C     0.50648   0.81206   0.56671   0.00000  Uiso   1.00
C96    C     0.62823   0.81705   0.60242   0.00000  Uiso   1.00
C97    C     0.82863   0.80012   0.64234   0.00000  Uiso   1.00
C98    C     0.27378   0.00938   0.55561   0.00000  Uiso   1.00
C99    C     0.20045   0.07459   0.50296   0.00000  Uiso   1.00
C100   C     0.18226   0.19963   0.50952   0.00000  Uiso   1.00
C101   C     0.12450   0.40411   0.49568   0.00000  Uiso   1.00
C102   C     0.27060   0.81274   0.60305   0.00000  Uiso   1.00
C103   C     0.19458   0.71262   0.59029   0.00000  Uiso   1.00
C104   C     0.17369   0.67213   0.63679   0.00000  Uiso   1.00
C105   C     0.11100   0.57129   0.69660   0.00000  Uiso   1.00
C106   C     0.40377   0.97817   0.66419   0.00000  Uiso   1.00
C107   C     0.49326   0.92440   0.64742   0.00000  Uiso   1.00
C108   C     0.61495   0.92947   0.68318   0.00000  Uiso   1.00
C109   C     0.68158   0.87479   0.65970   0.00000  Uiso   1.00
C110   C     0.32702   0.06702   0.61279   0.00000  Uiso   1.00
C111   C     0.30892   0.19200   0.61943   0.00000  Uiso   1.00
C112   C     0.23560   0.25738   0.56680   0.00000  Uiso   1.00
C113   C     0.32385   0.87038   0.66023   0.00000  Uiso   1.00
C114   C     0.30306   0.83004   0.70675   0.00000  Uiso   1.00
C115   C     0.22703   0.72988   0.69406   0.00000  Uiso   1.00
H116   H     0.26428   0.82718   0.51441   0.00000  Uiso   1.00
H117   H     0.46524   0.76747   0.52246   0.00000  Uiso   1.00
H118   H     0.15925   0.02995   0.45873   0.00000  Uiso   1.00
H119   H     0.15339   0.66804   0.54604   0.00000  Uiso   1.00
H120   H     0.71152   0.72673   0.55659   0.00000  Uiso   1.00
H121   H     0.06631   0.28018   0.42220   0.00000  Uiso   1.00
H122   H     0.05394   0.51703   0.60632   0.00000  Uiso   1.00
H123   H     0.44523   0.02305   0.70870   0.00000  Uiso   1.00
H124   H     0.65613   0.97409   0.72742   0.00000  Uiso   1.00
H125   H     0.35014   0.23657   0.66368   0.00000  Uiso   1.00
H126   H     0.34428   0.87466   0.75099   0.00000  Uiso   1.00
H127   H     0.86646   0.89444   0.72294   0.00000  Uiso   1.00
H128   H     0.22123   0.44789   0.58855   0.00000  Uiso   1.00
H129   H     0.20888   0.68473   0.77267   0.00000  Uiso   1.00
O130   O     0.92446   0.77488   0.64856   0.00000  Uiso   1.00
O131   O     0.07794   0.50097   0.47225   0.00000  Uiso   1.00
O132   O     0.06173   0.49973   0.71380   0.00000  Uiso   1.00
N133   N     0.71904   0.77290   0.59318   0.00000  Uiso   1.00
N134   N     0.11582   0.29035   0.46753   0.00000  Uiso   1.00
N135   N     0.10423   0.57688   0.63966   0.00000  Uiso   1.00
N136   N     0.80241   0.86314   0.68269   0.00000  Uiso   1.00
N137   N     0.19919   0.38059   0.55704   0.00000  Uiso   1.00
N138   N     0.18760   0.66712   0.72917   0.00000  Uiso   1.00
C139   C     0.69426   0.37204   0.94107   0.00000  Uiso   1.00
C140   C     0.55998   0.36676   0.90975   0.00000  Uiso   1.00
C141   C     0.49352   0.31206   0.93329   0.00000  Uiso   1.00
C142   C     0.37177   0.31705   0.89758   0.00000  Uiso   1.00
C143   C     0.17137   0.30012   0.85766   0.00000  Uiso   1.00
C144   C     0.72622   0.50938   0.94439   0.00000  Uiso   1.00
C145   C     0.79955   0.57459   0.99704   0.00000  Uiso   1.00
C146   C     0.81774   0.69963   0.99048   0.00000  Uiso   1.00
C147   C     0.87550   0.90411   0.00432   0.00000  Uiso   1.00
C148   C     0.72940   0.31274   0.89695   0.00000  Uiso   1.00
C149   C     0.80542   0.21262   0.90971   0.00000  Uiso   1.00
C150   C     0.82631   0.17213   0.86321   0.00000  Uiso   1.00
C151   C     0.88900   0.07129   0.80340   0.00000  Uiso   1.00
C152   C     0.59623   0.47817   0.83581   0.00000  Uiso   1.00
C153   C     0.50674   0.42440   0.85258   0.00000  Uiso   1.00
C154   C     0.38505   0.42947   0.81682   0.00000  Uiso   1.00
C155   C     0.31842   0.37479   0.84030   0.00000  Uiso   1.00
C156   C     0.67298   0.56702   0.88721   0.00000  Uiso   1.00
C157   C     0.69108   0.69200   0.88057   0.00000  Uiso   1.00
C158   C     0.76440   0.75738   0.93320   0.00000  Uiso   1.00
C159   C     0.67615   0.37038   0.83977   0.00000  Uiso   1.00
C160   C     0.69694   0.33004   0.79325   0.00000  Uiso   1.00
C161   C     0.77297   0.22988   0.80594   0.00000  Uiso   1.00
H162   H     0.73572   0.32718   0.98559   0.00000  Uiso   1.00
H163   H     0.53476   0.26747   0.97754   0.00000  Uiso   1.00
H164   H     0.84075   0.52995   0.04127   0.00000  Uiso   1.00
H165   H     0.84661   0.16804   0.95396   0.00000  Uiso   1.00
H166   H     0.28848   0.22673   0.94341   0.00000  Uiso   1.00
H167   H     0.93369   0.78018   0.07780   0.00000  Uiso   1.00
H168   H     0.94606   0.01703   0.89368   0.00000  Uiso   1.00
H169   H     0.55477   0.52305   0.79130   0.00000  Uiso   1.00
H170   H     0.34387   0.47409   0.77258   0.00000  Uiso   1.00
H171   H     0.64986   0.73657   0.83632   0.00000  Uiso   1.00
H172   H     0.65572   0.37466   0.74901   0.00000  Uiso   1.00
H173   H     0.13354   0.39444   0.77706   0.00000  Uiso   1.00
H174   H     0.77877   0.94789   0.91145   0.00000  Uiso   1.00
H175   H     0.79112   0.18473   0.72733   0.00000  Uiso   1.00
O176   O     0.07554   0.27488   0.85144   0.00000  Uiso   1.00
O177   O     0.92206   0.00097   0.02775   0.00000  Uiso   1.00
O178   O     0.93827   0.99973   0.78620   0.00000  Uiso   1.00
N179   N     0.28096   0.27290   0.90682   0.00000  Uiso   1.00
N180   N     0.88418   0.79035   0.03247   0.00000  Uiso   1.00
N181   N     0.89577   0.07688   0.86034   0.00000  Uiso   1.00
N182   N     0.19759   0.36314   0.81731   0.00000  Uiso   1.00
N183   N     0.80081   0.88059   0.94296   0.00000  Uiso   1.00
N184   N     0.81240   0.16712   0.77083   0.00000  Uiso   1.00
