data_job_02804
_audit_creation_date              2018-12-19
_audit_creation_method            'Materials Studio'
_symmetry_space_group_name_H-M    'P1'
_symmetry_Int_Tables_number       1
_symmetry_cell_setting            triclinic
loop_
_symmetry_equiv_pos_as_xyz
  x,y,z
_cell_length_a                    30.9218
_cell_length_b                    12.4980
_cell_length_c                    22.0800
_cell_angle_alpha                 90.0000
_cell_angle_beta                  110.9850
_cell_angle_gamma                 90.0000
loop_
_atom_site_label
_atom_site_type_symbol
_atom_site_fract_x
_atom_site_fract_y
_atom_site_fract_z
_atom_site_U_iso_or_equiv
_atom_site_adp_type
_atom_site_occupancy
C1     C     0.12170   0.30952   0.07602   0.00000  Uiso   1.00
C2     C     0.15986   0.39243   0.10400   0.00000  Uiso   1.00
C3     C     0.15551   0.48809   0.13322   0.00000  Uiso   1.00
C4     C     0.19445   0.55304   0.15570   0.00000  Uiso   1.00
C5     C     0.24734   0.68633   0.20011   0.00000  Uiso   1.00
C6     C     0.11706   0.29405   0.00545   0.00000  Uiso   1.00
C7     C     0.07672   0.30697   0.95182   0.00000  Uiso   1.00
C8     C     0.07964   0.28909   0.89134   0.00000  Uiso   1.00
C9     C     0.06607   0.26956   0.78276   0.00000  Uiso   1.00
C10    C     0.14089   0.20456   0.11034   0.00000  Uiso   1.00
C11    C     0.12059   0.14221   0.14488   0.00000  Uiso   1.00
C12    C     0.14358   0.04896   0.17270   0.00000  Uiso   1.00
C13    C     0.16702   0.89048   0.22697   0.00000  Uiso   1.00
C14    C     0.19861   0.25476   0.06396   0.00000  Uiso   1.00
C15    C     0.20163   0.36269   0.09745   0.00000  Uiso   1.00
C16    C     0.24059   0.42751   0.11989   0.00000  Uiso   1.00
C17    C     0.23630   0.52325   0.14914   0.00000  Uiso   1.00
C18    C     0.15883   0.26431   0.99890   0.00000  Uiso   1.00
C19    C     0.16181   0.24639   0.93849   0.00000  Uiso   1.00
C20    C     0.12149   0.25929   0.88478   0.00000  Uiso   1.00
C21    C     0.18267   0.17481   0.10379   0.00000  Uiso   1.00
C22    C     0.20568   0.08164   0.13155   0.00000  Uiso   1.00
C23    C     0.18542   0.01917   0.16614   0.00000  Uiso   1.00
H24    H     0.08918   0.33267   0.08111   0.00000  Uiso   1.00
H25    H     0.12317   0.51108   0.13827   0.00000  Uiso   1.00
H26    H     0.04440   0.32998   0.95690   0.00000  Uiso   1.00
H27    H     0.08827   0.16525   0.14994   0.00000  Uiso   1.00
H28    H     0.17927   0.69578   0.19874   0.00000  Uiso   1.00
H29    H     0.01317   0.31388   0.81631   0.00000  Uiso   1.00
H30    H     0.10568   0.96652   0.22337   0.00000  Uiso   1.00
H31    H     0.23113   0.23161   0.05887   0.00000  Uiso   1.00
H32    H     0.27292   0.40448   0.11482   0.00000  Uiso   1.00
H33    H     0.19414   0.22338   0.93344   0.00000  Uiso   1.00
H34    H     0.23801   0.05865   0.12648   0.00000  Uiso   1.00
H35    H     0.30081   0.60926   0.17970   0.00000  Uiso   1.00
H36    H     0.13471   0.22736   0.79727   0.00000  Uiso   1.00
H37    H     0.22721   0.88000   0.20433   0.00000  Uiso   1.00
O38    O     0.26496   0.76808   0.22641   0.00000  Uiso   1.00
O39    O     0.04704   0.26702   0.72468   0.00000  Uiso   1.00
O40    O     0.16841   0.81129   0.25873   0.00000  Uiso   1.00
N41    N     0.20215   0.65169   0.18659   0.00000  Uiso   1.00
N42    N     0.04685   0.29465   0.82904   0.00000  Uiso   1.00
N43    N     0.13333   0.96988   0.20959   0.00000  Uiso   1.00
N44    N     0.26755   0.60513   0.17635   0.00000  Uiso   1.00
N45    N     0.11225   0.24809   0.81880   0.00000  Uiso   1.00
N46    N     0.19873   0.92332   0.19935   0.00000  Uiso   1.00
C47    C     0.62170   0.80952   0.07602   0.00000  Uiso   1.00
C48    C     0.65986   0.89243   0.10400   0.00000  Uiso   1.00
C49    C     0.65551   0.98809   0.13322   0.00000  Uiso   1.00
C50    C     0.69445   0.05304   0.15570   0.00000  Uiso   1.00
C51    C     0.74734   0.18633   0.20011   0.00000  Uiso   1.00
C52    C     0.61706   0.79405   0.00545   0.00000  Uiso   1.00
C53    C     0.57672   0.80697   0.95182   0.00000  Uiso   1.00
C54    C     0.57964   0.78909   0.89134   0.00000  Uiso   1.00
C55    C     0.56607   0.76956   0.78276   0.00000  Uiso   1.00
C56    C     0.64089   0.70456   0.11034   0.00000  Uiso   1.00
C57    C     0.62059   0.64221   0.14488   0.00000  Uiso   1.00
C58    C     0.64358   0.54896   0.17270   0.00000  Uiso   1.00
C59    C     0.66702   0.39048   0.22697   0.00000  Uiso   1.00
C60    C     0.69861   0.75476   0.06396   0.00000  Uiso   1.00
C61    C     0.70163   0.86269   0.09745   0.00000  Uiso   1.00
C62    C     0.74059   0.92751   0.11989   0.00000  Uiso   1.00
C63    C     0.73630   0.02325   0.14914   0.00000  Uiso   1.00
C64    C     0.65883   0.76431   0.99890   0.00000  Uiso   1.00
C65    C     0.66181   0.74639   0.93849   0.00000  Uiso   1.00
C66    C     0.62149   0.75929   0.88478   0.00000  Uiso   1.00
C67    C     0.68267   0.67481   0.10379   0.00000  Uiso   1.00
C68    C     0.70568   0.58164   0.13155   0.00000  Uiso   1.00
C69    C     0.68542   0.51917   0.16614   0.00000  Uiso   1.00
H70    H     0.58918   0.83267   0.08111   0.00000  Uiso   1.00
H71    H     0.62317   0.01108   0.13827   0.00000  Uiso   1.00
H72    H     0.54440   0.82998   0.95690   0.00000  Uiso   1.00
H73    H     0.58827   0.66525   0.14994   0.00000  Uiso   1.00
H74    H     0.67927   0.19578   0.19874   0.00000  Uiso   1.00
H75    H     0.51317   0.81388   0.81631   0.00000  Uiso   1.00
H76    H     0.60568   0.46652   0.22337   0.00000  Uiso   1.00
H77    H     0.73113   0.73161   0.05887   0.00000  Uiso   1.00
H78    H     0.77292   0.90448   0.11482   0.00000  Uiso   1.00
H79    H     0.69414   0.72338   0.93344   0.00000  Uiso   1.00
H80    H     0.73801   0.55865   0.12648   0.00000  Uiso   1.00
H81    H     0.80081   0.10926   0.17970   0.00000  Uiso   1.00
H82    H     0.63471   0.72736   0.79727   0.00000  Uiso   1.00
H83    H     0.72721   0.38000   0.20433   0.00000  Uiso   1.00
O84    O     0.76496   0.26808   0.22641   0.00000  Uiso   1.00
O85    O     0.54704   0.76702   0.72468   0.00000  Uiso   1.00
O86    O     0.66841   0.31129   0.25873   0.00000  Uiso   1.00
N87    N     0.70215   0.15169   0.18659   0.00000  Uiso   1.00
N88    N     0.54685   0.79465   0.82904   0.00000  Uiso   1.00
N89    N     0.63333   0.46988   0.20959   0.00000  Uiso   1.00
N90    N     0.76755   0.10513   0.17635   0.00000  Uiso   1.00
N91    N     0.61225   0.74809   0.81880   0.00000  Uiso   1.00
N92    N     0.69873   0.42332   0.19935   0.00000  Uiso   1.00
C93    C     0.87830   0.30952   0.42398   0.00000  Uiso   1.00
C94    C     0.84014   0.39243   0.39600   0.00000  Uiso   1.00
C95    C     0.84449   0.48809   0.36678   0.00000  Uiso   1.00
C96    C     0.80555   0.55304   0.34430   0.00000  Uiso   1.00
C97    C     0.75266   0.68633   0.29989   0.00000  Uiso   1.00
C98    C     0.88294   0.29405   0.49455   0.00000  Uiso   1.00
C99    C     0.92328   0.30697   0.54818   0.00000  Uiso   1.00
C100   C     0.92036   0.28909   0.60866   0.00000  Uiso   1.00
C101   C     0.93393   0.26956   0.71724   0.00000  Uiso   1.00
C102   C     0.85911   0.20456   0.38966   0.00000  Uiso   1.00
C103   C     0.87941   0.14221   0.35512   0.00000  Uiso   1.00
C104   C     0.85642   0.04896   0.32730   0.00000  Uiso   1.00
C105   C     0.83298   0.89048   0.27303   0.00000  Uiso   1.00
C106   C     0.80139   0.25476   0.43604   0.00000  Uiso   1.00
C107   C     0.79837   0.36269   0.40255   0.00000  Uiso   1.00
C108   C     0.75941   0.42751   0.38011   0.00000  Uiso   1.00
C109   C     0.76370   0.52325   0.35086   0.00000  Uiso   1.00
C110   C     0.84117   0.26431   0.50110   0.00000  Uiso   1.00
C111   C     0.83819   0.24639   0.56151   0.00000  Uiso   1.00
C112   C     0.87851   0.25929   0.61522   0.00000  Uiso   1.00
C113   C     0.81733   0.17481   0.39621   0.00000  Uiso   1.00
C114   C     0.79432   0.08164   0.36845   0.00000  Uiso   1.00
C115   C     0.81458   0.01917   0.33386   0.00000  Uiso   1.00
H116   H     0.91082   0.33267   0.41889   0.00000  Uiso   1.00
H117   H     0.87683   0.51108   0.36173   0.00000  Uiso   1.00
H118   H     0.95560   0.32998   0.54310   0.00000  Uiso   1.00
H119   H     0.91173   0.16525   0.35006   0.00000  Uiso   1.00
H120   H     0.82073   0.69578   0.30126   0.00000  Uiso   1.00
H121   H     0.98683   0.31388   0.68369   0.00000  Uiso   1.00
H122   H     0.89432   0.96652   0.27663   0.00000  Uiso   1.00
H123   H     0.76887   0.23161   0.44113   0.00000  Uiso   1.00
H124   H     0.72708   0.40448   0.38518   0.00000  Uiso   1.00
H125   H     0.80586   0.22338   0.56656   0.00000  Uiso   1.00
H126   H     0.76199   0.05865   0.37352   0.00000  Uiso   1.00
H127   H     0.69919   0.60926   0.32030   0.00000  Uiso   1.00
H128   H     0.86529   0.22736   0.70273   0.00000  Uiso   1.00
H129   H     0.77279   0.88000   0.29567   0.00000  Uiso   1.00
O130   O     0.73504   0.76808   0.27359   0.00000  Uiso   1.00
O131   O     0.95296   0.26702   0.77532   0.00000  Uiso   1.00
O132   O     0.83159   0.81129   0.24127   0.00000  Uiso   1.00
N133   N     0.79785   0.65169   0.31341   0.00000  Uiso   1.00
N134   N     0.95315   0.29465   0.67096   0.00000  Uiso   1.00
N135   N     0.86667   0.96988   0.29041   0.00000  Uiso   1.00
N136   N     0.73245   0.60513   0.32365   0.00000  Uiso   1.00
N137   N     0.88775   0.24809   0.68120   0.00000  Uiso   1.00
N138   N     0.80127   0.92332   0.30065   0.00000  Uiso   1.00
C139   C     0.37830   0.80952   0.42398   0.00000  Uiso   1.00
C140   C     0.34014   0.89243   0.39600   0.00000  Uiso   1.00
C141   C     0.34449   0.98809   0.36678   0.00000  Uiso   1.00
C142   C     0.30555   0.05304   0.34430   0.00000  Uiso   1.00
C143   C     0.25266   0.18633   0.29989   0.00000  Uiso   1.00
C144   C     0.38294   0.79405   0.49455   0.00000  Uiso   1.00
C145   C     0.42328   0.80697   0.54818   0.00000  Uiso   1.00
C146   C     0.42036   0.78909   0.60866   0.00000  Uiso   1.00
C147   C     0.43393   0.76956   0.71724   0.00000  Uiso   1.00
C148   C     0.35911   0.70456   0.38966   0.00000  Uiso   1.00
C149   C     0.37941   0.64221   0.35512   0.00000  Uiso   1.00
C150   C     0.35642   0.54896   0.32730   0.00000  Uiso   1.00
C151   C     0.33298   0.39048   0.27303   0.00000  Uiso   1.00
C152   C     0.30139   0.75476   0.43604   0.00000  Uiso   1.00
C153   C     0.29837   0.86269   0.40255   0.00000  Uiso   1.00
C154   C     0.25941   0.92751   0.38011   0.00000  Uiso   1.00
C155   C     0.26370   0.02325   0.35086   0.00000  Uiso   1.00
C156   C     0.34117   0.76431   0.50110   0.00000  Uiso   1.00
C157   C     0.33819   0.74639   0.56151   0.00000  Uiso   1.00
C158   C     0.37851   0.75929   0.61522   0.00000  Uiso   1.00
C159   C     0.31733   0.67481   0.39621   0.00000  Uiso   1.00
C160   C     0.29432   0.58164   0.36845   0.00000  Uiso   1.00
C161   C     0.31458   0.51917   0.33386   0.00000  Uiso   1.00
H162   H     0.41082   0.83267   0.41889   0.00000  Uiso   1.00
H163   H     0.37683   0.01108   0.36173   0.00000  Uiso   1.00
H164   H     0.45560   0.82998   0.54310   0.00000  Uiso   1.00
H165   H     0.41173   0.66525   0.35006   0.00000  Uiso   1.00
H166   H     0.32073   0.19578   0.30126   0.00000  Uiso   1.00
H167   H     0.48683   0.81388   0.68369   0.00000  Uiso   1.00
H168   H     0.39432   0.46652   0.27663   0.00000  Uiso   1.00
H169   H     0.26887   0.73161   0.44113   0.00000  Uiso   1.00
H170   H     0.22708   0.90448   0.38518   0.00000  Uiso   1.00
H171   H     0.30586   0.72338   0.56656   0.00000  Uiso   1.00
H172   H     0.26199   0.55865   0.37352   0.00000  Uiso   1.00
H173   H     0.19919   0.10926   0.32030   0.00000  Uiso   1.00
H174   H     0.36529   0.72736   0.70273   0.00000  Uiso   1.00
H175   H     0.27279   0.38000   0.29567   0.00000  Uiso   1.00
O176   O     0.23504   0.26808   0.27359   0.00000  Uiso   1.00
O177   O     0.45296   0.76702   0.77532   0.00000  Uiso   1.00
O178   O     0.33159   0.31129   0.24127   0.00000  Uiso   1.00
N179   N     0.29785   0.15169   0.31341   0.00000  Uiso   1.00
N180   N     0.45315   0.79465   0.67096   0.00000  Uiso   1.00
N181   N     0.36667   0.46988   0.29041   0.00000  Uiso   1.00
N182   N     0.23245   0.10513   0.32365   0.00000  Uiso   1.00
N183   N     0.38775   0.74809   0.68120   0.00000  Uiso   1.00
N184   N     0.30127   0.42332   0.30065   0.00000  Uiso   1.00
C185   C     0.87830   0.69048   0.92398   0.00000  Uiso   1.00
C186   C     0.84014   0.60757   0.89600   0.00000  Uiso   1.00
C187   C     0.84449   0.51191   0.86678   0.00000  Uiso   1.00
C188   C     0.80555   0.44696   0.84430   0.00000  Uiso   1.00
C189   C     0.75266   0.31367   0.79989   0.00000  Uiso   1.00
C190   C     0.88294   0.70595   0.99455   0.00000  Uiso   1.00
C191   C     0.92328   0.69303   0.04818   0.00000  Uiso   1.00
C192   C     0.92036   0.71091   0.10866   0.00000  Uiso   1.00
C193   C     0.93393   0.73044   0.21724   0.00000  Uiso   1.00
C194   C     0.85911   0.79544   0.88966   0.00000  Uiso   1.00
C195   C     0.87941   0.85779   0.85512   0.00000  Uiso   1.00
C196   C     0.85642   0.95104   0.82730   0.00000  Uiso   1.00
C197   C     0.83298   0.10952   0.77303   0.00000  Uiso   1.00
C198   C     0.80139   0.74524   0.93604   0.00000  Uiso   1.00
C199   C     0.79837   0.63731   0.90255   0.00000  Uiso   1.00
C200   C     0.75941   0.57249   0.88011   0.00000  Uiso   1.00
C201   C     0.76370   0.47675   0.85086   0.00000  Uiso   1.00
C202   C     0.84117   0.73569   0.00110   0.00000  Uiso   1.00
C203   C     0.83819   0.75361   0.06151   0.00000  Uiso   1.00
C204   C     0.87851   0.74071   0.11522   0.00000  Uiso   1.00
C205   C     0.81733   0.82519   0.89621   0.00000  Uiso   1.00
C206   C     0.79432   0.91836   0.86845   0.00000  Uiso   1.00
C207   C     0.81458   0.98083   0.83386   0.00000  Uiso   1.00
H208   H     0.91082   0.66733   0.91889   0.00000  Uiso   1.00
H209   H     0.87683   0.48892   0.86173   0.00000  Uiso   1.00
H210   H     0.95560   0.67002   0.04310   0.00000  Uiso   1.00
H211   H     0.91173   0.83475   0.85006   0.00000  Uiso   1.00
H212   H     0.82073   0.30422   0.80126   0.00000  Uiso   1.00
H213   H     0.98683   0.68612   0.18369   0.00000  Uiso   1.00
H214   H     0.89432   0.03348   0.77663   0.00000  Uiso   1.00
H215   H     0.76887   0.76839   0.94113   0.00000  Uiso   1.00
H216   H     0.72708   0.59552   0.88518   0.00000  Uiso   1.00
H217   H     0.80586   0.77662   0.06656   0.00000  Uiso   1.00
H218   H     0.76199   0.94135   0.87352   0.00000  Uiso   1.00
H219   H     0.69919   0.39074   0.82030   0.00000  Uiso   1.00
H220   H     0.86529   0.77264   0.20273   0.00000  Uiso   1.00
H221   H     0.77279   0.12000   0.79567   0.00000  Uiso   1.00
O222   O     0.73504   0.23192   0.77359   0.00000  Uiso   1.00
O223   O     0.95296   0.73298   0.27532   0.00000  Uiso   1.00
O224   O     0.83159   0.18871   0.74127   0.00000  Uiso   1.00
N225   N     0.79785   0.34831   0.81341   0.00000  Uiso   1.00
N226   N     0.95315   0.70535   0.17096   0.00000  Uiso   1.00
N227   N     0.86667   0.03012   0.79041   0.00000  Uiso   1.00
N228   N     0.73245   0.39487   0.82365   0.00000  Uiso   1.00
N229   N     0.88775   0.75191   0.18120   0.00000  Uiso   1.00
N230   N     0.80127   0.07668   0.80065   0.00000  Uiso   1.00
C231   C     0.37830   0.19048   0.92398   0.00000  Uiso   1.00
C232   C     0.34014   0.10757   0.89600   0.00000  Uiso   1.00
C233   C     0.34449   0.01191   0.86678   0.00000  Uiso   1.00
C234   C     0.30555   0.94696   0.84430   0.00000  Uiso   1.00
C235   C     0.25266   0.81367   0.79989   0.00000  Uiso   1.00
C236   C     0.38294   0.20595   0.99455   0.00000  Uiso   1.00
C237   C     0.42328   0.19303   0.04818   0.00000  Uiso   1.00
C238   C     0.42036   0.21091   0.10866   0.00000  Uiso   1.00
C239   C     0.43393   0.23044   0.21724   0.00000  Uiso   1.00
C240   C     0.35911   0.29544   0.88966   0.00000  Uiso   1.00
C241   C     0.37941   0.35779   0.85512   0.00000  Uiso   1.00
C242   C     0.35642   0.45104   0.82730   0.00000  Uiso   1.00
C243   C     0.33298   0.60952   0.77303   0.00000  Uiso   1.00
C244   C     0.30139   0.24524   0.93604   0.00000  Uiso   1.00
C245   C     0.29837   0.13731   0.90255   0.00000  Uiso   1.00
C246   C     0.25941   0.07249   0.88011   0.00000  Uiso   1.00
C247   C     0.26370   0.97675   0.85086   0.00000  Uiso   1.00
C248   C     0.34117   0.23569   0.00110   0.00000  Uiso   1.00
C249   C     0.33819   0.25361   0.06151   0.00000  Uiso   1.00
C250   C     0.37851   0.24071   0.11522   0.00000  Uiso   1.00
C251   C     0.31733   0.32519   0.89621   0.00000  Uiso   1.00
C252   C     0.29432   0.41836   0.86845   0.00000  Uiso   1.00
C253   C     0.31458   0.48083   0.83386   0.00000  Uiso   1.00
H254   H     0.41082   0.16733   0.91889   0.00000  Uiso   1.00
H255   H     0.37683   0.98892   0.86173   0.00000  Uiso   1.00
H256   H     0.45560   0.17002   0.04310   0.00000  Uiso   1.00
H257   H     0.41173   0.33475   0.85006   0.00000  Uiso   1.00
H258   H     0.32073   0.80422   0.80126   0.00000  Uiso   1.00
H259   H     0.48683   0.18612   0.18369   0.00000  Uiso   1.00
H260   H     0.39432   0.53348   0.77663   0.00000  Uiso   1.00
H261   H     0.26887   0.26839   0.94113   0.00000  Uiso   1.00
H262   H     0.22708   0.09552   0.88518   0.00000  Uiso   1.00
H263   H     0.30586   0.27662   0.06656   0.00000  Uiso   1.00
H264   H     0.26199   0.44135   0.87352   0.00000  Uiso   1.00
H265   H     0.19919   0.89074   0.82030   0.00000  Uiso   1.00
H266   H     0.36529   0.27264   0.20273   0.00000  Uiso   1.00
H267   H     0.27279   0.62000   0.79567   0.00000  Uiso   1.00
O268   O     0.23504   0.73192   0.77359   0.00000  Uiso   1.00
O269   O     0.45296   0.23298   0.27532   0.00000  Uiso   1.00
O270   O     0.33159   0.68871   0.74127   0.00000  Uiso   1.00
N271   N     0.29785   0.84831   0.81341   0.00000  Uiso   1.00
N272   N     0.45315   0.20535   0.17096   0.00000  Uiso   1.00
N273   N     0.36667   0.53012   0.79041   0.00000  Uiso   1.00
N274   N     0.23245   0.89487   0.82365   0.00000  Uiso   1.00
N275   N     0.38775   0.25191   0.18120   0.00000  Uiso   1.00
N276   N     0.30127   0.57668   0.80065   0.00000  Uiso   1.00
C277   C     0.12170   0.69048   0.57602   0.00000  Uiso   1.00
C278   C     0.15986   0.60757   0.60400   0.00000  Uiso   1.00
C279   C     0.15551   0.51191   0.63322   0.00000  Uiso   1.00
C280   C     0.19445   0.44696   0.65570   0.00000  Uiso   1.00
C281   C     0.24734   0.31367   0.70011   0.00000  Uiso   1.00
C282   C     0.11706   0.70595   0.50545   0.00000  Uiso   1.00
C283   C     0.07672   0.69303   0.45182   0.00000  Uiso   1.00
C284   C     0.07964   0.71091   0.39134   0.00000  Uiso   1.00
C285   C     0.06607   0.73044   0.28276   0.00000  Uiso   1.00
C286   C     0.14089   0.79544   0.61034   0.00000  Uiso   1.00
C287   C     0.12059   0.85779   0.64488   0.00000  Uiso   1.00
C288   C     0.14358   0.95104   0.67270   0.00000  Uiso   1.00
C289   C     0.16702   0.10952   0.72697   0.00000  Uiso   1.00
C290   C     0.19861   0.74524   0.56396   0.00000  Uiso   1.00
C291   C     0.20163   0.63731   0.59745   0.00000  Uiso   1.00
C292   C     0.24059   0.57249   0.61989   0.00000  Uiso   1.00
C293   C     0.23630   0.47675   0.64914   0.00000  Uiso   1.00
C294   C     0.15883   0.73569   0.49890   0.00000  Uiso   1.00
C295   C     0.16181   0.75361   0.43849   0.00000  Uiso   1.00
C296   C     0.12149   0.74071   0.38478   0.00000  Uiso   1.00
C297   C     0.18267   0.82519   0.60379   0.00000  Uiso   1.00
C298   C     0.20568   0.91836   0.63155   0.00000  Uiso   1.00
C299   C     0.18542   0.98083   0.66614   0.00000  Uiso   1.00
H300   H     0.08918   0.66733   0.58111   0.00000  Uiso   1.00
H301   H     0.12317   0.48892   0.63827   0.00000  Uiso   1.00
H302   H     0.04440   0.67002   0.45690   0.00000  Uiso   1.00
H303   H     0.08827   0.83475   0.64994   0.00000  Uiso   1.00
H304   H     0.17927   0.30422   0.69874   0.00000  Uiso   1.00
H305   H     0.01317   0.68612   0.31631   0.00000  Uiso   1.00
H306   H     0.10568   0.03348   0.72337   0.00000  Uiso   1.00
H307   H     0.23113   0.76839   0.55887   0.00000  Uiso   1.00
H308   H     0.27292   0.59552   0.61482   0.00000  Uiso   1.00
H309   H     0.19414   0.77662   0.43344   0.00000  Uiso   1.00
H310   H     0.23801   0.94135   0.62648   0.00000  Uiso   1.00
H311   H     0.30081   0.39074   0.67970   0.00000  Uiso   1.00
H312   H     0.13471   0.77264   0.29727   0.00000  Uiso   1.00
H313   H     0.22721   0.12000   0.70433   0.00000  Uiso   1.00
O314   O     0.26496   0.23192   0.72641   0.00000  Uiso   1.00
O315   O     0.04704   0.73298   0.22468   0.00000  Uiso   1.00
O316   O     0.16841   0.18871   0.75873   0.00000  Uiso   1.00
N317   N     0.20215   0.34831   0.68659   0.00000  Uiso   1.00
N318   N     0.04685   0.70535   0.32904   0.00000  Uiso   1.00
N319   N     0.13333   0.03012   0.70959   0.00000  Uiso   1.00
N320   N     0.26755   0.39487   0.67635   0.00000  Uiso   1.00
N321   N     0.11225   0.75191   0.31880   0.00000  Uiso   1.00
N322   N     0.19873   0.07668   0.69935   0.00000  Uiso   1.00
C323   C     0.62170   0.19048   0.57602   0.00000  Uiso   1.00
C324   C     0.65986   0.10757   0.60400   0.00000  Uiso   1.00
C325   C     0.65551   0.01191   0.63322   0.00000  Uiso   1.00
C326   C     0.69445   0.94696   0.65570   0.00000  Uiso   1.00
C327   C     0.74734   0.81367   0.70011   0.00000  Uiso   1.00
C328   C     0.61706   0.20595   0.50545   0.00000  Uiso   1.00
C329   C     0.57672   0.19303   0.45182   0.00000  Uiso   1.00
C330   C     0.57964   0.21091   0.39134   0.00000  Uiso   1.00
C331   C     0.56607   0.23044   0.28276   0.00000  Uiso   1.00
C332   C     0.64089   0.29544   0.61034   0.00000  Uiso   1.00
C333   C     0.62059   0.35779   0.64488   0.00000  Uiso   1.00
C334   C     0.64358   0.45104   0.67270   0.00000  Uiso   1.00
C335   C     0.66702   0.60952   0.72697   0.00000  Uiso   1.00
C336   C     0.69861   0.24524   0.56396   0.00000  Uiso   1.00
C337   C     0.70163   0.13731   0.59745   0.00000  Uiso   1.00
C338   C     0.74059   0.07249   0.61989   0.00000  Uiso   1.00
C339   C     0.73630   0.97675   0.64914   0.00000  Uiso   1.00
C340   C     0.65883   0.23569   0.49890   0.00000  Uiso   1.00
C341   C     0.66181   0.25361   0.43849   0.00000  Uiso   1.00
C342   C     0.62149   0.24071   0.38478   0.00000  Uiso   1.00
C343   C     0.68267   0.32519   0.60379   0.00000  Uiso   1.00
C344   C     0.70568   0.41836   0.63155   0.00000  Uiso   1.00
C345   C     0.68542   0.48083   0.66614   0.00000  Uiso   1.00
H346   H     0.58918   0.16733   0.58111   0.00000  Uiso   1.00
H347   H     0.62317   0.98892   0.63827   0.00000  Uiso   1.00
H348   H     0.54440   0.17002   0.45690   0.00000  Uiso   1.00
H349   H     0.58827   0.33475   0.64994   0.00000  Uiso   1.00
H350   H     0.67927   0.80422   0.69874   0.00000  Uiso   1.00
H351   H     0.51317   0.18612   0.31631   0.00000  Uiso   1.00
H352   H     0.60568   0.53348   0.72337   0.00000  Uiso   1.00
H353   H     0.73113   0.26839   0.55887   0.00000  Uiso   1.00
H354   H     0.77292   0.09552   0.61482   0.00000  Uiso   1.00
H355   H     0.69414   0.27662   0.43344   0.00000  Uiso   1.00
H356   H     0.73801   0.44135   0.62648   0.00000  Uiso   1.00
H357   H     0.80081   0.89074   0.67970   0.00000  Uiso   1.00
H358   H     0.63471   0.27264   0.29727   0.00000  Uiso   1.00
H359   H     0.72721   0.62000   0.70433   0.00000  Uiso   1.00
O360   O     0.76496   0.73192   0.72641   0.00000  Uiso   1.00
O361   O     0.54704   0.23298   0.22468   0.00000  Uiso   1.00
O362   O     0.66841   0.68871   0.75873   0.00000  Uiso   1.00
N363   N     0.70215   0.84831   0.68659   0.00000  Uiso   1.00
N364   N     0.54685   0.20535   0.32904   0.00000  Uiso   1.00
N365   N     0.63333   0.53012   0.70959   0.00000  Uiso   1.00
N366   N     0.76755   0.89487   0.67635   0.00000  Uiso   1.00
N367   N     0.61225   0.25191   0.31880   0.00000  Uiso   1.00
N368   N     0.69873   0.57668   0.69935   0.00000  Uiso   1.00
