data_job_02547
_audit_creation_date              2018-12-19
_audit_creation_method            'Materials Studio'
_symmetry_space_group_name_H-M    'P1'
_symmetry_Int_Tables_number       1
_symmetry_cell_setting            triclinic
loop_
_symmetry_equiv_pos_as_xyz
  x,y,z
_cell_length_a                    26.6683
_cell_length_b                    12.5882
_cell_length_c                    14.9479
_cell_angle_alpha                 90.0000
_cell_angle_beta                  90.0000
_cell_angle_gamma                 90.0000
loop_
_atom_site_label
_atom_site_type_symbol
_atom_site_fract_x
_atom_site_fract_y
_atom_site_fract_z
_atom_site_U_iso_or_equiv
_atom_site_adp_type
_atom_site_occupancy
C1     C     0.36112   0.32024   0.76227   0.00000  Uiso   1.00
C2     C     0.38091   0.35185   0.85421   0.00000  Uiso   1.00
C3     C     0.40487   0.44659   0.87485   0.00000  Uiso   1.00
C4     C     0.42017   0.46041   0.96287   0.00000  Uiso   1.00
C5     C     0.45219   0.52136   0.09573   0.00000  Uiso   1.00
C6     C     0.38624   0.21484   0.73949   0.00000  Uiso   1.00
C7     C     0.41469   0.19438   0.66367   0.00000  Uiso   1.00
C8     C     0.43447   0.09286   0.65512   0.00000  Uiso   1.00
C9     C     0.47475   0.94107   0.60985   0.00000  Uiso   1.00
C10    C     0.30561   0.29541   0.77507   0.00000  Uiso   1.00
C11    C     0.26627   0.34267   0.72916   0.00000  Uiso   1.00
C12    C     0.21816   0.30897   0.75054   0.00000  Uiso   1.00
C13    C     0.13326   0.28228   0.76052   0.00000  Uiso   1.00
C14    C     0.34566   0.17633   0.88187   0.00000  Uiso   1.00
C15    C     0.37251   0.27368   0.91916   0.00000  Uiso   1.00
C16    C     0.38777   0.28737   0.00717   0.00000  Uiso   1.00
C17    C     0.41175   0.38211   0.02795   0.00000  Uiso   1.00
C18    C     0.37785   0.13668   0.80445   0.00000  Uiso   1.00
C19    C     0.39759   0.03516   0.79600   0.00000  Uiso   1.00
C20    C     0.42606   0.01455   0.72019   0.00000  Uiso   1.00
C21    C     0.29722   0.21725   0.84003   0.00000  Uiso   1.00
C22    C     0.24917   0.18346   0.86148   0.00000  Uiso   1.00
C23    C     0.20975   0.23066   0.81562   0.00000  Uiso   1.00
H24    H     0.36765   0.38109   0.71169   0.00000  Uiso   1.00
H25    H     0.41137   0.50705   0.82456   0.00000  Uiso   1.00
H26    H     0.42118   0.25488   0.61341   0.00000  Uiso   1.00
H27    H     0.27278   0.40315   0.67889   0.00000  Uiso   1.00
H28    H     0.45614   0.61222   0.97833   0.00000  Uiso   1.00
H29    H     0.47682   0.08049   0.53311   0.00000  Uiso   1.00
H30    H     0.16388   0.39315   0.67118   0.00000  Uiso   1.00
H31    H     0.33912   0.11547   0.93244   0.00000  Uiso   1.00
H32    H     0.38127   0.22687   0.05743   0.00000  Uiso   1.00
H33    H     0.39108   0.97469   0.84628   0.00000  Uiso   1.00
H34    H     0.24268   0.12297   0.91176   0.00000  Uiso   1.00
H35    H     0.43172   0.38480   0.16734   0.00000  Uiso   1.00
H36    H     0.45239   0.85307   0.72210   0.00000  Uiso   1.00
H37    H     0.13946   0.16574   0.86018   0.00000  Uiso   1.00
O38    O     0.47218   0.57656   0.15107   0.00000  Uiso   1.00
O39    O     0.49930   0.87895   0.56693   0.00000  Uiso   1.00
O40    O     0.08874   0.28916   0.74808   0.00000  Uiso   1.00
N41    N     0.44460   0.54342   0.00567   0.00000  Uiso   1.00
N42    N     0.46394   0.04629   0.58941   0.00000  Uiso   1.00
N43    N     0.17137   0.33858   0.71848   0.00000  Uiso   1.00
N44    N     0.43146   0.42105   0.10737   0.00000  Uiso   1.00
N45    N     0.45079   0.92392   0.69111   0.00000  Uiso   1.00
N46    N     0.15823   0.21621   0.82018   0.00000  Uiso   1.00
C47    C     0.13888   0.67976   0.76227   0.00000  Uiso   1.00
C48    C     0.11909   0.64815   0.85421   0.00000  Uiso   1.00
C49    C     0.09513   0.55341   0.87485   0.00000  Uiso   1.00
C50    C     0.07983   0.53959   0.96287   0.00000  Uiso   1.00
C51    C     0.04781   0.47864   0.09573   0.00000  Uiso   1.00
C52    C     0.11376   0.78516   0.73949   0.00000  Uiso   1.00
C53    C     0.08531   0.80562   0.66367   0.00000  Uiso   1.00
C54    C     0.06553   0.90714   0.65512   0.00000  Uiso   1.00
C55    C     0.02525   0.05893   0.60985   0.00000  Uiso   1.00
C56    C     0.19439   0.70459   0.77507   0.00000  Uiso   1.00
C57    C     0.23373   0.65733   0.72916   0.00000  Uiso   1.00
C58    C     0.28184   0.69103   0.75054   0.00000  Uiso   1.00
C59    C     0.36674   0.71772   0.76052   0.00000  Uiso   1.00
C60    C     0.15434   0.82367   0.88187   0.00000  Uiso   1.00
C61    C     0.12749   0.72632   0.91916   0.00000  Uiso   1.00
C62    C     0.11223   0.71263   0.00717   0.00000  Uiso   1.00
C63    C     0.08825   0.61789   0.02795   0.00000  Uiso   1.00
C64    C     0.12215   0.86332   0.80445   0.00000  Uiso   1.00
C65    C     0.10241   0.96484   0.79600   0.00000  Uiso   1.00
C66    C     0.07394   0.98545   0.72019   0.00000  Uiso   1.00
C67    C     0.20278   0.78275   0.84003   0.00000  Uiso   1.00
C68    C     0.25083   0.81654   0.86148   0.00000  Uiso   1.00
C69    C     0.29025   0.76934   0.81562   0.00000  Uiso   1.00
H70    H     0.13235   0.61891   0.71169   0.00000  Uiso   1.00
H71    H     0.08863   0.49295   0.82456   0.00000  Uiso   1.00
H72    H     0.07882   0.74512   0.61341   0.00000  Uiso   1.00
H73    H     0.22722   0.59685   0.67889   0.00000  Uiso   1.00
H74    H     0.04386   0.38778   0.97833   0.00000  Uiso   1.00
H75    H     0.02318   0.91951   0.53311   0.00000  Uiso   1.00
H76    H     0.33612   0.60685   0.67118   0.00000  Uiso   1.00
H77    H     0.16088   0.88453   0.93244   0.00000  Uiso   1.00
H78    H     0.11873   0.77313   0.05743   0.00000  Uiso   1.00
H79    H     0.10892   0.02531   0.84628   0.00000  Uiso   1.00
H80    H     0.25732   0.87703   0.91176   0.00000  Uiso   1.00
H81    H     0.06828   0.61520   0.16734   0.00000  Uiso   1.00
H82    H     0.04761   0.14693   0.72210   0.00000  Uiso   1.00
H83    H     0.36054   0.83426   0.86018   0.00000  Uiso   1.00
O84    O     0.02782   0.42344   0.15107   0.00000  Uiso   1.00
O85    O     0.00070   0.12105   0.56693   0.00000  Uiso   1.00
O86    O     0.41126   0.71084   0.74808   0.00000  Uiso   1.00
N87    N     0.05540   0.45658   0.00567   0.00000  Uiso   1.00
N88    N     0.03606   0.95371   0.58941   0.00000  Uiso   1.00
N89    N     0.32863   0.66142   0.71848   0.00000  Uiso   1.00
N90    N     0.06854   0.57895   0.10737   0.00000  Uiso   1.00
N91    N     0.04921   0.07608   0.69111   0.00000  Uiso   1.00
N92    N     0.34177   0.78379   0.82018   0.00000  Uiso   1.00
C93    C     0.63888   0.32024   0.73773   0.00000  Uiso   1.00
C94    C     0.61909   0.35185   0.64579   0.00000  Uiso   1.00
C95    C     0.59513   0.44659   0.62515   0.00000  Uiso   1.00
C96    C     0.57983   0.46041   0.53713   0.00000  Uiso   1.00
C97    C     0.54781   0.52136   0.40427   0.00000  Uiso   1.00
C98    C     0.61376   0.21484   0.76051   0.00000  Uiso   1.00
C99    C     0.58531   0.19438   0.83633   0.00000  Uiso   1.00
C100   C     0.56553   0.09286   0.84488   0.00000  Uiso   1.00
C101   C     0.52525   0.94107   0.89015   0.00000  Uiso   1.00
C102   C     0.69439   0.29541   0.72493   0.00000  Uiso   1.00
C103   C     0.73373   0.34267   0.77084   0.00000  Uiso   1.00
C104   C     0.78184   0.30897   0.74946   0.00000  Uiso   1.00
C105   C     0.86674   0.28228   0.73948   0.00000  Uiso   1.00
C106   C     0.65434   0.17633   0.61813   0.00000  Uiso   1.00
C107   C     0.62749   0.27368   0.58084   0.00000  Uiso   1.00
C108   C     0.61223   0.28737   0.49283   0.00000  Uiso   1.00
C109   C     0.58825   0.38211   0.47205   0.00000  Uiso   1.00
C110   C     0.62215   0.13668   0.69555   0.00000  Uiso   1.00
C111   C     0.60241   0.03516   0.70400   0.00000  Uiso   1.00
C112   C     0.57394   0.01455   0.77981   0.00000  Uiso   1.00
C113   C     0.70278   0.21725   0.65997   0.00000  Uiso   1.00
C114   C     0.75083   0.18346   0.63852   0.00000  Uiso   1.00
C115   C     0.79025   0.23066   0.68438   0.00000  Uiso   1.00
H116   H     0.63235   0.38109   0.78831   0.00000  Uiso   1.00
H117   H     0.58863   0.50705   0.67544   0.00000  Uiso   1.00
H118   H     0.57882   0.25488   0.88659   0.00000  Uiso   1.00
H119   H     0.72722   0.40315   0.82111   0.00000  Uiso   1.00
H120   H     0.54386   0.61222   0.52167   0.00000  Uiso   1.00
H121   H     0.52318   0.08049   0.96689   0.00000  Uiso   1.00
H122   H     0.83612   0.39315   0.82882   0.00000  Uiso   1.00
H123   H     0.66088   0.11547   0.56756   0.00000  Uiso   1.00
H124   H     0.61873   0.22687   0.44257   0.00000  Uiso   1.00
H125   H     0.60892   0.97469   0.65372   0.00000  Uiso   1.00
H126   H     0.75732   0.12297   0.58824   0.00000  Uiso   1.00
H127   H     0.56828   0.38480   0.33266   0.00000  Uiso   1.00
H128   H     0.54761   0.85307   0.77790   0.00000  Uiso   1.00
H129   H     0.86054   0.16574   0.63982   0.00000  Uiso   1.00
O130   O     0.52782   0.57656   0.34893   0.00000  Uiso   1.00
O131   O     0.50070   0.87895   0.93307   0.00000  Uiso   1.00
O132   O     0.91126   0.28916   0.75192   0.00000  Uiso   1.00
N133   N     0.55540   0.54342   0.49433   0.00000  Uiso   1.00
N134   N     0.53606   0.04629   0.91059   0.00000  Uiso   1.00
N135   N     0.82863   0.33858   0.78152   0.00000  Uiso   1.00
N136   N     0.56854   0.42105   0.39263   0.00000  Uiso   1.00
N137   N     0.54921   0.92392   0.80889   0.00000  Uiso   1.00
N138   N     0.84177   0.21621   0.67982   0.00000  Uiso   1.00
C139   C     0.86112   0.67976   0.73773   0.00000  Uiso   1.00
C140   C     0.88091   0.64815   0.64579   0.00000  Uiso   1.00
C141   C     0.90487   0.55341   0.62515   0.00000  Uiso   1.00
C142   C     0.92017   0.53959   0.53713   0.00000  Uiso   1.00
C143   C     0.95219   0.47864   0.40427   0.00000  Uiso   1.00
C144   C     0.88624   0.78516   0.76051   0.00000  Uiso   1.00
C145   C     0.91469   0.80562   0.83633   0.00000  Uiso   1.00
C146   C     0.93447   0.90714   0.84488   0.00000  Uiso   1.00
C147   C     0.97475   0.05893   0.89015   0.00000  Uiso   1.00
C148   C     0.80561   0.70459   0.72493   0.00000  Uiso   1.00
C149   C     0.76627   0.65733   0.77084   0.00000  Uiso   1.00
C150   C     0.71816   0.69103   0.74946   0.00000  Uiso   1.00
C151   C     0.63326   0.71772   0.73948   0.00000  Uiso   1.00
C152   C     0.84566   0.82367   0.61813   0.00000  Uiso   1.00
C153   C     0.87251   0.72632   0.58084   0.00000  Uiso   1.00
C154   C     0.88777   0.71263   0.49283   0.00000  Uiso   1.00
C155   C     0.91175   0.61789   0.47205   0.00000  Uiso   1.00
C156   C     0.87785   0.86332   0.69555   0.00000  Uiso   1.00
C157   C     0.89759   0.96484   0.70400   0.00000  Uiso   1.00
C158   C     0.92606   0.98545   0.77981   0.00000  Uiso   1.00
C159   C     0.79722   0.78275   0.65997   0.00000  Uiso   1.00
C160   C     0.74917   0.81654   0.63852   0.00000  Uiso   1.00
C161   C     0.70975   0.76934   0.68438   0.00000  Uiso   1.00
H162   H     0.86765   0.61891   0.78831   0.00000  Uiso   1.00
H163   H     0.91137   0.49295   0.67544   0.00000  Uiso   1.00
H164   H     0.92118   0.74512   0.88659   0.00000  Uiso   1.00
H165   H     0.77278   0.59685   0.82111   0.00000  Uiso   1.00
H166   H     0.95614   0.38778   0.52167   0.00000  Uiso   1.00
H167   H     0.97682   0.91951   0.96689   0.00000  Uiso   1.00
H168   H     0.66388   0.60685   0.82882   0.00000  Uiso   1.00
H169   H     0.83912   0.88453   0.56756   0.00000  Uiso   1.00
H170   H     0.88127   0.77313   0.44257   0.00000  Uiso   1.00
H171   H     0.89108   0.02531   0.65372   0.00000  Uiso   1.00
H172   H     0.74268   0.87703   0.58824   0.00000  Uiso   1.00
H173   H     0.93172   0.61520   0.33266   0.00000  Uiso   1.00
H174   H     0.95239   0.14693   0.77790   0.00000  Uiso   1.00
H175   H     0.63946   0.83426   0.63982   0.00000  Uiso   1.00
O176   O     0.97218   0.42344   0.34893   0.00000  Uiso   1.00
O177   O     0.99930   0.12105   0.93307   0.00000  Uiso   1.00
O178   O     0.58874   0.71084   0.75192   0.00000  Uiso   1.00
N179   N     0.94460   0.45658   0.49433   0.00000  Uiso   1.00
N180   N     0.96394   0.95371   0.91059   0.00000  Uiso   1.00
N181   N     0.67137   0.66142   0.78152   0.00000  Uiso   1.00
N182   N     0.93146   0.57895   0.39263   0.00000  Uiso   1.00
N183   N     0.95079   0.07608   0.80889   0.00000  Uiso   1.00
N184   N     0.65823   0.78379   0.67982   0.00000  Uiso   1.00
C185   C     0.63888   0.67976   0.23773   0.00000  Uiso   1.00
C186   C     0.61909   0.64815   0.14579   0.00000  Uiso   1.00
C187   C     0.59513   0.55341   0.12515   0.00000  Uiso   1.00
C188   C     0.57983   0.53959   0.03713   0.00000  Uiso   1.00
C189   C     0.54781   0.47864   0.90427   0.00000  Uiso   1.00
C190   C     0.61376   0.78516   0.26051   0.00000  Uiso   1.00
C191   C     0.58531   0.80562   0.33633   0.00000  Uiso   1.00
C192   C     0.56553   0.90714   0.34488   0.00000  Uiso   1.00
C193   C     0.52525   0.05893   0.39015   0.00000  Uiso   1.00
C194   C     0.69439   0.70459   0.22493   0.00000  Uiso   1.00
C195   C     0.73373   0.65733   0.27084   0.00000  Uiso   1.00
C196   C     0.78184   0.69103   0.24946   0.00000  Uiso   1.00
C197   C     0.86674   0.71772   0.23948   0.00000  Uiso   1.00
C198   C     0.65434   0.82367   0.11813   0.00000  Uiso   1.00
C199   C     0.62749   0.72632   0.08084   0.00000  Uiso   1.00
C200   C     0.61223   0.71263   0.99283   0.00000  Uiso   1.00
C201   C     0.58825   0.61789   0.97205   0.00000  Uiso   1.00
C202   C     0.62215   0.86332   0.19555   0.00000  Uiso   1.00
C203   C     0.60241   0.96484   0.20400   0.00000  Uiso   1.00
C204   C     0.57394   0.98545   0.27981   0.00000  Uiso   1.00
C205   C     0.70278   0.78275   0.15997   0.00000  Uiso   1.00
C206   C     0.75083   0.81654   0.13852   0.00000  Uiso   1.00
C207   C     0.79025   0.76934   0.18438   0.00000  Uiso   1.00
H208   H     0.63235   0.61891   0.28831   0.00000  Uiso   1.00
H209   H     0.58863   0.49295   0.17544   0.00000  Uiso   1.00
H210   H     0.57882   0.74512   0.38659   0.00000  Uiso   1.00
H211   H     0.72722   0.59685   0.32111   0.00000  Uiso   1.00
H212   H     0.54386   0.38778   0.02167   0.00000  Uiso   1.00
H213   H     0.52318   0.91951   0.46689   0.00000  Uiso   1.00
H214   H     0.83612   0.60685   0.32882   0.00000  Uiso   1.00
H215   H     0.66088   0.88453   0.06756   0.00000  Uiso   1.00
H216   H     0.61873   0.77313   0.94257   0.00000  Uiso   1.00
H217   H     0.60892   0.02531   0.15372   0.00000  Uiso   1.00
H218   H     0.75732   0.87703   0.08824   0.00000  Uiso   1.00
H219   H     0.56828   0.61520   0.83266   0.00000  Uiso   1.00
H220   H     0.54761   0.14693   0.27790   0.00000  Uiso   1.00
H221   H     0.86054   0.83426   0.13982   0.00000  Uiso   1.00
O222   O     0.52782   0.42344   0.84893   0.00000  Uiso   1.00
O223   O     0.50070   0.12105   0.43307   0.00000  Uiso   1.00
O224   O     0.91126   0.71084   0.25192   0.00000  Uiso   1.00
N225   N     0.55540   0.45658   0.99433   0.00000  Uiso   1.00
N226   N     0.53606   0.95371   0.41059   0.00000  Uiso   1.00
N227   N     0.82863   0.66142   0.28152   0.00000  Uiso   1.00
N228   N     0.56854   0.57895   0.89263   0.00000  Uiso   1.00
N229   N     0.54921   0.07608   0.30889   0.00000  Uiso   1.00
N230   N     0.84177   0.78379   0.17982   0.00000  Uiso   1.00
C231   C     0.86112   0.32024   0.23773   0.00000  Uiso   1.00
C232   C     0.88091   0.35185   0.14579   0.00000  Uiso   1.00
C233   C     0.90487   0.44659   0.12515   0.00000  Uiso   1.00
C234   C     0.92017   0.46041   0.03713   0.00000  Uiso   1.00
C235   C     0.95219   0.52136   0.90427   0.00000  Uiso   1.00
C236   C     0.88624   0.21484   0.26051   0.00000  Uiso   1.00
C237   C     0.91469   0.19438   0.33633   0.00000  Uiso   1.00
C238   C     0.93447   0.09286   0.34488   0.00000  Uiso   1.00
C239   C     0.97475   0.94107   0.39015   0.00000  Uiso   1.00
C240   C     0.80561   0.29541   0.22493   0.00000  Uiso   1.00
C241   C     0.76627   0.34267   0.27084   0.00000  Uiso   1.00
C242   C     0.71816   0.30897   0.24946   0.00000  Uiso   1.00
C243   C     0.63326   0.28228   0.23948   0.00000  Uiso   1.00
C244   C     0.84566   0.17633   0.11813   0.00000  Uiso   1.00
C245   C     0.87251   0.27368   0.08084   0.00000  Uiso   1.00
C246   C     0.88777   0.28737   0.99283   0.00000  Uiso   1.00
C247   C     0.91175   0.38211   0.97205   0.00000  Uiso   1.00
C248   C     0.87785   0.13668   0.19555   0.00000  Uiso   1.00
C249   C     0.89759   0.03516   0.20400   0.00000  Uiso   1.00
C250   C     0.92606   0.01455   0.27981   0.00000  Uiso   1.00
C251   C     0.79722   0.21725   0.15997   0.00000  Uiso   1.00
C252   C     0.74917   0.18346   0.13852   0.00000  Uiso   1.00
C253   C     0.70975   0.23066   0.18438   0.00000  Uiso   1.00
H254   H     0.86765   0.38109   0.28831   0.00000  Uiso   1.00
H255   H     0.91137   0.50705   0.17544   0.00000  Uiso   1.00
H256   H     0.92118   0.25488   0.38659   0.00000  Uiso   1.00
H257   H     0.77278   0.40315   0.32111   0.00000  Uiso   1.00
H258   H     0.95614   0.61222   0.02167   0.00000  Uiso   1.00
H259   H     0.97682   0.08049   0.46689   0.00000  Uiso   1.00
H260   H     0.66388   0.39315   0.32882   0.00000  Uiso   1.00
H261   H     0.83912   0.11547   0.06756   0.00000  Uiso   1.00
H262   H     0.88127   0.22687   0.94257   0.00000  Uiso   1.00
H263   H     0.89108   0.97469   0.15372   0.00000  Uiso   1.00
H264   H     0.74268   0.12297   0.08824   0.00000  Uiso   1.00
H265   H     0.93172   0.38480   0.83266   0.00000  Uiso   1.00
H266   H     0.95239   0.85307   0.27790   0.00000  Uiso   1.00
H267   H     0.63946   0.16574   0.13982   0.00000  Uiso   1.00
O268   O     0.97218   0.57656   0.84893   0.00000  Uiso   1.00
O269   O     0.99930   0.87895   0.43307   0.00000  Uiso   1.00
O270   O     0.58874   0.28916   0.25192   0.00000  Uiso   1.00
N271   N     0.94460   0.54342   0.99433   0.00000  Uiso   1.00
N272   N     0.96394   0.04629   0.41059   0.00000  Uiso   1.00
N273   N     0.67137   0.33858   0.28152   0.00000  Uiso   1.00
N274   N     0.93146   0.42105   0.89263   0.00000  Uiso   1.00
N275   N     0.95079   0.92392   0.30889   0.00000  Uiso   1.00
N276   N     0.65823   0.21621   0.17982   0.00000  Uiso   1.00
C277   C     0.36112   0.67976   0.26227   0.00000  Uiso   1.00
C278   C     0.38091   0.64815   0.35421   0.00000  Uiso   1.00
C279   C     0.40487   0.55341   0.37485   0.00000  Uiso   1.00
C280   C     0.42017   0.53959   0.46287   0.00000  Uiso   1.00
C281   C     0.45219   0.47864   0.59573   0.00000  Uiso   1.00
C282   C     0.38624   0.78516   0.23949   0.00000  Uiso   1.00
C283   C     0.41469   0.80562   0.16367   0.00000  Uiso   1.00
C284   C     0.43447   0.90714   0.15512   0.00000  Uiso   1.00
C285   C     0.47475   0.05893   0.10985   0.00000  Uiso   1.00
C286   C     0.30561   0.70459   0.27507   0.00000  Uiso   1.00
C287   C     0.26627   0.65733   0.22916   0.00000  Uiso   1.00
C288   C     0.21816   0.69103   0.25054   0.00000  Uiso   1.00
C289   C     0.13326   0.71772   0.26052   0.00000  Uiso   1.00
C290   C     0.34566   0.82367   0.38187   0.00000  Uiso   1.00
C291   C     0.37251   0.72632   0.41916   0.00000  Uiso   1.00
C292   C     0.38777   0.71263   0.50717   0.00000  Uiso   1.00
C293   C     0.41175   0.61789   0.52795   0.00000  Uiso   1.00
C294   C     0.37785   0.86332   0.30445   0.00000  Uiso   1.00
C295   C     0.39759   0.96484   0.29600   0.00000  Uiso   1.00
C296   C     0.42606   0.98545   0.22019   0.00000  Uiso   1.00
C297   C     0.29722   0.78275   0.34003   0.00000  Uiso   1.00
C298   C     0.24917   0.81654   0.36148   0.00000  Uiso   1.00
C299   C     0.20975   0.76934   0.31562   0.00000  Uiso   1.00
H300   H     0.36765   0.61891   0.21169   0.00000  Uiso   1.00
H301   H     0.41137   0.49295   0.32456   0.00000  Uiso   1.00
H302   H     0.42118   0.74512   0.11341   0.00000  Uiso   1.00
H303   H     0.27278   0.59685   0.17889   0.00000  Uiso   1.00
H304   H     0.45614   0.38778   0.47833   0.00000  Uiso   1.00
H305   H     0.47682   0.91951   0.03311   0.00000  Uiso   1.00
H306   H     0.16388   0.60685   0.17118   0.00000  Uiso   1.00
H307   H     0.33912   0.88453   0.43244   0.00000  Uiso   1.00
H308   H     0.38127   0.77313   0.55743   0.00000  Uiso   1.00
H309   H     0.39108   0.02531   0.34628   0.00000  Uiso   1.00
H310   H     0.24268   0.87703   0.41176   0.00000  Uiso   1.00
H311   H     0.43172   0.61520   0.66734   0.00000  Uiso   1.00
H312   H     0.45239   0.14693   0.22210   0.00000  Uiso   1.00
H313   H     0.13946   0.83426   0.36018   0.00000  Uiso   1.00
O314   O     0.47218   0.42344   0.65107   0.00000  Uiso   1.00
O315   O     0.49930   0.12105   0.06693   0.00000  Uiso   1.00
O316   O     0.08874   0.71084   0.24808   0.00000  Uiso   1.00
N317   N     0.44460   0.45658   0.50567   0.00000  Uiso   1.00
N318   N     0.46394   0.95371   0.08941   0.00000  Uiso   1.00
N319   N     0.17137   0.66142   0.21848   0.00000  Uiso   1.00
N320   N     0.43146   0.57895   0.60737   0.00000  Uiso   1.00
N321   N     0.45079   0.07608   0.19111   0.00000  Uiso   1.00
N322   N     0.15823   0.78379   0.32018   0.00000  Uiso   1.00
C323   C     0.13888   0.32024   0.26227   0.00000  Uiso   1.00
C324   C     0.11909   0.35185   0.35421   0.00000  Uiso   1.00
C325   C     0.09513   0.44659   0.37485   0.00000  Uiso   1.00
C326   C     0.07983   0.46041   0.46287   0.00000  Uiso   1.00
C327   C     0.04781   0.52136   0.59573   0.00000  Uiso   1.00
C328   C     0.11376   0.21484   0.23949   0.00000  Uiso   1.00
C329   C     0.08531   0.19438   0.16367   0.00000  Uiso   1.00
C330   C     0.06553   0.09286   0.15512   0.00000  Uiso   1.00
C331   C     0.02525   0.94107   0.10985   0.00000  Uiso   1.00
C332   C     0.19439   0.29541   0.27507   0.00000  Uiso   1.00
C333   C     0.23373   0.34267   0.22916   0.00000  Uiso   1.00
C334   C     0.28184   0.30897   0.25054   0.00000  Uiso   1.00
C335   C     0.36674   0.28228   0.26052   0.00000  Uiso   1.00
C336   C     0.15434   0.17633   0.38187   0.00000  Uiso   1.00
C337   C     0.12749   0.27368   0.41916   0.00000  Uiso   1.00
C338   C     0.11223   0.28737   0.50717   0.00000  Uiso   1.00
C339   C     0.08825   0.38211   0.52795   0.00000  Uiso   1.00
C340   C     0.12215   0.13668   0.30445   0.00000  Uiso   1.00
C341   C     0.10241   0.03516   0.29600   0.00000  Uiso   1.00
C342   C     0.07394   0.01455   0.22019   0.00000  Uiso   1.00
C343   C     0.20278   0.21725   0.34003   0.00000  Uiso   1.00
C344   C     0.25083   0.18346   0.36148   0.00000  Uiso   1.00
C345   C     0.29025   0.23066   0.31562   0.00000  Uiso   1.00
H346   H     0.13235   0.38109   0.21169   0.00000  Uiso   1.00
H347   H     0.08863   0.50705   0.32456   0.00000  Uiso   1.00
H348   H     0.07882   0.25488   0.11341   0.00000  Uiso   1.00
H349   H     0.22722   0.40315   0.17889   0.00000  Uiso   1.00
H350   H     0.04386   0.61222   0.47833   0.00000  Uiso   1.00
H351   H     0.02318   0.08049   0.03311   0.00000  Uiso   1.00
H352   H     0.33612   0.39315   0.17118   0.00000  Uiso   1.00
H353   H     0.16088   0.11547   0.43244   0.00000  Uiso   1.00
H354   H     0.11873   0.22687   0.55743   0.00000  Uiso   1.00
H355   H     0.10892   0.97469   0.34628   0.00000  Uiso   1.00
H356   H     0.25732   0.12297   0.41176   0.00000  Uiso   1.00
H357   H     0.06828   0.38480   0.66734   0.00000  Uiso   1.00
H358   H     0.04761   0.85307   0.22210   0.00000  Uiso   1.00
H359   H     0.36054   0.16574   0.36018   0.00000  Uiso   1.00
O360   O     0.02782   0.57656   0.65107   0.00000  Uiso   1.00
O361   O     0.00070   0.87895   0.06693   0.00000  Uiso   1.00
O362   O     0.41126   0.28916   0.24808   0.00000  Uiso   1.00
N363   N     0.05540   0.54342   0.50567   0.00000  Uiso   1.00
N364   N     0.03606   0.04629   0.08941   0.00000  Uiso   1.00
N365   N     0.32863   0.33858   0.21848   0.00000  Uiso   1.00
N366   N     0.06854   0.42105   0.60737   0.00000  Uiso   1.00
N367   N     0.04921   0.92392   0.19111   0.00000  Uiso   1.00
N368   N     0.34177   0.21621   0.32018   0.00000  Uiso   1.00
