data_job_04454
_audit_creation_date              2018-12-19
_audit_creation_method            'Materials Studio'
_symmetry_space_group_name_H-M    'P1'
_symmetry_Int_Tables_number       1
_symmetry_cell_setting            triclinic
loop_
_symmetry_equiv_pos_as_xyz
  x,y,z
_cell_length_a                    28.4266
_cell_length_b                    12.4035
_cell_length_c                    12.8688
_cell_angle_alpha                 90.0000
_cell_angle_beta                  90.6794
_cell_angle_gamma                 90.0000
loop_
_atom_site_label
_atom_site_type_symbol
_atom_site_fract_x
_atom_site_fract_y
_atom_site_fract_z
_atom_site_U_iso_or_equiv
_atom_site_adp_type
_atom_site_occupancy
C1     C     0.62257   0.87836   0.47768   0.00000  Uiso   1.00
C2     C     0.64362   0.79528   0.55217   0.00000  Uiso   1.00
C3     C     0.66366   0.69771   0.52396   0.00000  Uiso   1.00
C4     C     0.68094   0.63296   0.60371   0.00000  Uiso   1.00
C5     C     0.71402   0.49911   0.70354   0.00000  Uiso   1.00
C6     C     0.57211   0.89629   0.51271   0.00000  Uiso   1.00
C7     C     0.53203   0.88366   0.45131   0.00000  Uiso   1.00
C8     C     0.48911   0.90396   0.49784   0.00000  Uiso   1.00
C9     C     0.41117   0.92700   0.53638   0.00000  Uiso   1.00
C10    C     0.64858   0.98360   0.49959   0.00000  Uiso   1.00
C11    C     0.67278   0.04439   0.42715   0.00000  Uiso   1.00
C12    C     0.69424   0.13821   0.46263   0.00000  Uiso   1.00
C13    C     0.73503   0.29680   0.48080   0.00000  Uiso   1.00
C14    C     0.61763   0.93688   0.66948   0.00000  Uiso   1.00
C15    C     0.64094   0.82707   0.65636   0.00000  Uiso   1.00
C16    C     0.65819   0.76246   0.73617   0.00000  Uiso   1.00
C17    C     0.67825   0.66480   0.70808   0.00000  Uiso   1.00
C18    C     0.56943   0.92808   0.61689   0.00000  Uiso   1.00
C19    C     0.52656   0.94841   0.66352   0.00000  Uiso   1.00
C20    C     0.48642   0.93580   0.60221   0.00000  Uiso   1.00
C21    C     0.64590   0.01539   0.60377   0.00000  Uiso   1.00
C22    C     0.66732   0.10913   0.63937   0.00000  Uiso   1.00
C23    C     0.69155   0.17005   0.56700   0.00000  Uiso   1.00
H24    H     0.62466   0.85361   0.39657   0.00000  Uiso   1.00
H25    H     0.66573   0.67313   0.44332   0.00000  Uiso   1.00
H26    H     0.53412   0.85907   0.37068   0.00000  Uiso   1.00
H27    H     0.67485   0.01977   0.34653   0.00000  Uiso   1.00
H28    H     0.71006   0.48704   0.54111   0.00000  Uiso   1.00
H29    H     0.43255   0.87913   0.38794   0.00000  Uiso   1.00
H30    H     0.72932   0.21800   0.33701   0.00000  Uiso   1.00
H31    H     0.61554   0.96163   0.75060   0.00000  Uiso   1.00
H32    H     0.65611   0.78708   0.81679   0.00000  Uiso   1.00
H33    H     0.52449   0.97301   0.74414   0.00000  Uiso   1.00
H34    H     0.66523   0.13371   0.71999   0.00000  Uiso   1.00
H35    H     0.70225   0.57952   0.84423   0.00000  Uiso   1.00
H36    H     0.42474   0.97161   0.69105   0.00000  Uiso   1.00
H37    H     0.72151   0.31047   0.64012   0.00000  Uiso   1.00
O38    O     0.73300   0.41649   0.72983   0.00000  Uiso   1.00
O39    O     0.36892   0.93092   0.52885   0.00000  Uiso   1.00
O40    O     0.75827   0.37549   0.46204   0.00000  Uiso   1.00
N41    N     0.70266   0.53277   0.60337   0.00000  Uiso   1.00
N42    N     0.44321   0.89934   0.46016   0.00000  Uiso   1.00
N43    N     0.72065   0.21616   0.41254   0.00000  Uiso   1.00
N44    N     0.69846   0.58253   0.76647   0.00000  Uiso   1.00
N45    N     0.43901   0.94910   0.62326   0.00000  Uiso   1.00
N46    N     0.71645   0.26592   0.57564   0.00000  Uiso   1.00
C47    C     0.10121   0.14250   0.89336   0.00000  Uiso   1.00
C48    C     0.13371   0.05817   0.94200   0.00000  Uiso   1.00
C49    C     0.14558   0.95988   0.89797   0.00000  Uiso   1.00
C50    C     0.17583   0.89402   0.95484   0.00000  Uiso   1.00
C51    C     0.22358   0.75828   0.01557   0.00000  Uiso   1.00
C52    C     0.06254   0.16245   0.97220   0.00000  Uiso   1.00
C53    C     0.01457   0.15185   0.95355   0.00000  Uiso   1.00
C54    C     0.98491   0.17378   0.03585   0.00000  Uiso   1.00
C55    C     0.92217   0.20001   0.14344   0.00000  Uiso   1.00
C56    C     0.12972   0.24648   0.88878   0.00000  Uiso   1.00
C57    C     0.13824   0.30656   0.79999   0.00000  Uiso   1.00
C58    C     0.16514   0.39926   0.81205   0.00000  Uiso   1.00
C59    C     0.20671   0.55597   0.79011   0.00000  Uiso   1.00
C60    C     0.13382   0.20031   0.07268   0.00000  Uiso   1.00
C61    C     0.15142   0.08958   0.03940   0.00000  Uiso   1.00
C62    C     0.18166   0.02384   0.09636   0.00000  Uiso   1.00
C63    C     0.19357   0.92547   0.05241   0.00000  Uiso   1.00
C64    C     0.08025   0.19385   0.06960   0.00000  Uiso   1.00
C65    C     0.05065   0.21581   0.15194   0.00000  Uiso   1.00
C66    C     0.00266   0.20524   0.13342   0.00000  Uiso   1.00
C67    C     0.14744   0.27789   0.98617   0.00000  Uiso   1.00
C68    C     0.17432   0.37052   0.99838   0.00000  Uiso   1.00
C69    C     0.18288   0.43072   0.90963   0.00000  Uiso   1.00
H70    H     0.08742   0.11805   0.81754   0.00000  Uiso   1.00
H71    H     0.13186   0.93561   0.82259   0.00000  Uiso   1.00
H72    H     0.00088   0.12756   0.87817   0.00000  Uiso   1.00
H73    H     0.12453   0.28224   0.72463   0.00000  Uiso   1.00
H74    H     0.18894   0.74716   0.87117   0.00000  Uiso   1.00
H75    H     0.91275   0.15193   0.98834   0.00000  Uiso   1.00
H76    H     0.17348   0.47811   0.66457   0.00000  Uiso   1.00
H77    H     0.14760   0.22476   0.14851   0.00000  Uiso   1.00
H78    H     0.19536   0.04817   0.17173   0.00000  Uiso   1.00
H79    H     0.06437   0.24012   0.22730   0.00000  Uiso   1.00
H80    H     0.18802   0.39480   0.07376   0.00000  Uiso   1.00
H81    H     0.24047   0.83852   0.15454   0.00000  Uiso   1.00
H82    H     0.96428   0.24329   0.27171   0.00000  Uiso   1.00
H83    H     0.22502   0.56947   0.94794   0.00000  Uiso   1.00
O84    O     0.24501   0.67473   0.02217   0.00000  Uiso   1.00
O85    O     0.88267   0.20580   0.17588   0.00000  Uiso   1.00
O86    O     0.22475   0.63373   0.75111   0.00000  Uiso   1.00
N87    N     0.19452   0.79291   0.93466   0.00000  Uiso   1.00
N88    N     0.93630   0.17133   0.04421   0.00000  Uiso   1.00
N89    N     0.18006   0.47629   0.74152   0.00000  Uiso   1.00
N90    N     0.22225   0.84206   0.08714   0.00000  Uiso   1.00
N91    N     0.96403   0.22049   0.19669   0.00000  Uiso   1.00
N92    N     0.20778   0.52545   0.89400   0.00000  Uiso   1.00
C93    C     0.11288   0.88621   0.51917   0.00000  Uiso   1.00
C94    C     0.13396   0.80347   0.44547   0.00000  Uiso   1.00
C95    C     0.15321   0.70490   0.47417   0.00000  Uiso   1.00
C96    C     0.17067   0.64067   0.39513   0.00000  Uiso   1.00
C97    C     0.20366   0.50712   0.29650   0.00000  Uiso   1.00
C98    C     0.06279   0.90622   0.47999   0.00000  Uiso   1.00
C99    C     0.02221   0.89404   0.53773   0.00000  Uiso   1.00
C100   C     0.97976   0.91633   0.48774   0.00000  Uiso   1.00
C101   C     0.90226   0.94236   0.44274   0.00000  Uiso   1.00
C102   C     0.13966   0.99089   0.50087   0.00000  Uiso   1.00
C103   C     0.16369   0.04993   0.57616   0.00000  Uiso   1.00
C104   C     0.18594   0.14352   0.54376   0.00000  Uiso   1.00
C105   C     0.22778   0.30103   0.53116   0.00000  Uiso   1.00
C106   C     0.10965   0.94744   0.32775   0.00000  Uiso   1.00
C107   C     0.13221   0.83673   0.34150   0.00000  Uiso   1.00
C108   C     0.14965   0.77264   0.26239   0.00000  Uiso   1.00
C109   C     0.16892   0.67399   0.29097   0.00000  Uiso   1.00
C110   C     0.06104   0.93947   0.37603   0.00000  Uiso   1.00
C111   C     0.01865   0.96179   0.32595   0.00000  Uiso   1.00
C112   C     0.97801   0.94964   0.38359   0.00000  Uiso   1.00
C113   C     0.13791   0.02415   0.39690   0.00000  Uiso   1.00
C114   C     0.16013   0.11767   0.36438   0.00000  Uiso   1.00
C115   C     0.18419   0.17684   0.43960   0.00000  Uiso   1.00
H116   H     0.11423   0.86032   0.60011   0.00000  Uiso   1.00
H117   H     0.15455   0.67918   0.55464   0.00000  Uiso   1.00
H118   H     0.02358   0.86832   0.61819   0.00000  Uiso   1.00
H119   H     0.16503   0.02417   0.65661   0.00000  Uiso   1.00
H120   H     0.19847   0.49302   0.45837   0.00000  Uiso   1.00
H121   H     0.92229   0.89184   0.59237   0.00000  Uiso   1.00
H122   H     0.22058   0.22050   0.67339   0.00000  Uiso   1.00
H123   H     0.10829   0.97333   0.24681   0.00000  Uiso   1.00
H124   H     0.14829   0.79840   0.18194   0.00000  Uiso   1.00
H125   H     0.01731   0.98753   0.24549   0.00000  Uiso   1.00
H126   H     0.15876   0.14338   0.28391   0.00000  Uiso   1.00
H127   H     0.19338   0.58977   0.15587   0.00000  Uiso   1.00
H128   H     0.91720   0.98860   0.28988   0.00000  Uiso   1.00
H129   H     0.21550   0.31726   0.37090   0.00000  Uiso   1.00
O130   O     0.22233   0.42426   0.27082   0.00000  Uiso   1.00
O131   O     0.86000   0.94753   0.44664   0.00000  Uiso   1.00
O132   O     0.25135   0.37871   0.55294   0.00000  Uiso   1.00
N133   N     0.19179   0.53980   0.39608   0.00000  Uiso   1.00
N134   N     0.93358   0.91266   0.52136   0.00000  Uiso   1.00
N135   N     0.21245   0.21995   0.59712   0.00000  Uiso   1.00
N136   N     0.18905   0.59187   0.23331   0.00000  Uiso   1.00
N137   N     0.93084   0.96473   0.35859   0.00000  Uiso   1.00
N138   N     0.20971   0.27201   0.43435   0.00000  Uiso   1.00
C139   C     0.59555   0.11576   0.11654   0.00000  Uiso   1.00
C140   C     0.62923   0.03128   0.07412   0.00000  Uiso   1.00
C141   C     0.63975   0.93292   0.12025   0.00000  Uiso   1.00
C142   C     0.67144   0.86691   0.06920   0.00000  Uiso   1.00
C143   C     0.72063   0.73094   0.01758   0.00000  Uiso   1.00
C144   C     0.55919   0.13592   0.03064   0.00000  Uiso   1.00
C145   C     0.51082   0.12556   0.04022   0.00000  Uiso   1.00
C146   C     0.48355   0.14765   0.95256   0.00000  Uiso   1.00
C147   C     0.42400   0.17421   0.83346   0.00000  Uiso   1.00
C148   C     0.62396   0.21961   0.12650   0.00000  Uiso   1.00
C149   C     0.63004   0.27963   0.21667   0.00000  Uiso   1.00
C150   C     0.65729   0.37220   0.20972   0.00000  Uiso   1.00
C151   C     0.69829   0.52869   0.23946   0.00000  Uiso   1.00
C152   C     0.63312   0.17343   0.94384   0.00000  Uiso   1.00
C153   C     0.64964   0.06260   0.98032   0.00000  Uiso   1.00
C154   C     0.68132   0.99672   0.92918   0.00000  Uiso   1.00
C155   C     0.69189   0.89829   0.97523   0.00000  Uiso   1.00
C156   C     0.57960   0.16724   0.93684   0.00000  Uiso   1.00
C157   C     0.55239   0.18936   0.84915   0.00000  Uiso   1.00
C158   C     0.50400   0.17903   0.85859   0.00000  Uiso   1.00
C159   C     0.64437   0.25093   0.03270   0.00000  Uiso   1.00
C160   C     0.67161   0.34342   0.02560   0.00000  Uiso   1.00
C161   C     0.67773   0.40357   0.11575   0.00000  Uiso   1.00
H162   H     0.57966   0.09138   0.18956   0.00000  Uiso   1.00
H163   H     0.62395   0.90871   0.19284   0.00000  Uiso   1.00
H164   H     0.49504   0.10133   0.11282   0.00000  Uiso   1.00
H165   H     0.61424   0.25537   0.28925   0.00000  Uiso   1.00
H166   H     0.68205   0.71998   0.15508   0.00000  Uiso   1.00
H167   H     0.41023   0.12616   0.98637   0.00000  Uiso   1.00
H168   H     0.66159   0.45099   0.35841   0.00000  Uiso   1.00
H169   H     0.64900   0.19781   0.87081   0.00000  Uiso   1.00
H170   H     0.69711   0.02098   0.85659   0.00000  Uiso   1.00
H171   H     0.56820   0.21360   0.77657   0.00000  Uiso   1.00
H172   H     0.68739   0.36764   0.95300   0.00000  Uiso   1.00
H173   H     0.74142   0.81110   0.88217   0.00000  Uiso   1.00
H174   H     0.46960   0.21729   0.71346   0.00000  Uiso   1.00
H175   H     0.72096   0.54211   0.08549   0.00000  Uiso   1.00
O176   O     0.74211   0.64728   0.01501   0.00000  Uiso   1.00
O177   O     0.38551   0.18019   0.79367   0.00000  Uiso   1.00
O178   O     0.71528   0.60635   0.28177   0.00000  Uiso   1.00
N179   N     0.68943   0.76570   0.09281   0.00000  Uiso   1.00
N180   N     0.43530   0.14544   0.93507   0.00000  Uiso   1.00
N181   N     0.67028   0.44915   0.28289   0.00000  Uiso   1.00
N182   N     0.72137   0.81473   0.94596   0.00000  Uiso   1.00
N183   N     0.46725   0.19447   0.78822   0.00000  Uiso   1.00
N184   N     0.70223   0.49818   0.13604   0.00000  Uiso   1.00
C185   C     0.37743   0.37836   0.52232   0.00000  Uiso   1.00
C186   C     0.35638   0.29528   0.44783   0.00000  Uiso   1.00
C187   C     0.33634   0.19771   0.47604   0.00000  Uiso   1.00
C188   C     0.31906   0.13296   0.39629   0.00000  Uiso   1.00
C189   C     0.28598   0.99911   0.29646   0.00000  Uiso   1.00
C190   C     0.42789   0.39629   0.48729   0.00000  Uiso   1.00
C191   C     0.46797   0.38366   0.54869   0.00000  Uiso   1.00
C192   C     0.51089   0.40396   0.50216   0.00000  Uiso   1.00
C193   C     0.58883   0.42700   0.46362   0.00000  Uiso   1.00
C194   C     0.35142   0.48360   0.50041   0.00000  Uiso   1.00
C195   C     0.32722   0.54439   0.57285   0.00000  Uiso   1.00
C196   C     0.30576   0.63821   0.53737   0.00000  Uiso   1.00
C197   C     0.26497   0.79680   0.51920   0.00000  Uiso   1.00
C198   C     0.38237   0.43688   0.33052   0.00000  Uiso   1.00
C199   C     0.35906   0.32707   0.34364   0.00000  Uiso   1.00
C200   C     0.34181   0.26246   0.26383   0.00000  Uiso   1.00
C201   C     0.32175   0.16480   0.29192   0.00000  Uiso   1.00
C202   C     0.43057   0.42808   0.38311   0.00000  Uiso   1.00
C203   C     0.47344   0.44841   0.33648   0.00000  Uiso   1.00
C204   C     0.51358   0.43580   0.39779   0.00000  Uiso   1.00
C205   C     0.35410   0.51539   0.39623   0.00000  Uiso   1.00
C206   C     0.33268   0.60913   0.36063   0.00000  Uiso   1.00
C207   C     0.30845   0.67005   0.43300   0.00000  Uiso   1.00
H208   H     0.37534   0.35361   0.60343   0.00000  Uiso   1.00
H209   H     0.33427   0.17313   0.55668   0.00000  Uiso   1.00
H210   H     0.46588   0.35907   0.62932   0.00000  Uiso   1.00
H211   H     0.32515   0.51977   0.65347   0.00000  Uiso   1.00
H212   H     0.28994   0.98704   0.45889   0.00000  Uiso   1.00
H213   H     0.56745   0.37913   0.61206   0.00000  Uiso   1.00
H214   H     0.27068   0.71800   0.66299   0.00000  Uiso   1.00
H215   H     0.38446   0.46163   0.24940   0.00000  Uiso   1.00
H216   H     0.34389   0.28708   0.18321   0.00000  Uiso   1.00
H217   H     0.47551   0.47301   0.25586   0.00000  Uiso   1.00
H218   H     0.33477   0.63371   0.28001   0.00000  Uiso   1.00
H219   H     0.29775   0.07952   0.15577   0.00000  Uiso   1.00
H220   H     0.57526   0.47161   0.30895   0.00000  Uiso   1.00
H221   H     0.27849   0.81047   0.35988   0.00000  Uiso   1.00
O222   O     0.26700   0.91649   0.27017   0.00000  Uiso   1.00
O223   O     0.63108   0.43092   0.47115   0.00000  Uiso   1.00
O224   O     0.24173   0.87549   0.53796   0.00000  Uiso   1.00
N225   N     0.29734   0.03277   0.39663   0.00000  Uiso   1.00
N226   N     0.55679   0.39934   0.53984   0.00000  Uiso   1.00
N227   N     0.27935   0.71616   0.58746   0.00000  Uiso   1.00
N228   N     0.30154   0.08253   0.23353   0.00000  Uiso   1.00
N229   N     0.56099   0.44910   0.37674   0.00000  Uiso   1.00
N230   N     0.28355   0.76592   0.42436   0.00000  Uiso   1.00
C231   C     0.89879   0.64250   0.10664   0.00000  Uiso   1.00
C232   C     0.86629   0.55817   0.05800   0.00000  Uiso   1.00
C233   C     0.85442   0.45988   0.10203   0.00000  Uiso   1.00
C234   C     0.82417   0.39402   0.04516   0.00000  Uiso   1.00
C235   C     0.77642   0.25828   0.98443   0.00000  Uiso   1.00
C236   C     0.93746   0.66245   0.02780   0.00000  Uiso   1.00
C237   C     0.98543   0.65185   0.04645   0.00000  Uiso   1.00
C238   C     0.01509   0.67378   0.96415   0.00000  Uiso   1.00
C239   C     0.07783   0.70001   0.85656   0.00000  Uiso   1.00
C240   C     0.87028   0.74648   0.11122   0.00000  Uiso   1.00
C241   C     0.86176   0.80656   0.20001   0.00000  Uiso   1.00
C242   C     0.83486   0.89926   0.18795   0.00000  Uiso   1.00
C243   C     0.79329   0.05597   0.20989   0.00000  Uiso   1.00
C244   C     0.86618   0.70031   0.92732   0.00000  Uiso   1.00
C245   C     0.84858   0.58958   0.96060   0.00000  Uiso   1.00
C246   C     0.81834   0.52384   0.90364   0.00000  Uiso   1.00
C247   C     0.80643   0.42547   0.94759   0.00000  Uiso   1.00
C248   C     0.91975   0.69385   0.93040   0.00000  Uiso   1.00
C249   C     0.94935   0.71581   0.84806   0.00000  Uiso   1.00
C250   C     0.99734   0.70524   0.86658   0.00000  Uiso   1.00
C251   C     0.85256   0.77789   0.01383   0.00000  Uiso   1.00
C252   C     0.82568   0.87052   0.00162   0.00000  Uiso   1.00
C253   C     0.81712   0.93072   0.09037   0.00000  Uiso   1.00
H254   H     0.91258   0.61805   0.18246   0.00000  Uiso   1.00
H255   H     0.86814   0.43561   0.17741   0.00000  Uiso   1.00
H256   H     0.99912   0.62756   0.12183   0.00000  Uiso   1.00
H257   H     0.87547   0.78224   0.27537   0.00000  Uiso   1.00
H258   H     0.81106   0.24716   0.12883   0.00000  Uiso   1.00
H259   H     0.08725   0.65193   0.01166   0.00000  Uiso   1.00
H260   H     0.82652   0.97811   0.33543   0.00000  Uiso   1.00
H261   H     0.85240   0.72476   0.85149   0.00000  Uiso   1.00
H262   H     0.80464   0.54817   0.82827   0.00000  Uiso   1.00
H263   H     0.93563   0.74012   0.77270   0.00000  Uiso   1.00
H264   H     0.81198   0.89480   0.92624   0.00000  Uiso   1.00
H265   H     0.75953   0.33852   0.84546   0.00000  Uiso   1.00
H266   H     0.03572   0.74329   0.72829   0.00000  Uiso   1.00
H267   H     0.77498   0.06947   0.05206   0.00000  Uiso   1.00
O268   O     0.75499   0.17473   0.97783   0.00000  Uiso   1.00
O269   O     0.11733   0.70580   0.82412   0.00000  Uiso   1.00
O270   O     0.77525   0.13373   0.24889   0.00000  Uiso   1.00
N271   N     0.80548   0.29291   0.06534   0.00000  Uiso   1.00
N272   N     0.06370   0.67133   0.95579   0.00000  Uiso   1.00
N273   N     0.81994   0.97629   0.25848   0.00000  Uiso   1.00
N274   N     0.77775   0.34206   0.91286   0.00000  Uiso   1.00
N275   N     0.03597   0.72049   0.80331   0.00000  Uiso   1.00
N276   N     0.79222   0.02545   0.10600   0.00000  Uiso   1.00
C277   C     0.88712   0.38621   0.48083   0.00000  Uiso   1.00
C278   C     0.86604   0.30347   0.55453   0.00000  Uiso   1.00
C279   C     0.84679   0.20490   0.52583   0.00000  Uiso   1.00
C280   C     0.82933   0.14067   0.60487   0.00000  Uiso   1.00
C281   C     0.79634   0.00712   0.70350   0.00000  Uiso   1.00
C282   C     0.93721   0.40622   0.52001   0.00000  Uiso   1.00
C283   C     0.97779   0.39404   0.46227   0.00000  Uiso   1.00
C284   C     0.02024   0.41633   0.51226   0.00000  Uiso   1.00
C285   C     0.09774   0.44236   0.55726   0.00000  Uiso   1.00
C286   C     0.86034   0.49089   0.49913   0.00000  Uiso   1.00
C287   C     0.83631   0.54993   0.42384   0.00000  Uiso   1.00
C288   C     0.81406   0.64352   0.45624   0.00000  Uiso   1.00
C289   C     0.77222   0.80103   0.46884   0.00000  Uiso   1.00
C290   C     0.89035   0.44744   0.67225   0.00000  Uiso   1.00
C291   C     0.86779   0.33673   0.65850   0.00000  Uiso   1.00
C292   C     0.85035   0.27264   0.73761   0.00000  Uiso   1.00
C293   C     0.83108   0.17399   0.70903   0.00000  Uiso   1.00
C294   C     0.93896   0.43947   0.62397   0.00000  Uiso   1.00
C295   C     0.98135   0.46179   0.67405   0.00000  Uiso   1.00
C296   C     0.02199   0.44964   0.61641   0.00000  Uiso   1.00
C297   C     0.86209   0.52415   0.60310   0.00000  Uiso   1.00
C298   C     0.83987   0.61767   0.63562   0.00000  Uiso   1.00
C299   C     0.81581   0.67684   0.56040   0.00000  Uiso   1.00
H300   H     0.88577   0.36032   0.39989   0.00000  Uiso   1.00
H301   H     0.84545   0.17918   0.44536   0.00000  Uiso   1.00
H302   H     0.97642   0.36832   0.38181   0.00000  Uiso   1.00
H303   H     0.83497   0.52417   0.34339   0.00000  Uiso   1.00
H304   H     0.80153   0.99302   0.54163   0.00000  Uiso   1.00
H305   H     0.07771   0.39184   0.40763   0.00000  Uiso   1.00
H306   H     0.77942   0.72050   0.32661   0.00000  Uiso   1.00
H307   H     0.89171   0.47333   0.75319   0.00000  Uiso   1.00
H308   H     0.85171   0.29840   0.81806   0.00000  Uiso   1.00
H309   H     0.98269   0.48753   0.75451   0.00000  Uiso   1.00
H310   H     0.84124   0.64338   0.71609   0.00000  Uiso   1.00
H311   H     0.80662   0.08977   0.84413   0.00000  Uiso   1.00
H312   H     0.08280   0.48860   0.71012   0.00000  Uiso   1.00
H313   H     0.78450   0.81726   0.62910   0.00000  Uiso   1.00
O314   O     0.77767   0.92426   0.72918   0.00000  Uiso   1.00
O315   O     0.14000   0.44753   0.55336   0.00000  Uiso   1.00
O316   O     0.74865   0.87871   0.44706   0.00000  Uiso   1.00
N317   N     0.80821   0.03980   0.60392   0.00000  Uiso   1.00
N318   N     0.06642   0.41266   0.47864   0.00000  Uiso   1.00
N319   N     0.78755   0.71995   0.40288   0.00000  Uiso   1.00
N320   N     0.81095   0.09187   0.76669   0.00000  Uiso   1.00
N321   N     0.06916   0.46473   0.64141   0.00000  Uiso   1.00
N322   N     0.79029   0.77201   0.56565   0.00000  Uiso   1.00
C323   C     0.40445   0.61576   0.88346   0.00000  Uiso   1.00
C324   C     0.37077   0.53128   0.92588   0.00000  Uiso   1.00
C325   C     0.36025   0.43292   0.87975   0.00000  Uiso   1.00
C326   C     0.32856   0.36691   0.93080   0.00000  Uiso   1.00
C327   C     0.27937   0.23094   0.98242   0.00000  Uiso   1.00
C328   C     0.44081   0.63592   0.96936   0.00000  Uiso   1.00
C329   C     0.48918   0.62556   0.95978   0.00000  Uiso   1.00
C330   C     0.51645   0.64765   0.04744   0.00000  Uiso   1.00
C331   C     0.57600   0.67421   0.16654   0.00000  Uiso   1.00
C332   C     0.37604   0.71961   0.87350   0.00000  Uiso   1.00
C333   C     0.36996   0.77963   0.78333   0.00000  Uiso   1.00
C334   C     0.34271   0.87220   0.79028   0.00000  Uiso   1.00
C335   C     0.30171   0.02869   0.76054   0.00000  Uiso   1.00
C336   C     0.36688   0.67343   0.05616   0.00000  Uiso   1.00
C337   C     0.35036   0.56260   0.01968   0.00000  Uiso   1.00
C338   C     0.31868   0.49672   0.07082   0.00000  Uiso   1.00
C339   C     0.30811   0.39829   0.02477   0.00000  Uiso   1.00
C340   C     0.42040   0.66724   0.06316   0.00000  Uiso   1.00
C341   C     0.44761   0.68936   0.15085   0.00000  Uiso   1.00
C342   C     0.49600   0.67903   0.14141   0.00000  Uiso   1.00
C343   C     0.35563   0.75093   0.96730   0.00000  Uiso   1.00
C344   C     0.32839   0.84342   0.97440   0.00000  Uiso   1.00
C345   C     0.32227   0.90357   0.88425   0.00000  Uiso   1.00
H346   H     0.42034   0.59138   0.81044   0.00000  Uiso   1.00
H347   H     0.37605   0.40871   0.80716   0.00000  Uiso   1.00
H348   H     0.50496   0.60133   0.88718   0.00000  Uiso   1.00
H349   H     0.38576   0.75537   0.71075   0.00000  Uiso   1.00
H350   H     0.31795   0.21998   0.84492   0.00000  Uiso   1.00
H351   H     0.58977   0.62616   0.01363   0.00000  Uiso   1.00
H352   H     0.33841   0.95099   0.64159   0.00000  Uiso   1.00
H353   H     0.35100   0.69781   0.12919   0.00000  Uiso   1.00
H354   H     0.30289   0.52098   0.14341   0.00000  Uiso   1.00
H355   H     0.43180   0.71360   0.22343   0.00000  Uiso   1.00
H356   H     0.31261   0.86764   0.04700   0.00000  Uiso   1.00
H357   H     0.25858   0.31110   0.11783   0.00000  Uiso   1.00
H358   H     0.53040   0.71729   0.28654   0.00000  Uiso   1.00
H359   H     0.27904   0.04211   0.91451   0.00000  Uiso   1.00
O360   O     0.25789   0.14728   0.98499   0.00000  Uiso   1.00
O361   O     0.61449   0.68019   0.20633   0.00000  Uiso   1.00
O362   O     0.28472   0.10635   0.71823   0.00000  Uiso   1.00
N363   N     0.31057   0.26570   0.90719   0.00000  Uiso   1.00
N364   N     0.56470   0.64544   0.06493   0.00000  Uiso   1.00
N365   N     0.32972   0.94915   0.71711   0.00000  Uiso   1.00
N366   N     0.27863   0.31473   0.05404   0.00000  Uiso   1.00
N367   N     0.53275   0.69447   0.21178   0.00000  Uiso   1.00
N368   N     0.29777   0.99818   0.86396   0.00000  Uiso   1.00
