data_job_04747
_audit_creation_date              2018-12-19
_audit_creation_method            'Materials Studio'
_symmetry_space_group_name_H-M    'P1'
_symmetry_Int_Tables_number       1
_symmetry_cell_setting            triclinic
loop_
_symmetry_equiv_pos_as_xyz
  x,y,z
_cell_length_a                    21.0899
_cell_length_b                    16.2255
_cell_length_c                    12.5506
_cell_angle_alpha                 90.0000
_cell_angle_beta                  90.0000
_cell_angle_gamma                 90.0000
loop_
_atom_site_label
_atom_site_type_symbol
_atom_site_fract_x
_atom_site_fract_y
_atom_site_fract_z
_atom_site_U_iso_or_equiv
_atom_site_adp_type
_atom_site_occupancy
C1     C     0.59765   0.22913   0.22828   0.00000  Uiso   1.00
C2     C     0.63927   0.26406   0.31677   0.00000  Uiso   1.00
C3     C     0.64724   0.23000   0.41731   0.00000  Uiso   1.00
C4     C     0.68734   0.27130   0.48693   0.00000  Uiso   1.00
C5     C     0.74723   0.31449   0.62892   0.00000  Uiso   1.00
C6     C     0.55170   0.29780   0.19793   0.00000  Uiso   1.00
C7     C     0.48604   0.29210   0.19854   0.00000  Uiso   1.00
C8     C     0.45242   0.36180   0.16810   0.00000  Uiso   1.00
C9     C     0.37635   0.45735   0.12551   0.00000  Uiso   1.00
C10    C     0.64106   0.21732   0.13232   0.00000  Uiso   1.00
C11    C     0.65052   0.14395   0.07774   0.00000  Uiso   1.00
C12    C     0.69213   0.14590   0.99204   0.00000  Uiso   1.00
C13    C     0.75481   0.11649   0.84759   0.00000  Uiso   1.00
C14    C     0.65469   0.36305   0.17312   0.00000  Uiso   1.00
C15    C     0.67025   0.33680   0.28681   0.00000  Uiso   1.00
C16    C     0.71035   0.37816   0.35629   0.00000  Uiso   1.00
C17    C     0.71838   0.34417   0.45692   0.00000  Uiso   1.00
C18    C     0.58268   0.37053   0.16797   0.00000  Uiso   1.00
C19    C     0.54915   0.44026   0.13752   0.00000  Uiso   1.00
C20    C     0.48346   0.43467   0.13808   0.00000  Uiso   1.00
C21    C     0.67204   0.29005   0.10236   0.00000  Uiso   1.00
C22    C     0.71364   0.29211   0.01672   0.00000  Uiso   1.00
C23    C     0.72317   0.21877   0.96203   0.00000  Uiso   1.00
H24    H     0.57352   0.17251   0.25160   0.00000  Uiso   1.00
H25    H     0.62325   0.17371   0.44047   0.00000  Uiso   1.00
H26    H     0.46207   0.23580   0.22172   0.00000  Uiso   1.00
H27    H     0.62654   0.08768   0.10095   0.00000  Uiso   1.00
H28    H     0.69203   0.20714   0.63668   0.00000  Uiso   1.00
H29    H     0.35218   0.33805   0.17539   0.00000  Uiso   1.00
H30    H     0.69898   0.02570   0.92071   0.00000  Uiso   1.00
H31    H     0.67881   0.41968   0.14979   0.00000  Uiso   1.00
H32    H     0.73432   0.43445   0.33308   0.00000  Uiso   1.00
H33    H     0.57314   0.49653   0.11433   0.00000  Uiso   1.00
H34    H     0.73760   0.34841   0.99356   0.00000  Uiso   1.00
H35    H     0.78217   0.41877   0.54952   0.00000  Uiso   1.00
H36    H     0.44232   0.54967   0.08823   0.00000  Uiso   1.00
H37    H     0.78913   0.23733   0.83355   0.00000  Uiso   1.00
O38    O     0.77170   0.31823   0.71552   0.00000  Uiso   1.00
O39    O     0.32583   0.48996   0.11031   0.00000  Uiso   1.00
O40    O     0.78083   0.08017   0.77619   0.00000  Uiso   1.00
N41    N     0.70564   0.25491   0.59100   0.00000  Uiso   1.00
N42    N     0.38790   0.37731   0.15974   0.00000  Uiso   1.00
N43    N     0.71212   0.08529   0.92163   0.00000  Uiso   1.00
N44    N     0.75414   0.36879   0.54410   0.00000  Uiso   1.00
N45    N     0.43641   0.49118   0.11284   0.00000  Uiso   1.00
N46    N     0.76062   0.19917   0.87472   0.00000  Uiso   1.00
C47    C     0.47061   0.78425   0.27374   0.00000  Uiso   1.00
C48    C     0.51833   0.76883   0.18465   0.00000  Uiso   1.00
C49    C     0.51665   0.80396   0.08387   0.00000  Uiso   1.00
C50    C     0.56465   0.78195   0.01372   0.00000  Uiso   1.00
C51    C     0.63143   0.76636   0.87086   0.00000  Uiso   1.00
C52    C     0.44491   0.69981   0.30507   0.00000  Uiso   1.00
C53    C     0.38150   0.67691   0.30555   0.00000  Uiso   1.00
C54    C     0.36771   0.59681   0.33677   0.00000  Uiso   1.00
C55    C     0.32051   0.47409   0.38094   0.00000  Uiso   1.00
C56    C     0.50905   0.81450   0.36891   0.00000  Uiso   1.00
C57    C     0.49956   0.88803   0.42310   0.00000  Uiso   1.00
C58    C     0.53976   0.90448   0.50810   0.00000  Uiso   1.00
C59    C     0.59215   0.95984   0.65140   0.00000  Uiso   1.00
C60    C     0.55884   0.68269   0.32835   0.00000  Uiso   1.00
C61    C     0.56625   0.71366   0.21432   0.00000  Uiso   1.00
C62    C     0.61427   0.69160   0.14430   0.00000  Uiso   1.00
C63    C     0.61266   0.72669   0.04344   0.00000  Uiso   1.00
C64    C     0.49283   0.64464   0.33473   0.00000  Uiso   1.00
C65    C     0.47912   0.56455   0.36597   0.00000  Uiso   1.00
C66    C     0.41571   0.54154   0.36649   0.00000  Uiso   1.00
C67    C     0.55697   0.75934   0.39858   0.00000  Uiso   1.00
C68    C     0.59719   0.77567   0.48352   0.00000  Uiso   1.00
C69    C     0.58777   0.84922   0.53782   0.00000  Uiso   1.00
H70    H     0.43330   0.82719   0.25064   0.00000  Uiso   1.00
H71    H     0.47955   0.84664   0.06094   0.00000  Uiso   1.00
H72    H     0.34443   0.71962   0.28260   0.00000  Uiso   1.00
H73    H     0.46247   0.93070   0.40012   0.00000  Uiso   1.00
H74    H     0.55195   0.84385   0.86370   0.00000  Uiso   1.00
H75    H     0.26704   0.57603   0.33109   0.00000  Uiso   1.00
H76    H     0.51596   0.02115   0.57893   0.00000  Uiso   1.00
H77    H     0.59615   0.63974   0.35145   0.00000  Uiso   1.00
H78    H     0.65134   0.64891   0.16728   0.00000  Uiso   1.00
H79    H     0.51622   0.52188   0.38893   0.00000  Uiso   1.00
H80    H     0.63427   0.73297   0.50646   0.00000  Uiso   1.00
H81    H     0.69138   0.68336   0.95000   0.00000  Uiso   1.00
H82    H     0.40647   0.41554   0.41740   0.00000  Uiso   1.00
H83    H     0.65539   0.86066   0.66523   0.00000  Uiso   1.00
O84    O     0.65502   0.77300   0.78386   0.00000  Uiso   1.00
O85    O     0.28123   0.42164   0.39709   0.00000  Uiso   1.00
O86    O     0.60781   0.00562   0.72224   0.00000  Uiso   1.00
N87    N     0.57720   0.80483   0.90929   0.00000  Uiso   1.00
N88    N     0.31082   0.55444   0.34626   0.00000  Uiso   1.00
N89    N     0.54353   0.97057   0.57799   0.00000  Uiso   1.00
N90    N     0.65223   0.71848   0.95573   0.00000  Uiso   1.00
N91    N     0.38585   0.46808   0.39270   0.00000  Uiso   1.00
N92    N     0.61856   0.88422   0.62443   0.00000  Uiso   1.00
C93    C     0.40235   0.77087   0.72828   0.00000  Uiso   1.00
C94    C     0.36073   0.73594   0.81677   0.00000  Uiso   1.00
C95    C     0.35276   0.77000   0.91731   0.00000  Uiso   1.00
C96    C     0.31266   0.72870   0.98693   0.00000  Uiso   1.00
C97    C     0.25277   0.68551   0.12892   0.00000  Uiso   1.00
C98    C     0.44830   0.70220   0.69793   0.00000  Uiso   1.00
C99    C     0.51396   0.70790   0.69854   0.00000  Uiso   1.00
C100   C     0.54758   0.63820   0.66810   0.00000  Uiso   1.00
C101   C     0.62365   0.54265   0.62551   0.00000  Uiso   1.00
C102   C     0.35894   0.78268   0.63232   0.00000  Uiso   1.00
C103   C     0.34948   0.85605   0.57774   0.00000  Uiso   1.00
C104   C     0.30787   0.85410   0.49204   0.00000  Uiso   1.00
C105   C     0.24519   0.88351   0.34759   0.00000  Uiso   1.00
C106   C     0.34531   0.63695   0.67312   0.00000  Uiso   1.00
C107   C     0.32975   0.66320   0.78681   0.00000  Uiso   1.00
C108   C     0.28965   0.62184   0.85629   0.00000  Uiso   1.00
C109   C     0.28162   0.65583   0.95692   0.00000  Uiso   1.00
C110   C     0.41732   0.62947   0.66797   0.00000  Uiso   1.00
C111   C     0.45085   0.55974   0.63752   0.00000  Uiso   1.00
C112   C     0.51654   0.56533   0.63808   0.00000  Uiso   1.00
C113   C     0.32796   0.70995   0.60236   0.00000  Uiso   1.00
C114   C     0.28636   0.70789   0.51672   0.00000  Uiso   1.00
C115   C     0.27683   0.78123   0.46203   0.00000  Uiso   1.00
H116   H     0.42648   0.82749   0.75160   0.00000  Uiso   1.00
H117   H     0.37675   0.82629   0.94047   0.00000  Uiso   1.00
H118   H     0.53793   0.76420   0.72172   0.00000  Uiso   1.00
H119   H     0.37346   0.91232   0.60095   0.00000  Uiso   1.00
H120   H     0.30797   0.79286   0.13668   0.00000  Uiso   1.00
H121   H     0.64782   0.66195   0.67539   0.00000  Uiso   1.00
H122   H     0.30102   0.97430   0.42071   0.00000  Uiso   1.00
H123   H     0.32119   0.58032   0.64979   0.00000  Uiso   1.00
H124   H     0.26568   0.56555   0.83308   0.00000  Uiso   1.00
H125   H     0.42686   0.50347   0.61433   0.00000  Uiso   1.00
H126   H     0.26240   0.65159   0.49356   0.00000  Uiso   1.00
H127   H     0.21783   0.58123   0.04952   0.00000  Uiso   1.00
H128   H     0.55768   0.45033   0.58823   0.00000  Uiso   1.00
H129   H     0.21087   0.76267   0.33355   0.00000  Uiso   1.00
O130   O     0.22830   0.68177   0.21552   0.00000  Uiso   1.00
O131   O     0.67417   0.51004   0.61031   0.00000  Uiso   1.00
O132   O     0.21917   0.91983   0.27619   0.00000  Uiso   1.00
N133   N     0.29436   0.74509   0.09100   0.00000  Uiso   1.00
N134   N     0.61210   0.62269   0.65974   0.00000  Uiso   1.00
N135   N     0.28788   0.91471   0.42163   0.00000  Uiso   1.00
N136   N     0.24586   0.63121   0.04410   0.00000  Uiso   1.00
N137   N     0.56359   0.50882   0.61284   0.00000  Uiso   1.00
N138   N     0.23938   0.80083   0.37472   0.00000  Uiso   1.00
C139   C     0.52939   0.21575   0.77374   0.00000  Uiso   1.00
C140   C     0.48167   0.23117   0.68465   0.00000  Uiso   1.00
C141   C     0.48335   0.19604   0.58387   0.00000  Uiso   1.00
C142   C     0.43535   0.21805   0.51372   0.00000  Uiso   1.00
C143   C     0.36857   0.23364   0.37086   0.00000  Uiso   1.00
C144   C     0.55509   0.30019   0.80507   0.00000  Uiso   1.00
C145   C     0.61850   0.32309   0.80555   0.00000  Uiso   1.00
C146   C     0.63229   0.40319   0.83677   0.00000  Uiso   1.00
C147   C     0.67949   0.52591   0.88094   0.00000  Uiso   1.00
C148   C     0.49095   0.18550   0.86891   0.00000  Uiso   1.00
C149   C     0.50044   0.11197   0.92310   0.00000  Uiso   1.00
C150   C     0.46024   0.09552   0.00810   0.00000  Uiso   1.00
C151   C     0.40785   0.04016   0.15140   0.00000  Uiso   1.00
C152   C     0.44116   0.31731   0.82835   0.00000  Uiso   1.00
C153   C     0.43375   0.28634   0.71432   0.00000  Uiso   1.00
C154   C     0.38573   0.30840   0.64430   0.00000  Uiso   1.00
C155   C     0.38734   0.27331   0.54344   0.00000  Uiso   1.00
C156   C     0.50717   0.35536   0.83473   0.00000  Uiso   1.00
C157   C     0.52088   0.43545   0.86597   0.00000  Uiso   1.00
C158   C     0.58429   0.45846   0.86649   0.00000  Uiso   1.00
C159   C     0.44303   0.24066   0.89858   0.00000  Uiso   1.00
C160   C     0.40281   0.22433   0.98352   0.00000  Uiso   1.00
C161   C     0.41223   0.15078   0.03782   0.00000  Uiso   1.00
H162   H     0.56670   0.17281   0.75064   0.00000  Uiso   1.00
H163   H     0.52045   0.15336   0.56094   0.00000  Uiso   1.00
H164   H     0.65557   0.28038   0.78260   0.00000  Uiso   1.00
H165   H     0.53753   0.06930   0.90012   0.00000  Uiso   1.00
H166   H     0.44805   0.15615   0.36370   0.00000  Uiso   1.00
H167   H     0.73296   0.42397   0.83109   0.00000  Uiso   1.00
H168   H     0.48404   0.97885   0.07893   0.00000  Uiso   1.00
H169   H     0.40385   0.36026   0.85145   0.00000  Uiso   1.00
H170   H     0.34866   0.35109   0.66728   0.00000  Uiso   1.00
H171   H     0.48378   0.47812   0.88893   0.00000  Uiso   1.00
H172   H     0.36573   0.26703   0.00646   0.00000  Uiso   1.00
H173   H     0.30862   0.31664   0.45000   0.00000  Uiso   1.00
H174   H     0.59353   0.58446   0.91740   0.00000  Uiso   1.00
H175   H     0.34461   0.13934   0.16523   0.00000  Uiso   1.00
O176   O     0.34498   0.22700   0.28386   0.00000  Uiso   1.00
O177   O     0.71877   0.57836   0.89709   0.00000  Uiso   1.00
O178   O     0.39219   0.99438   0.22224   0.00000  Uiso   1.00
N179   N     0.42280   0.19517   0.40929   0.00000  Uiso   1.00
N180   N     0.68918   0.44556   0.84626   0.00000  Uiso   1.00
N181   N     0.45647   0.02943   0.07799   0.00000  Uiso   1.00
N182   N     0.34777   0.28152   0.45573   0.00000  Uiso   1.00
N183   N     0.61415   0.53192   0.89270   0.00000  Uiso   1.00
N184   N     0.38144   0.11578   0.12443   0.00000  Uiso   1.00
C185   C     0.09765   0.27087   0.22828   0.00000  Uiso   1.00
C186   C     0.13927   0.23594   0.31677   0.00000  Uiso   1.00
C187   C     0.14724   0.27000   0.41731   0.00000  Uiso   1.00
C188   C     0.18734   0.22870   0.48693   0.00000  Uiso   1.00
C189   C     0.24723   0.18551   0.62892   0.00000  Uiso   1.00
C190   C     0.05170   0.20220   0.19793   0.00000  Uiso   1.00
C191   C     0.98604   0.20790   0.19854   0.00000  Uiso   1.00
C192   C     0.95242   0.13820   0.16810   0.00000  Uiso   1.00
C193   C     0.87635   0.04265   0.12551   0.00000  Uiso   1.00
C194   C     0.14106   0.28268   0.13232   0.00000  Uiso   1.00
C195   C     0.15052   0.35605   0.07774   0.00000  Uiso   1.00
C196   C     0.19213   0.35410   0.99204   0.00000  Uiso   1.00
C197   C     0.25481   0.38351   0.84759   0.00000  Uiso   1.00
C198   C     0.15469   0.13695   0.17312   0.00000  Uiso   1.00
C199   C     0.17025   0.16320   0.28681   0.00000  Uiso   1.00
C200   C     0.21035   0.12184   0.35629   0.00000  Uiso   1.00
C201   C     0.21838   0.15583   0.45692   0.00000  Uiso   1.00
C202   C     0.08268   0.12947   0.16797   0.00000  Uiso   1.00
C203   C     0.04915   0.05974   0.13752   0.00000  Uiso   1.00
C204   C     0.98346   0.06533   0.13808   0.00000  Uiso   1.00
C205   C     0.17204   0.20995   0.10236   0.00000  Uiso   1.00
C206   C     0.21364   0.20789   0.01672   0.00000  Uiso   1.00
C207   C     0.22317   0.28123   0.96203   0.00000  Uiso   1.00
H208   H     0.07352   0.32749   0.25160   0.00000  Uiso   1.00
H209   H     0.12325   0.32629   0.44047   0.00000  Uiso   1.00
H210   H     0.96207   0.26420   0.22172   0.00000  Uiso   1.00
H211   H     0.12654   0.41232   0.10095   0.00000  Uiso   1.00
H212   H     0.19203   0.29286   0.63668   0.00000  Uiso   1.00
H213   H     0.85218   0.16195   0.17539   0.00000  Uiso   1.00
H214   H     0.19898   0.47430   0.92071   0.00000  Uiso   1.00
H215   H     0.17881   0.08032   0.14979   0.00000  Uiso   1.00
H216   H     0.23432   0.06555   0.33308   0.00000  Uiso   1.00
H217   H     0.07314   0.00347   0.11433   0.00000  Uiso   1.00
H218   H     0.23760   0.15159   0.99356   0.00000  Uiso   1.00
H219   H     0.28217   0.08123   0.54952   0.00000  Uiso   1.00
H220   H     0.94232   0.95033   0.08823   0.00000  Uiso   1.00
H221   H     0.28913   0.26267   0.83355   0.00000  Uiso   1.00
O222   O     0.27170   0.18177   0.71552   0.00000  Uiso   1.00
O223   O     0.82583   0.01004   0.11031   0.00000  Uiso   1.00
O224   O     0.28083   0.41983   0.77619   0.00000  Uiso   1.00
N225   N     0.20564   0.24509   0.59100   0.00000  Uiso   1.00
N226   N     0.88790   0.12269   0.15974   0.00000  Uiso   1.00
N227   N     0.21212   0.41471   0.92163   0.00000  Uiso   1.00
N228   N     0.25414   0.13121   0.54410   0.00000  Uiso   1.00
N229   N     0.93641   0.00882   0.11284   0.00000  Uiso   1.00
N230   N     0.26062   0.30083   0.87472   0.00000  Uiso   1.00
C231   C     0.97061   0.71575   0.27374   0.00000  Uiso   1.00
C232   C     0.01833   0.73117   0.18465   0.00000  Uiso   1.00
C233   C     0.01665   0.69604   0.08387   0.00000  Uiso   1.00
C234   C     0.06465   0.71805   0.01372   0.00000  Uiso   1.00
C235   C     0.13143   0.73364   0.87086   0.00000  Uiso   1.00
C236   C     0.94491   0.80019   0.30507   0.00000  Uiso   1.00
C237   C     0.88150   0.82309   0.30555   0.00000  Uiso   1.00
C238   C     0.86771   0.90319   0.33677   0.00000  Uiso   1.00
C239   C     0.82051   0.02591   0.38094   0.00000  Uiso   1.00
C240   C     0.00905   0.68550   0.36891   0.00000  Uiso   1.00
C241   C     0.99956   0.61197   0.42310   0.00000  Uiso   1.00
C242   C     0.03976   0.59552   0.50810   0.00000  Uiso   1.00
C243   C     0.09215   0.54016   0.65140   0.00000  Uiso   1.00
C244   C     0.05884   0.81731   0.32835   0.00000  Uiso   1.00
C245   C     0.06625   0.78634   0.21432   0.00000  Uiso   1.00
C246   C     0.11427   0.80840   0.14430   0.00000  Uiso   1.00
C247   C     0.11266   0.77331   0.04344   0.00000  Uiso   1.00
C248   C     0.99283   0.85536   0.33473   0.00000  Uiso   1.00
C249   C     0.97912   0.93545   0.36597   0.00000  Uiso   1.00
C250   C     0.91571   0.95846   0.36649   0.00000  Uiso   1.00
C251   C     0.05697   0.74066   0.39858   0.00000  Uiso   1.00
C252   C     0.09719   0.72433   0.48352   0.00000  Uiso   1.00
C253   C     0.08777   0.65078   0.53782   0.00000  Uiso   1.00
H254   H     0.93330   0.67281   0.25064   0.00000  Uiso   1.00
H255   H     0.97955   0.65336   0.06094   0.00000  Uiso   1.00
H256   H     0.84443   0.78038   0.28260   0.00000  Uiso   1.00
H257   H     0.96247   0.56930   0.40012   0.00000  Uiso   1.00
H258   H     0.05195   0.65615   0.86370   0.00000  Uiso   1.00
H259   H     0.76704   0.92397   0.33109   0.00000  Uiso   1.00
H260   H     0.01596   0.47885   0.57893   0.00000  Uiso   1.00
H261   H     0.09615   0.86026   0.35145   0.00000  Uiso   1.00
H262   H     0.15134   0.85109   0.16728   0.00000  Uiso   1.00
H263   H     0.01622   0.97812   0.38893   0.00000  Uiso   1.00
H264   H     0.13427   0.76703   0.50646   0.00000  Uiso   1.00
H265   H     0.19138   0.81664   0.95000   0.00000  Uiso   1.00
H266   H     0.90647   0.08446   0.41740   0.00000  Uiso   1.00
H267   H     0.15539   0.63934   0.66523   0.00000  Uiso   1.00
O268   O     0.15502   0.72700   0.78386   0.00000  Uiso   1.00
O269   O     0.78123   0.07836   0.39709   0.00000  Uiso   1.00
O270   O     0.10781   0.49438   0.72224   0.00000  Uiso   1.00
N271   N     0.07720   0.69517   0.90929   0.00000  Uiso   1.00
N272   N     0.81082   0.94556   0.34626   0.00000  Uiso   1.00
N273   N     0.04353   0.52943   0.57799   0.00000  Uiso   1.00
N274   N     0.15223   0.78152   0.95573   0.00000  Uiso   1.00
N275   N     0.88585   0.03192   0.39270   0.00000  Uiso   1.00
N276   N     0.11856   0.61578   0.62443   0.00000  Uiso   1.00
C277   C     0.90235   0.72913   0.72828   0.00000  Uiso   1.00
C278   C     0.86073   0.76406   0.81677   0.00000  Uiso   1.00
C279   C     0.85276   0.73000   0.91731   0.00000  Uiso   1.00
C280   C     0.81266   0.77130   0.98693   0.00000  Uiso   1.00
C281   C     0.75277   0.81449   0.12892   0.00000  Uiso   1.00
C282   C     0.94830   0.79780   0.69793   0.00000  Uiso   1.00
C283   C     0.01396   0.79210   0.69854   0.00000  Uiso   1.00
C284   C     0.04758   0.86180   0.66810   0.00000  Uiso   1.00
C285   C     0.12365   0.95735   0.62551   0.00000  Uiso   1.00
C286   C     0.85894   0.71732   0.63232   0.00000  Uiso   1.00
C287   C     0.84948   0.64395   0.57774   0.00000  Uiso   1.00
C288   C     0.80787   0.64590   0.49204   0.00000  Uiso   1.00
C289   C     0.74519   0.61649   0.34759   0.00000  Uiso   1.00
C290   C     0.84531   0.86305   0.67312   0.00000  Uiso   1.00
C291   C     0.82975   0.83680   0.78681   0.00000  Uiso   1.00
C292   C     0.78965   0.87816   0.85629   0.00000  Uiso   1.00
C293   C     0.78162   0.84417   0.95692   0.00000  Uiso   1.00
C294   C     0.91732   0.87053   0.66797   0.00000  Uiso   1.00
C295   C     0.95085   0.94026   0.63752   0.00000  Uiso   1.00
C296   C     0.01654   0.93467   0.63808   0.00000  Uiso   1.00
C297   C     0.82796   0.79005   0.60236   0.00000  Uiso   1.00
C298   C     0.78636   0.79211   0.51672   0.00000  Uiso   1.00
C299   C     0.77683   0.71877   0.46203   0.00000  Uiso   1.00
H300   H     0.92648   0.67251   0.75160   0.00000  Uiso   1.00
H301   H     0.87675   0.67371   0.94047   0.00000  Uiso   1.00
H302   H     0.03793   0.73580   0.72172   0.00000  Uiso   1.00
H303   H     0.87346   0.58768   0.60095   0.00000  Uiso   1.00
H304   H     0.80797   0.70714   0.13668   0.00000  Uiso   1.00
H305   H     0.14782   0.83805   0.67539   0.00000  Uiso   1.00
H306   H     0.80102   0.52570   0.42071   0.00000  Uiso   1.00
H307   H     0.82119   0.91968   0.64979   0.00000  Uiso   1.00
H308   H     0.76568   0.93445   0.83308   0.00000  Uiso   1.00
H309   H     0.92686   0.99653   0.61433   0.00000  Uiso   1.00
H310   H     0.76240   0.84841   0.49356   0.00000  Uiso   1.00
H311   H     0.71783   0.91877   0.04952   0.00000  Uiso   1.00
H312   H     0.05768   0.04967   0.58823   0.00000  Uiso   1.00
H313   H     0.71087   0.73733   0.33355   0.00000  Uiso   1.00
O314   O     0.72830   0.81823   0.21552   0.00000  Uiso   1.00
O315   O     0.17417   0.98996   0.61031   0.00000  Uiso   1.00
O316   O     0.71917   0.58017   0.27619   0.00000  Uiso   1.00
N317   N     0.79436   0.75491   0.09100   0.00000  Uiso   1.00
N318   N     0.11210   0.87731   0.65974   0.00000  Uiso   1.00
N319   N     0.78788   0.58529   0.42163   0.00000  Uiso   1.00
N320   N     0.74586   0.86879   0.04410   0.00000  Uiso   1.00
N321   N     0.06359   0.99118   0.61284   0.00000  Uiso   1.00
N322   N     0.73938   0.69917   0.37472   0.00000  Uiso   1.00
C323   C     0.02939   0.28425   0.77374   0.00000  Uiso   1.00
C324   C     0.98167   0.26883   0.68465   0.00000  Uiso   1.00
C325   C     0.98335   0.30396   0.58387   0.00000  Uiso   1.00
C326   C     0.93535   0.28195   0.51372   0.00000  Uiso   1.00
C327   C     0.86857   0.26636   0.37086   0.00000  Uiso   1.00
C328   C     0.05509   0.19981   0.80507   0.00000  Uiso   1.00
C329   C     0.11850   0.17691   0.80555   0.00000  Uiso   1.00
C330   C     0.13229   0.09681   0.83677   0.00000  Uiso   1.00
C331   C     0.17949   0.97409   0.88094   0.00000  Uiso   1.00
C332   C     0.99095   0.31450   0.86891   0.00000  Uiso   1.00
C333   C     0.00044   0.38803   0.92310   0.00000  Uiso   1.00
C334   C     0.96024   0.40448   0.00810   0.00000  Uiso   1.00
C335   C     0.90785   0.45984   0.15140   0.00000  Uiso   1.00
C336   C     0.94116   0.18269   0.82835   0.00000  Uiso   1.00
C337   C     0.93375   0.21366   0.71432   0.00000  Uiso   1.00
C338   C     0.88573   0.19160   0.64430   0.00000  Uiso   1.00
C339   C     0.88734   0.22669   0.54344   0.00000  Uiso   1.00
C340   C     0.00717   0.14464   0.83473   0.00000  Uiso   1.00
C341   C     0.02088   0.06455   0.86597   0.00000  Uiso   1.00
C342   C     0.08429   0.04154   0.86649   0.00000  Uiso   1.00
C343   C     0.94303   0.25934   0.89858   0.00000  Uiso   1.00
C344   C     0.90281   0.27567   0.98352   0.00000  Uiso   1.00
C345   C     0.91223   0.34922   0.03782   0.00000  Uiso   1.00
H346   H     0.06670   0.32719   0.75064   0.00000  Uiso   1.00
H347   H     0.02045   0.34664   0.56094   0.00000  Uiso   1.00
H348   H     0.15557   0.21962   0.78260   0.00000  Uiso   1.00
H349   H     0.03753   0.43070   0.90012   0.00000  Uiso   1.00
H350   H     0.94805   0.34385   0.36370   0.00000  Uiso   1.00
H351   H     0.23296   0.07603   0.83109   0.00000  Uiso   1.00
H352   H     0.98404   0.52115   0.07893   0.00000  Uiso   1.00
H353   H     0.90385   0.13974   0.85145   0.00000  Uiso   1.00
H354   H     0.84866   0.14891   0.66728   0.00000  Uiso   1.00
H355   H     0.98378   0.02188   0.88893   0.00000  Uiso   1.00
H356   H     0.86573   0.23297   0.00646   0.00000  Uiso   1.00
H357   H     0.80862   0.18336   0.45000   0.00000  Uiso   1.00
H358   H     0.09353   0.91554   0.91740   0.00000  Uiso   1.00
H359   H     0.84461   0.36066   0.16523   0.00000  Uiso   1.00
O360   O     0.84498   0.27300   0.28386   0.00000  Uiso   1.00
O361   O     0.21877   0.92164   0.89709   0.00000  Uiso   1.00
O362   O     0.89219   0.50562   0.22224   0.00000  Uiso   1.00
N363   N     0.92280   0.30483   0.40929   0.00000  Uiso   1.00
N364   N     0.18918   0.05444   0.84626   0.00000  Uiso   1.00
N365   N     0.95647   0.47057   0.07799   0.00000  Uiso   1.00
N366   N     0.84777   0.21848   0.45573   0.00000  Uiso   1.00
N367   N     0.11415   0.96808   0.89270   0.00000  Uiso   1.00
N368   N     0.88144   0.38422   0.12443   0.00000  Uiso   1.00
