data_job_06289
_audit_creation_date              2018-12-19
_audit_creation_method            'Materials Studio'
_symmetry_space_group_name_H-M    'P1'
_symmetry_Int_Tables_number       1
_symmetry_cell_setting            triclinic
loop_
_symmetry_equiv_pos_as_xyz
  x,y,z
_cell_length_a                    18.7807
_cell_length_b                    19.0410
_cell_length_c                    19.1999
_cell_angle_alpha                 106.4870
_cell_angle_beta                  106.6970
_cell_angle_gamma                 106.6310
loop_
_atom_site_label
_atom_site_type_symbol
_atom_site_fract_x
_atom_site_fract_y
_atom_site_fract_z
_atom_site_U_iso_or_equiv
_atom_site_adp_type
_atom_site_occupancy
C1     C     0.90612   0.64777   0.03713   0.00000  Uiso   1.00
C2     C     0.84116   0.58412   0.04445   0.00000  Uiso   1.00
C3     C     0.84970   0.56484   0.11003   0.00000  Uiso   1.00
C4     C     0.78318   0.50483   0.10504   0.00000  Uiso   1.00
C5     C     0.69334   0.41196   0.12674   0.00000  Uiso   1.00
C6     C     0.91741   0.60513   0.96343   0.00000  Uiso   1.00
C7     C     0.99006   0.60353   0.96090   0.00000  Uiso   1.00
C8     C     0.98773   0.56121   0.88770   0.00000  Uiso   1.00
C9     C     0.01628   0.50099   0.78362   0.00000  Uiso   1.00
C10    C     0.86843   0.70450   0.01752   0.00000  Uiso   1.00
C11    C     0.89991   0.78645   0.06046   0.00000  Uiso   1.00
C12    C     0.85634   0.82780   0.03280   0.00000  Uiso   1.00
C13    C     0.80884   0.92187   0.01271   0.00000  Uiso   1.00
C14    C     0.77280   0.57547   0.91165   0.00000  Uiso   1.00
C15    C     0.76875   0.54485   0.97628   0.00000  Uiso   1.00
C16    C     0.70219   0.48485   0.97119   0.00000  Uiso   1.00
C17    C     0.71063   0.46549   0.03676   0.00000  Uiso   1.00
C18    C     0.84500   0.56586   0.89527   0.00000  Uiso   1.00
C19    C     0.84255   0.52354   0.82206   0.00000  Uiso   1.00
C20    C     0.91518   0.52187   0.81942   0.00000  Uiso   1.00
C21    C     0.79601   0.66523   0.94937   0.00000  Uiso   1.00
C22    C     0.75239   0.70646   0.92163   0.00000  Uiso   1.00
C23    C     0.78379   0.78846   0.96452   0.00000  Uiso   1.00
H24    H     0.96251   0.67834   0.09019   0.00000  Uiso   1.00
H25    H     0.90576   0.59524   0.16276   0.00000  Uiso   1.00
H26    H     0.04610   0.63393   0.01365   0.00000  Uiso   1.00
H27    H     0.95595   0.81682   0.11320   0.00000  Uiso   1.00
H28    H     0.81092   0.48578   0.21315   0.00000  Uiso   1.00
H29    H     0.10684   0.56737   0.89873   0.00000  Uiso   1.00
H30    H     0.91674   0.95304   0.10866   0.00000  Uiso   1.00
H31    H     0.71641   0.54489   0.85858   0.00000  Uiso   1.00
H32    H     0.64616   0.45448   0.91844   0.00000  Uiso   1.00
H33    H     0.78650   0.49316   0.76933   0.00000  Uiso   1.00
H34    H     0.69635   0.67605   0.86888   0.00000  Uiso   1.00
H35    H     0.60022   0.37153   0.01485   0.00000  Uiso   1.00
H36    H     0.89614   0.45312   0.70043   0.00000  Uiso   1.00
H37    H     0.70604   0.83879   0.91036   0.00000  Uiso   1.00
O38    O     0.66380   0.37156   0.15754   0.00000  Uiso   1.00
O39    O     0.05204   0.47862   0.74505   0.00000  Uiso   1.00
O40    O     0.80263   0.98461   0.02046   0.00000  Uiso   1.00
N41    N     0.77097   0.47131   0.15827   0.00000  Uiso   1.00
N42    N     0.04763   0.54758   0.86431   0.00000  Uiso   1.00
N43    N     0.86992   0.90815   0.06056   0.00000  Uiso   1.00
N44    N     0.65759   0.40983   0.05156   0.00000  Uiso   1.00
N45    N     0.93425   0.48610   0.75761   0.00000  Uiso   1.00
N46    N     0.75654   0.84668   0.95386   0.00000  Uiso   1.00
C47    C     0.03464   0.90242   0.64557   0.00000  Uiso   1.00
C48    C     0.04268   0.83869   0.58285   0.00000  Uiso   1.00
C49    C     0.10999   0.84754   0.56423   0.00000  Uiso   1.00
C50    C     0.10540   0.78219   0.50503   0.00000  Uiso   1.00
C51    C     0.12844   0.69414   0.41356   0.00000  Uiso   1.00
C52    C     0.95901   0.91311   0.60271   0.00000  Uiso   1.00
C53    C     0.95596   0.98454   0.60080   0.00000  Uiso   1.00
C54    C     0.88094   0.98184   0.55831   0.00000  Uiso   1.00
C55    C     0.77406   0.00935   0.49773   0.00000  Uiso   1.00
C56    C     0.01462   0.86513   0.70178   0.00000  Uiso   1.00
C57    C     0.05832   0.89622   0.78317   0.00000  Uiso   1.00
C58    C     0.03011   0.85313   0.82410   0.00000  Uiso   1.00
C59    C     0.00958   0.80613   0.91734   0.00000  Uiso   1.00
C60    C     0.90681   0.77062   0.57353   0.00000  Uiso   1.00
C61    C     0.97325   0.76710   0.54372   0.00000  Uiso   1.00
C62    C     0.96856   0.70172   0.48453   0.00000  Uiso   1.00
C63    C     0.03585   0.71047   0.46583   0.00000  Uiso   1.00
C64    C     0.88958   0.84153   0.56358   0.00000  Uiso   1.00
C65    C     0.81454   0.83872   0.52109   0.00000  Uiso   1.00
C66    C     0.81138   0.91013   0.51911   0.00000  Uiso   1.00
C67    C     0.94519   0.79354   0.66265   0.00000  Uiso   1.00
C68    C     0.91690   0.75039   0.70346   0.00000  Uiso   1.00
C69    C     0.96055   0.78141   0.78490   0.00000  Uiso   1.00
H70    H     0.08869   0.95815   0.67604   0.00000  Uiso   1.00
H71    H     0.16371   0.90295   0.59453   0.00000  Uiso   1.00
H72    H     0.00970   0.03993   0.63109   0.00000  Uiso   1.00
H73    H     0.11205   0.95162   0.81343   0.00000  Uiso   1.00
H74    H     0.21624   0.81020   0.48688   0.00000  Uiso   1.00
H75    H     0.89151   0.09903   0.56400   0.00000  Uiso   1.00
H76    H     0.10734   0.91281   0.94851   0.00000  Uiso   1.00
H77    H     0.85275   0.71488   0.54306   0.00000  Uiso   1.00
H78    H     0.91482   0.64633   0.45425   0.00000  Uiso   1.00
H79    H     0.76082   0.78331   0.49082   0.00000  Uiso   1.00
H80    H     0.86317   0.69500   0.67316   0.00000  Uiso   1.00
H81    H     0.01424   0.60191   0.37303   0.00000  Uiso   1.00
H82    H     0.68951   0.89075   0.45015   0.00000  Uiso   1.00
H83    H     0.90533   0.70452   0.83466   0.00000  Uiso   1.00
O84    O     0.16032   0.66536   0.37392   0.00000  Uiso   1.00
O85    O     0.73429   0.04431   0.47511   0.00000  Uiso   1.00
O86    O     0.01744   0.79998   0.97957   0.00000  Uiso   1.00
N87    N     0.16019   0.77058   0.47228   0.00000  Uiso   1.00
N88    N     0.85659   0.04062   0.54438   0.00000  Uiso   1.00
N89    N     0.05835   0.86653   0.90386   0.00000  Uiso   1.00
N90    N     0.05149   0.65850   0.41102   0.00000  Uiso   1.00
N91    N     0.74789   0.92855   0.48311   0.00000  Uiso   1.00
N92    N     0.94966   0.75445   0.84260   0.00000  Uiso   1.00
C93    C     0.64850   0.03575   0.90162   0.00000  Uiso   1.00
C94    C     0.58421   0.04336   0.83796   0.00000  Uiso   1.00
C95    C     0.56467   0.10941   0.84630   0.00000  Uiso   1.00
C96    C     0.50406   0.10463   0.78112   0.00000  Uiso   1.00
C97    C     0.41022   0.12684   0.69308   0.00000  Uiso   1.00
C98    C     0.60495   0.96108   0.91220   0.00000  Uiso   1.00
C99    C     0.60285   0.95796   0.98296   0.00000  Uiso   1.00
C100   C     0.55971   0.88391   0.98027   0.00000  Uiso   1.00
C101   C     0.49812   0.77837   0.00750   0.00000  Uiso   1.00
C102   C     0.70640   0.01649   0.86520   0.00000  Uiso   1.00
C103   C     0.78961   0.05994   0.89646   0.00000  Uiso   1.00
C104   C     0.83189   0.03253   0.85421   0.00000  Uiso   1.00
C105   C     0.92782   0.01302   0.80847   0.00000  Uiso   1.00
C106   C     0.57562   0.90980   0.77103   0.00000  Uiso   1.00
C107   C     0.54462   0.97495   0.76703   0.00000  Uiso   1.00
C108   C     0.48403   0.97007   0.70182   0.00000  Uiso   1.00
C109   C     0.46440   0.03610   0.71006   0.00000  Uiso   1.00
C110   C     0.56536   0.89267   0.84127   0.00000  Uiso   1.00
C111   C     0.52222   0.81861   0.83848   0.00000  Uiso   1.00
C112   C     0.52005   0.81538   0.90921   0.00000  Uiso   1.00
C113   C     0.66681   0.94808   0.79427   0.00000  Uiso   1.00
C114   C     0.70897   0.92059   0.75197   0.00000  Uiso   1.00
C115   C     0.79223   0.96399   0.78315   0.00000  Uiso   1.00
H116   H     0.67932   0.08901   0.95685   0.00000  Uiso   1.00
H117   H     0.59531   0.16234   0.90121   0.00000  Uiso   1.00
H118   H     0.63350   0.01091   0.03784   0.00000  Uiso   1.00
H119   H     0.82022   0.11287   0.95135   0.00000  Uiso   1.00
H120   H     0.48469   0.21347   0.80826   0.00000  Uiso   1.00
H121   H     0.56523   0.89415   0.09636   0.00000  Uiso   1.00
H122   H     0.95898   0.10917   0.91398   0.00000  Uiso   1.00
H123   H     0.54480   0.85654   0.71580   0.00000  Uiso   1.00
H124   H     0.45341   0.91712   0.64693   0.00000  Uiso   1.00
H125   H     0.49159   0.76568   0.78357   0.00000  Uiso   1.00
H126   H     0.67832   0.86765   0.69708   0.00000  Uiso   1.00
H127   H     0.36952   0.01444   0.60188   0.00000  Uiso   1.00
H128   H     0.45006   0.69512   0.88999   0.00000  Uiso   1.00
H129   H     0.84381   0.91014   0.70760   0.00000  Uiso   1.00
O130   O     0.36939   0.15799   0.66412   0.00000  Uiso   1.00
O131   O     0.47508   0.73906   0.04211   0.00000  Uiso   1.00
O132   O     0.99166   0.02116   0.80282   0.00000  Uiso   1.00
N133   N     0.47014   0.15832   0.76913   0.00000  Uiso   1.00
N134   N     0.54543   0.85978   0.03849   0.00000  Uiso   1.00
N135   N     0.91356   0.06079   0.86799   0.00000  Uiso   1.00
N136   N     0.40817   0.05122   0.65808   0.00000  Uiso   1.00
N137   N     0.48346   0.75268   0.92744   0.00000  Uiso   1.00
N138   N     0.85158   0.95370   0.75694   0.00000  Uiso   1.00
C139   C     0.09388   0.35223   0.96287   0.00000  Uiso   1.00
C140   C     0.15884   0.41588   0.95555   0.00000  Uiso   1.00
C141   C     0.15030   0.43515   0.88997   0.00000  Uiso   1.00
C142   C     0.21682   0.49517   0.89496   0.00000  Uiso   1.00
C143   C     0.30666   0.58804   0.87325   0.00000  Uiso   1.00
C144   C     0.08259   0.39487   0.03657   0.00000  Uiso   1.00
C145   C     0.00993   0.39647   0.03910   0.00000  Uiso   1.00
C146   C     0.01227   0.43879   0.11230   0.00000  Uiso   1.00
C147   C     0.98372   0.49901   0.21638   0.00000  Uiso   1.00
C148   C     0.13157   0.29550   0.98248   0.00000  Uiso   1.00
C149   C     0.10009   0.21355   0.93954   0.00000  Uiso   1.00
C150   C     0.14366   0.17220   0.96720   0.00000  Uiso   1.00
C151   C     0.19116   0.07813   0.98729   0.00000  Uiso   1.00
C152   C     0.22720   0.42453   0.08835   0.00000  Uiso   1.00
C153   C     0.23125   0.45515   0.02372   0.00000  Uiso   1.00
C154   C     0.29781   0.51514   0.02881   0.00000  Uiso   1.00
C155   C     0.28937   0.53450   0.96324   0.00000  Uiso   1.00
C156   C     0.15500   0.43414   0.10473   0.00000  Uiso   1.00
C157   C     0.15745   0.47646   0.17794   0.00000  Uiso   1.00
C158   C     0.08482   0.47813   0.18058   0.00000  Uiso   1.00
C159   C     0.20399   0.33477   0.05063   0.00000  Uiso   1.00
C160   C     0.24761   0.29354   0.07837   0.00000  Uiso   1.00
C161   C     0.21621   0.21154   0.03548   0.00000  Uiso   1.00
H162   H     0.03749   0.32166   0.90981   0.00000  Uiso   1.00
H163   H     0.09424   0.40476   0.83724   0.00000  Uiso   1.00
H164   H     0.95390   0.36607   0.98635   0.00000  Uiso   1.00
H165   H     0.04405   0.18318   0.88680   0.00000  Uiso   1.00
H166   H     0.18908   0.51422   0.78685   0.00000  Uiso   1.00
H167   H     0.89316   0.43263   0.10126   0.00000  Uiso   1.00
H168   H     0.08326   0.04696   0.89134   0.00000  Uiso   1.00
H169   H     0.28359   0.45511   0.14142   0.00000  Uiso   1.00
H170   H     0.35384   0.54552   0.08156   0.00000  Uiso   1.00
H171   H     0.21350   0.50684   0.23067   0.00000  Uiso   1.00
H172   H     0.30365   0.32395   0.13112   0.00000  Uiso   1.00
H173   H     0.39978   0.62847   0.98515   0.00000  Uiso   1.00
H174   H     0.10386   0.54688   0.29957   0.00000  Uiso   1.00
H175   H     0.29396   0.16121   0.08964   0.00000  Uiso   1.00
O176   O     0.33620   0.62843   0.84246   0.00000  Uiso   1.00
O177   O     0.94796   0.52138   0.25495   0.00000  Uiso   1.00
O178   O     0.19737   0.01539   0.97954   0.00000  Uiso   1.00
N179   N     0.22903   0.52869   0.84173   0.00000  Uiso   1.00
N180   N     0.95237   0.45242   0.13569   0.00000  Uiso   1.00
N181   N     0.13008   0.09184   0.93944   0.00000  Uiso   1.00
N182   N     0.34241   0.59017   0.94844   0.00000  Uiso   1.00
N183   N     0.06575   0.51390   0.24239   0.00000  Uiso   1.00
N184   N     0.24346   0.15332   0.04614   0.00000  Uiso   1.00
C185   C     0.96536   0.09758   0.35443   0.00000  Uiso   1.00
C186   C     0.95732   0.16131   0.41715   0.00000  Uiso   1.00
C187   C     0.89001   0.15246   0.43576   0.00000  Uiso   1.00
C188   C     0.89460   0.21781   0.49497   0.00000  Uiso   1.00
C189   C     0.87156   0.30586   0.58644   0.00000  Uiso   1.00
C190   C     0.04099   0.08689   0.39729   0.00000  Uiso   1.00
C191   C     0.04404   0.01546   0.39920   0.00000  Uiso   1.00
C192   C     0.11906   0.01816   0.44169   0.00000  Uiso   1.00
C193   C     0.22594   0.99065   0.50227   0.00000  Uiso   1.00
C194   C     0.98538   0.13487   0.29822   0.00000  Uiso   1.00
C195   C     0.94168   0.10378   0.21683   0.00000  Uiso   1.00
C196   C     0.96989   0.14687   0.17590   0.00000  Uiso   1.00
C197   C     0.99042   0.19387   0.08266   0.00000  Uiso   1.00
C198   C     0.09319   0.22938   0.42647   0.00000  Uiso   1.00
C199   C     0.02675   0.23290   0.45628   0.00000  Uiso   1.00
C200   C     0.03144   0.29828   0.51547   0.00000  Uiso   1.00
C201   C     0.96415   0.28953   0.53417   0.00000  Uiso   1.00
C202   C     0.11042   0.15847   0.43642   0.00000  Uiso   1.00
C203   C     0.18546   0.16128   0.47891   0.00000  Uiso   1.00
C204   C     0.18862   0.08987   0.48089   0.00000  Uiso   1.00
C205   C     0.05481   0.20646   0.33735   0.00000  Uiso   1.00
C206   C     0.08310   0.24960   0.29654   0.00000  Uiso   1.00
C207   C     0.03945   0.21859   0.21510   0.00000  Uiso   1.00
H208   H     0.91131   0.04185   0.32396   0.00000  Uiso   1.00
H209   H     0.83629   0.09705   0.40547   0.00000  Uiso   1.00
H210   H     0.99030   0.96007   0.36891   0.00000  Uiso   1.00
H211   H     0.88795   0.04838   0.18657   0.00000  Uiso   1.00
H212   H     0.78376   0.18980   0.51312   0.00000  Uiso   1.00
H213   H     0.10849   0.90097   0.43600   0.00000  Uiso   1.00
H214   H     0.89266   0.08719   0.05149   0.00000  Uiso   1.00
H215   H     0.14725   0.28512   0.45694   0.00000  Uiso   1.00
H216   H     0.08518   0.35367   0.54575   0.00000  Uiso   1.00
H217   H     0.23918   0.21669   0.50918   0.00000  Uiso   1.00
H218   H     0.13683   0.30500   0.32684   0.00000  Uiso   1.00
H219   H     0.98576   0.39809   0.62697   0.00000  Uiso   1.00
H220   H     0.31049   0.10925   0.54985   0.00000  Uiso   1.00
H221   H     0.09467   0.29548   0.16534   0.00000  Uiso   1.00
O222   O     0.83968   0.33464   0.62608   0.00000  Uiso   1.00
O223   O     0.26571   0.95569   0.52489   0.00000  Uiso   1.00
O224   O     0.98256   0.20002   0.02043   0.00000  Uiso   1.00
N225   N     0.83981   0.22942   0.52772   0.00000  Uiso   1.00
N226   N     0.14341   0.95938   0.45562   0.00000  Uiso   1.00
N227   N     0.94165   0.13347   0.09614   0.00000  Uiso   1.00
N228   N     0.94851   0.34150   0.58898   0.00000  Uiso   1.00
N229   N     0.25211   0.07145   0.51689   0.00000  Uiso   1.00
N230   N     0.05034   0.24555   0.15740   0.00000  Uiso   1.00
C231   C     0.35150   0.96425   0.09838   0.00000  Uiso   1.00
C232   C     0.41579   0.95664   0.16204   0.00000  Uiso   1.00
C233   C     0.43533   0.89059   0.15370   0.00000  Uiso   1.00
C234   C     0.49594   0.89537   0.21888   0.00000  Uiso   1.00
C235   C     0.58978   0.87316   0.30692   0.00000  Uiso   1.00
C236   C     0.39505   0.03892   0.08780   0.00000  Uiso   1.00
C237   C     0.39715   0.04204   0.01704   0.00000  Uiso   1.00
C238   C     0.44029   0.11609   0.01973   0.00000  Uiso   1.00
C239   C     0.50188   0.22163   0.99250   0.00000  Uiso   1.00
C240   C     0.29360   0.98351   0.13480   0.00000  Uiso   1.00
C241   C     0.21039   0.94006   0.10354   0.00000  Uiso   1.00
C242   C     0.16811   0.96747   0.14579   0.00000  Uiso   1.00
C243   C     0.07218   0.98698   0.19153   0.00000  Uiso   1.00
C244   C     0.42438   0.09020   0.22897   0.00000  Uiso   1.00
C245   C     0.45538   0.02505   0.23297   0.00000  Uiso   1.00
C246   C     0.51597   0.02993   0.29818   0.00000  Uiso   1.00
C247   C     0.53560   0.96390   0.28994   0.00000  Uiso   1.00
C248   C     0.43464   0.10733   0.15873   0.00000  Uiso   1.00
C249   C     0.47778   0.18139   0.16152   0.00000  Uiso   1.00
C250   C     0.47995   0.18462   0.09079   0.00000  Uiso   1.00
C251   C     0.33319   0.05192   0.20573   0.00000  Uiso   1.00
C252   C     0.29103   0.07940   0.24803   0.00000  Uiso   1.00
C253   C     0.20777   0.03601   0.21685   0.00000  Uiso   1.00
H254   H     0.32068   0.91099   0.04315   0.00000  Uiso   1.00
H255   H     0.40469   0.83766   0.09879   0.00000  Uiso   1.00
H256   H     0.36650   0.98909   0.96216   0.00000  Uiso   1.00
H257   H     0.17978   0.88713   0.04865   0.00000  Uiso   1.00
H258   H     0.51531   0.78653   0.19174   0.00000  Uiso   1.00
H259   H     0.43477   0.10585   0.90364   0.00000  Uiso   1.00
H260   H     0.04102   0.89083   0.08602   0.00000  Uiso   1.00
H261   H     0.45520   0.14346   0.28420   0.00000  Uiso   1.00
H262   H     0.54659   0.08288   0.35307   0.00000  Uiso   1.00
H263   H     0.50841   0.23432   0.21643   0.00000  Uiso   1.00
H264   H     0.32168   0.13235   0.30292   0.00000  Uiso   1.00
H265   H     0.63048   0.98556   0.39812   0.00000  Uiso   1.00
H266   H     0.54994   0.30488   0.11001   0.00000  Uiso   1.00
H267   H     0.15619   0.08986   0.29240   0.00000  Uiso   1.00
O268   O     0.63061   0.84201   0.33587   0.00000  Uiso   1.00
O269   O     0.52492   0.26094   0.95789   0.00000  Uiso   1.00
O270   O     0.00834   0.97884   0.19718   0.00000  Uiso   1.00
N271   N     0.52986   0.84168   0.23087   0.00000  Uiso   1.00
N272   N     0.45457   0.14022   0.96151   0.00000  Uiso   1.00
N273   N     0.08644   0.93921   0.13201   0.00000  Uiso   1.00
N274   N     0.59183   0.94878   0.34192   0.00000  Uiso   1.00
N275   N     0.51654   0.24732   0.07256   0.00000  Uiso   1.00
N276   N     0.14842   0.04630   0.24306   0.00000  Uiso   1.00
