data_job_02371
_audit_creation_date              2018-12-19
_audit_creation_method            'Materials Studio'
_symmetry_space_group_name_H-M    'P1'
_symmetry_Int_Tables_number       1
_symmetry_cell_setting            triclinic
loop_
_symmetry_equiv_pos_as_xyz
  x,y,z
_cell_length_a                    14.4126
_cell_length_b                    16.4755
_cell_length_c                    21.5817
_cell_angle_alpha                 90.0000
_cell_angle_beta                  76.4310
_cell_angle_gamma                 90.0000
loop_
_atom_site_label
_atom_site_type_symbol
_atom_site_fract_x
_atom_site_fract_y
_atom_site_fract_z
_atom_site_U_iso_or_equiv
_atom_site_adp_type
_atom_site_occupancy
C1     C     0.85619   0.54718   0.14993   0.00000  Uiso   1.00
C2     C     0.76017   0.56997   0.13662   0.00000  Uiso   1.00
C3     C     0.71556   0.53001   0.09497   0.00000  Uiso   1.00
C4     C     0.62796   0.56029   0.08946   0.00000  Uiso   1.00
C5     C     0.48518   0.58539   0.06346   0.00000  Uiso   1.00
C6     C     0.91842   0.62286   0.13547   0.00000  Uiso   1.00
C7     C     0.00687   0.62737   0.09286   0.00000  Uiso   1.00
C8     C     0.05248   0.70218   0.08639   0.00000  Uiso   1.00
C9     C     0.15542   0.80938   0.05863   0.00000  Uiso   1.00
C10    C     0.83774   0.53425   0.22175   0.00000  Uiso   1.00
C11    C     0.85837   0.46426   0.25170   0.00000  Uiso   1.00
C12    C     0.83608   0.46447   0.31788   0.00000  Uiso   1.00
C13    C     0.81376   0.43410   0.42409   0.00000  Uiso   1.00
C14    C     0.77994   0.67202   0.21421   0.00000  Uiso   1.00
C15    C     0.71875   0.63778   0.17153   0.00000  Uiso   1.00
C16    C     0.63119   0.66813   0.16609   0.00000  Uiso   1.00
C17    C     0.58646   0.62822   0.12444   0.00000  Uiso   1.00
C18    C     0.87700   0.69067   0.17038   0.00000  Uiso   1.00
C19    C     0.92250   0.76549   0.16398   0.00000  Uiso   1.00
C20    C     0.01099   0.77011   0.12137   0.00000  Uiso   1.00
C21    C     0.79632   0.60206   0.25667   0.00000  Uiso   1.00
C22    C     0.77400   0.60238   0.32281   0.00000  Uiso   1.00
C23    C     0.79459   0.53241   0.35285   0.00000  Uiso   1.00
H24    H     0.88844   0.49439   0.12275   0.00000  Uiso   1.00
H25    H     0.74764   0.47754   0.06796   0.00000  Uiso   1.00
H26    H     0.03890   0.57488   0.06585   0.00000  Uiso   1.00
H27    H     0.89043   0.41180   0.22466   0.00000  Uiso   1.00
H28    H     0.57329   0.48878   0.02259   0.00000  Uiso   1.00
H29    H     0.18744   0.69403   0.01817   0.00000  Uiso   1.00
H30    H     0.87436   0.35013   0.35305   0.00000  Uiso   1.00
H31    H     0.74769   0.72481   0.24140   0.00000  Uiso   1.00
H32    H     0.59916   0.72061   0.19312   0.00000  Uiso   1.00
H33    H     0.89043   0.81795   0.19101   0.00000  Uiso   1.00
H34    H     0.74195   0.65487   0.34982   0.00000  Uiso   1.00
H35    H     0.45278   0.68606   0.12417   0.00000  Uiso   1.00
H36    H     0.06694   0.89131   0.11975   0.00000  Uiso   1.00
H37    H     0.75385   0.54742   0.45463   0.00000  Uiso   1.00
O38    O     0.41788   0.58051   0.03946   0.00000  Uiso   1.00
O39    O     0.22364   0.84978   0.03367   0.00000  Uiso   1.00
O40    O     0.81287   0.39861   0.47303   0.00000  Uiso   1.00
N41    N     0.56530   0.53578   0.05313   0.00000  Uiso   1.00
N42    N     0.13950   0.72767   0.04899   0.00000  Uiso   1.00
N43    N     0.84681   0.40617   0.36208   0.00000  Uiso   1.00
N44    N     0.50045   0.64193   0.10779   0.00000  Uiso   1.00
N45    N     0.07465   0.83383   0.10365   0.00000  Uiso   1.00
N46    N     0.78196   0.51233   0.41674   0.00000  Uiso   1.00
C47    C     0.35619   0.04718   0.14993   0.00000  Uiso   1.00
C48    C     0.26017   0.06997   0.13662   0.00000  Uiso   1.00
C49    C     0.21556   0.03001   0.09497   0.00000  Uiso   1.00
C50    C     0.12796   0.06029   0.08946   0.00000  Uiso   1.00
C51    C     0.98518   0.08539   0.06346   0.00000  Uiso   1.00
C52    C     0.41842   0.12286   0.13547   0.00000  Uiso   1.00
C53    C     0.50687   0.12737   0.09286   0.00000  Uiso   1.00
C54    C     0.55248   0.20218   0.08639   0.00000  Uiso   1.00
C55    C     0.65542   0.30938   0.05863   0.00000  Uiso   1.00
C56    C     0.33774   0.03425   0.22175   0.00000  Uiso   1.00
C57    C     0.35837   0.96426   0.25170   0.00000  Uiso   1.00
C58    C     0.33608   0.96447   0.31788   0.00000  Uiso   1.00
C59    C     0.31376   0.93410   0.42409   0.00000  Uiso   1.00
C60    C     0.27994   0.17202   0.21421   0.00000  Uiso   1.00
C61    C     0.21875   0.13778   0.17153   0.00000  Uiso   1.00
C62    C     0.13119   0.16813   0.16609   0.00000  Uiso   1.00
C63    C     0.08646   0.12822   0.12444   0.00000  Uiso   1.00
C64    C     0.37700   0.19067   0.17038   0.00000  Uiso   1.00
C65    C     0.42250   0.26549   0.16398   0.00000  Uiso   1.00
C66    C     0.51099   0.27011   0.12137   0.00000  Uiso   1.00
C67    C     0.29632   0.10206   0.25667   0.00000  Uiso   1.00
C68    C     0.27400   0.10238   0.32281   0.00000  Uiso   1.00
C69    C     0.29459   0.03241   0.35285   0.00000  Uiso   1.00
H70    H     0.38844   0.99439   0.12275   0.00000  Uiso   1.00
H71    H     0.24764   0.97754   0.06796   0.00000  Uiso   1.00
H72    H     0.53890   0.07488   0.06585   0.00000  Uiso   1.00
H73    H     0.39043   0.91180   0.22466   0.00000  Uiso   1.00
H74    H     0.07329   0.98878   0.02259   0.00000  Uiso   1.00
H75    H     0.68744   0.19403   0.01817   0.00000  Uiso   1.00
H76    H     0.37436   0.85013   0.35305   0.00000  Uiso   1.00
H77    H     0.24769   0.22481   0.24140   0.00000  Uiso   1.00
H78    H     0.09916   0.22061   0.19312   0.00000  Uiso   1.00
H79    H     0.39043   0.31795   0.19101   0.00000  Uiso   1.00
H80    H     0.24195   0.15487   0.34982   0.00000  Uiso   1.00
H81    H     0.95278   0.18606   0.12417   0.00000  Uiso   1.00
H82    H     0.56694   0.39131   0.11975   0.00000  Uiso   1.00
H83    H     0.25385   0.04742   0.45463   0.00000  Uiso   1.00
O84    O     0.91788   0.08051   0.03946   0.00000  Uiso   1.00
O85    O     0.72364   0.34978   0.03367   0.00000  Uiso   1.00
O86    O     0.31287   0.89861   0.47303   0.00000  Uiso   1.00
N87    N     0.06530   0.03578   0.05313   0.00000  Uiso   1.00
N88    N     0.63950   0.22767   0.04899   0.00000  Uiso   1.00
N89    N     0.34681   0.90617   0.36208   0.00000  Uiso   1.00
N90    N     0.00045   0.14193   0.10779   0.00000  Uiso   1.00
N91    N     0.57465   0.33383   0.10365   0.00000  Uiso   1.00
N92    N     0.28196   0.01233   0.41674   0.00000  Uiso   1.00
C93    C     0.14381   0.54718   0.35007   0.00000  Uiso   1.00
C94    C     0.23983   0.56997   0.36338   0.00000  Uiso   1.00
C95    C     0.28444   0.53001   0.40503   0.00000  Uiso   1.00
C96    C     0.37204   0.56029   0.41054   0.00000  Uiso   1.00
C97    C     0.51482   0.58539   0.43654   0.00000  Uiso   1.00
C98    C     0.08158   0.62286   0.36453   0.00000  Uiso   1.00
C99    C     0.99313   0.62737   0.40714   0.00000  Uiso   1.00
C100   C     0.94752   0.70218   0.41361   0.00000  Uiso   1.00
C101   C     0.84458   0.80938   0.44137   0.00000  Uiso   1.00
C102   C     0.16226   0.53425   0.27825   0.00000  Uiso   1.00
C103   C     0.14163   0.46426   0.24830   0.00000  Uiso   1.00
C104   C     0.16392   0.46447   0.18212   0.00000  Uiso   1.00
C105   C     0.18624   0.43410   0.07591   0.00000  Uiso   1.00
C106   C     0.22006   0.67202   0.28579   0.00000  Uiso   1.00
C107   C     0.28125   0.63778   0.32847   0.00000  Uiso   1.00
C108   C     0.36881   0.66813   0.33391   0.00000  Uiso   1.00
C109   C     0.41354   0.62822   0.37556   0.00000  Uiso   1.00
C110   C     0.12300   0.69067   0.32962   0.00000  Uiso   1.00
C111   C     0.07750   0.76549   0.33602   0.00000  Uiso   1.00
C112   C     0.98901   0.77011   0.37863   0.00000  Uiso   1.00
C113   C     0.20368   0.60206   0.24333   0.00000  Uiso   1.00
C114   C     0.22600   0.60238   0.17719   0.00000  Uiso   1.00
C115   C     0.20541   0.53241   0.14715   0.00000  Uiso   1.00
H116   H     0.11156   0.49439   0.37725   0.00000  Uiso   1.00
H117   H     0.25236   0.47754   0.43204   0.00000  Uiso   1.00
H118   H     0.96110   0.57488   0.43415   0.00000  Uiso   1.00
H119   H     0.10957   0.41180   0.27534   0.00000  Uiso   1.00
H120   H     0.42671   0.48878   0.47741   0.00000  Uiso   1.00
H121   H     0.81256   0.69403   0.48183   0.00000  Uiso   1.00
H122   H     0.12564   0.35013   0.14695   0.00000  Uiso   1.00
H123   H     0.25231   0.72481   0.25860   0.00000  Uiso   1.00
H124   H     0.40084   0.72061   0.30688   0.00000  Uiso   1.00
H125   H     0.10957   0.81795   0.30899   0.00000  Uiso   1.00
H126   H     0.25805   0.65487   0.15018   0.00000  Uiso   1.00
H127   H     0.54722   0.68606   0.37583   0.00000  Uiso   1.00
H128   H     0.93306   0.89131   0.38025   0.00000  Uiso   1.00
H129   H     0.24615   0.54742   0.04537   0.00000  Uiso   1.00
O130   O     0.58212   0.58051   0.46054   0.00000  Uiso   1.00
O131   O     0.77636   0.84978   0.46633   0.00000  Uiso   1.00
O132   O     0.18713   0.39861   0.02697   0.00000  Uiso   1.00
N133   N     0.43470   0.53578   0.44687   0.00000  Uiso   1.00
N134   N     0.86050   0.72767   0.45101   0.00000  Uiso   1.00
N135   N     0.15319   0.40617   0.13792   0.00000  Uiso   1.00
N136   N     0.49955   0.64193   0.39221   0.00000  Uiso   1.00
N137   N     0.92535   0.83383   0.39635   0.00000  Uiso   1.00
N138   N     0.21804   0.51233   0.08326   0.00000  Uiso   1.00
C139   C     0.64381   0.04718   0.35007   0.00000  Uiso   1.00
C140   C     0.73983   0.06997   0.36338   0.00000  Uiso   1.00
C141   C     0.78444   0.03001   0.40503   0.00000  Uiso   1.00
C142   C     0.87204   0.06029   0.41054   0.00000  Uiso   1.00
C143   C     0.01482   0.08539   0.43654   0.00000  Uiso   1.00
C144   C     0.58158   0.12286   0.36453   0.00000  Uiso   1.00
C145   C     0.49313   0.12737   0.40714   0.00000  Uiso   1.00
C146   C     0.44752   0.20218   0.41361   0.00000  Uiso   1.00
C147   C     0.34458   0.30938   0.44137   0.00000  Uiso   1.00
C148   C     0.66226   0.03425   0.27825   0.00000  Uiso   1.00
C149   C     0.64163   0.96426   0.24830   0.00000  Uiso   1.00
C150   C     0.66392   0.96447   0.18212   0.00000  Uiso   1.00
C151   C     0.68624   0.93410   0.07591   0.00000  Uiso   1.00
C152   C     0.72006   0.17202   0.28579   0.00000  Uiso   1.00
C153   C     0.78125   0.13778   0.32847   0.00000  Uiso   1.00
C154   C     0.86881   0.16813   0.33391   0.00000  Uiso   1.00
C155   C     0.91354   0.12822   0.37556   0.00000  Uiso   1.00
C156   C     0.62300   0.19067   0.32962   0.00000  Uiso   1.00
C157   C     0.57750   0.26549   0.33602   0.00000  Uiso   1.00
C158   C     0.48901   0.27011   0.37863   0.00000  Uiso   1.00
C159   C     0.70368   0.10206   0.24333   0.00000  Uiso   1.00
C160   C     0.72600   0.10238   0.17719   0.00000  Uiso   1.00
C161   C     0.70541   0.03241   0.14715   0.00000  Uiso   1.00
H162   H     0.61156   0.99439   0.37725   0.00000  Uiso   1.00
H163   H     0.75236   0.97754   0.43204   0.00000  Uiso   1.00
H164   H     0.46110   0.07488   0.43415   0.00000  Uiso   1.00
H165   H     0.60957   0.91180   0.27534   0.00000  Uiso   1.00
H166   H     0.92671   0.98878   0.47741   0.00000  Uiso   1.00
H167   H     0.31256   0.19403   0.48183   0.00000  Uiso   1.00
H168   H     0.62564   0.85013   0.14695   0.00000  Uiso   1.00
H169   H     0.75231   0.22481   0.25860   0.00000  Uiso   1.00
H170   H     0.90084   0.22061   0.30688   0.00000  Uiso   1.00
H171   H     0.60957   0.31795   0.30899   0.00000  Uiso   1.00
H172   H     0.75805   0.15487   0.15018   0.00000  Uiso   1.00
H173   H     0.04722   0.18606   0.37583   0.00000  Uiso   1.00
H174   H     0.43306   0.39131   0.38025   0.00000  Uiso   1.00
H175   H     0.74615   0.04742   0.04537   0.00000  Uiso   1.00
O176   O     0.08212   0.08051   0.46054   0.00000  Uiso   1.00
O177   O     0.27636   0.34978   0.46633   0.00000  Uiso   1.00
O178   O     0.68713   0.89861   0.02697   0.00000  Uiso   1.00
N179   N     0.93470   0.03578   0.44687   0.00000  Uiso   1.00
N180   N     0.36050   0.22767   0.45101   0.00000  Uiso   1.00
N181   N     0.65319   0.90617   0.13792   0.00000  Uiso   1.00
N182   N     0.99955   0.14193   0.39221   0.00000  Uiso   1.00
N183   N     0.42535   0.33383   0.39635   0.00000  Uiso   1.00
N184   N     0.71804   0.01233   0.08326   0.00000  Uiso   1.00
C185   C     0.14381   0.45282   0.85007   0.00000  Uiso   1.00
C186   C     0.23983   0.43003   0.86338   0.00000  Uiso   1.00
C187   C     0.28444   0.46999   0.90503   0.00000  Uiso   1.00
C188   C     0.37204   0.43971   0.91054   0.00000  Uiso   1.00
C189   C     0.51482   0.41461   0.93654   0.00000  Uiso   1.00
C190   C     0.08158   0.37714   0.86453   0.00000  Uiso   1.00
C191   C     0.99313   0.37263   0.90714   0.00000  Uiso   1.00
C192   C     0.94752   0.29782   0.91361   0.00000  Uiso   1.00
C193   C     0.84458   0.19062   0.94137   0.00000  Uiso   1.00
C194   C     0.16226   0.46575   0.77825   0.00000  Uiso   1.00
C195   C     0.14163   0.53574   0.74830   0.00000  Uiso   1.00
C196   C     0.16392   0.53553   0.68212   0.00000  Uiso   1.00
C197   C     0.18624   0.56590   0.57591   0.00000  Uiso   1.00
C198   C     0.22006   0.32798   0.78579   0.00000  Uiso   1.00
C199   C     0.28125   0.36222   0.82847   0.00000  Uiso   1.00
C200   C     0.36881   0.33187   0.83391   0.00000  Uiso   1.00
C201   C     0.41354   0.37178   0.87556   0.00000  Uiso   1.00
C202   C     0.12300   0.30933   0.82962   0.00000  Uiso   1.00
C203   C     0.07750   0.23451   0.83602   0.00000  Uiso   1.00
C204   C     0.98901   0.22989   0.87863   0.00000  Uiso   1.00
C205   C     0.20368   0.39794   0.74333   0.00000  Uiso   1.00
C206   C     0.22600   0.39762   0.67719   0.00000  Uiso   1.00
C207   C     0.20541   0.46759   0.64715   0.00000  Uiso   1.00
H208   H     0.11156   0.50561   0.87725   0.00000  Uiso   1.00
H209   H     0.25236   0.52246   0.93204   0.00000  Uiso   1.00
H210   H     0.96110   0.42512   0.93415   0.00000  Uiso   1.00
H211   H     0.10957   0.58820   0.77534   0.00000  Uiso   1.00
H212   H     0.42671   0.51122   0.97741   0.00000  Uiso   1.00
H213   H     0.81256   0.30597   0.98183   0.00000  Uiso   1.00
H214   H     0.12564   0.64987   0.64695   0.00000  Uiso   1.00
H215   H     0.25231   0.27519   0.75860   0.00000  Uiso   1.00
H216   H     0.40084   0.27939   0.80688   0.00000  Uiso   1.00
H217   H     0.10957   0.18205   0.80899   0.00000  Uiso   1.00
H218   H     0.25805   0.34513   0.65018   0.00000  Uiso   1.00
H219   H     0.54722   0.31394   0.87583   0.00000  Uiso   1.00
H220   H     0.93306   0.10869   0.88025   0.00000  Uiso   1.00
H221   H     0.24615   0.45258   0.54537   0.00000  Uiso   1.00
O222   O     0.58212   0.41949   0.96054   0.00000  Uiso   1.00
O223   O     0.77636   0.15022   0.96633   0.00000  Uiso   1.00
O224   O     0.18713   0.60139   0.52697   0.00000  Uiso   1.00
N225   N     0.43470   0.46422   0.94687   0.00000  Uiso   1.00
N226   N     0.86050   0.27233   0.95101   0.00000  Uiso   1.00
N227   N     0.15319   0.59383   0.63792   0.00000  Uiso   1.00
N228   N     0.49955   0.35807   0.89221   0.00000  Uiso   1.00
N229   N     0.92535   0.16617   0.89635   0.00000  Uiso   1.00
N230   N     0.21804   0.48767   0.58326   0.00000  Uiso   1.00
C231   C     0.64381   0.95282   0.85007   0.00000  Uiso   1.00
C232   C     0.73983   0.93003   0.86338   0.00000  Uiso   1.00
C233   C     0.78444   0.96999   0.90503   0.00000  Uiso   1.00
C234   C     0.87204   0.93971   0.91054   0.00000  Uiso   1.00
C235   C     0.01482   0.91461   0.93654   0.00000  Uiso   1.00
C236   C     0.58158   0.87714   0.86453   0.00000  Uiso   1.00
C237   C     0.49313   0.87263   0.90714   0.00000  Uiso   1.00
C238   C     0.44752   0.79782   0.91361   0.00000  Uiso   1.00
C239   C     0.34458   0.69062   0.94137   0.00000  Uiso   1.00
C240   C     0.66226   0.96575   0.77825   0.00000  Uiso   1.00
C241   C     0.64163   0.03574   0.74830   0.00000  Uiso   1.00
C242   C     0.66392   0.03553   0.68212   0.00000  Uiso   1.00
C243   C     0.68624   0.06590   0.57591   0.00000  Uiso   1.00
C244   C     0.72006   0.82798   0.78579   0.00000  Uiso   1.00
C245   C     0.78125   0.86222   0.82847   0.00000  Uiso   1.00
C246   C     0.86881   0.83187   0.83391   0.00000  Uiso   1.00
C247   C     0.91354   0.87178   0.87556   0.00000  Uiso   1.00
C248   C     0.62300   0.80933   0.82962   0.00000  Uiso   1.00
C249   C     0.57750   0.73451   0.83602   0.00000  Uiso   1.00
C250   C     0.48901   0.72989   0.87863   0.00000  Uiso   1.00
C251   C     0.70368   0.89794   0.74333   0.00000  Uiso   1.00
C252   C     0.72600   0.89762   0.67719   0.00000  Uiso   1.00
C253   C     0.70541   0.96759   0.64715   0.00000  Uiso   1.00
H254   H     0.61156   0.00561   0.87725   0.00000  Uiso   1.00
H255   H     0.75236   0.02246   0.93204   0.00000  Uiso   1.00
H256   H     0.46110   0.92512   0.93415   0.00000  Uiso   1.00
H257   H     0.60957   0.08820   0.77534   0.00000  Uiso   1.00
H258   H     0.92671   0.01122   0.97741   0.00000  Uiso   1.00
H259   H     0.31256   0.80597   0.98183   0.00000  Uiso   1.00
H260   H     0.62564   0.14987   0.64695   0.00000  Uiso   1.00
H261   H     0.75231   0.77519   0.75860   0.00000  Uiso   1.00
H262   H     0.90084   0.77939   0.80688   0.00000  Uiso   1.00
H263   H     0.60957   0.68205   0.80899   0.00000  Uiso   1.00
H264   H     0.75805   0.84513   0.65018   0.00000  Uiso   1.00
H265   H     0.04722   0.81394   0.87583   0.00000  Uiso   1.00
H266   H     0.43306   0.60869   0.88025   0.00000  Uiso   1.00
H267   H     0.74615   0.95258   0.54537   0.00000  Uiso   1.00
O268   O     0.08212   0.91949   0.96054   0.00000  Uiso   1.00
O269   O     0.27636   0.65022   0.96633   0.00000  Uiso   1.00
O270   O     0.68713   0.10139   0.52697   0.00000  Uiso   1.00
N271   N     0.93470   0.96422   0.94687   0.00000  Uiso   1.00
N272   N     0.36050   0.77233   0.95101   0.00000  Uiso   1.00
N273   N     0.65319   0.09383   0.63792   0.00000  Uiso   1.00
N274   N     0.99955   0.85807   0.89221   0.00000  Uiso   1.00
N275   N     0.42535   0.66617   0.89635   0.00000  Uiso   1.00
N276   N     0.71804   0.98767   0.58326   0.00000  Uiso   1.00
C277   C     0.85619   0.45282   0.64993   0.00000  Uiso   1.00
C278   C     0.76017   0.43003   0.63662   0.00000  Uiso   1.00
C279   C     0.71556   0.46999   0.59497   0.00000  Uiso   1.00
C280   C     0.62796   0.43971   0.58946   0.00000  Uiso   1.00
C281   C     0.48518   0.41461   0.56346   0.00000  Uiso   1.00
C282   C     0.91842   0.37714   0.63547   0.00000  Uiso   1.00
C283   C     0.00687   0.37263   0.59286   0.00000  Uiso   1.00
C284   C     0.05248   0.29782   0.58639   0.00000  Uiso   1.00
C285   C     0.15542   0.19062   0.55863   0.00000  Uiso   1.00
C286   C     0.83774   0.46575   0.72175   0.00000  Uiso   1.00
C287   C     0.85837   0.53574   0.75170   0.00000  Uiso   1.00
C288   C     0.83608   0.53553   0.81788   0.00000  Uiso   1.00
C289   C     0.81376   0.56590   0.92409   0.00000  Uiso   1.00
C290   C     0.77994   0.32798   0.71421   0.00000  Uiso   1.00
C291   C     0.71875   0.36222   0.67153   0.00000  Uiso   1.00
C292   C     0.63119   0.33187   0.66609   0.00000  Uiso   1.00
C293   C     0.58646   0.37178   0.62444   0.00000  Uiso   1.00
C294   C     0.87700   0.30933   0.67038   0.00000  Uiso   1.00
C295   C     0.92250   0.23451   0.66398   0.00000  Uiso   1.00
C296   C     0.01099   0.22989   0.62137   0.00000  Uiso   1.00
C297   C     0.79632   0.39794   0.75667   0.00000  Uiso   1.00
C298   C     0.77400   0.39762   0.82281   0.00000  Uiso   1.00
C299   C     0.79459   0.46759   0.85285   0.00000  Uiso   1.00
H300   H     0.88844   0.50561   0.62275   0.00000  Uiso   1.00
H301   H     0.74764   0.52246   0.56796   0.00000  Uiso   1.00
H302   H     0.03890   0.42512   0.56585   0.00000  Uiso   1.00
H303   H     0.89043   0.58820   0.72466   0.00000  Uiso   1.00
H304   H     0.57329   0.51122   0.52259   0.00000  Uiso   1.00
H305   H     0.18744   0.30597   0.51817   0.00000  Uiso   1.00
H306   H     0.87436   0.64987   0.85305   0.00000  Uiso   1.00
H307   H     0.74769   0.27519   0.74140   0.00000  Uiso   1.00
H308   H     0.59916   0.27939   0.69312   0.00000  Uiso   1.00
H309   H     0.89043   0.18205   0.69101   0.00000  Uiso   1.00
H310   H     0.74195   0.34513   0.84982   0.00000  Uiso   1.00
H311   H     0.45278   0.31394   0.62417   0.00000  Uiso   1.00
H312   H     0.06694   0.10869   0.61975   0.00000  Uiso   1.00
H313   H     0.75385   0.45258   0.95463   0.00000  Uiso   1.00
O314   O     0.41788   0.41949   0.53946   0.00000  Uiso   1.00
O315   O     0.22364   0.15022   0.53367   0.00000  Uiso   1.00
O316   O     0.81287   0.60139   0.97303   0.00000  Uiso   1.00
N317   N     0.56530   0.46422   0.55313   0.00000  Uiso   1.00
N318   N     0.13950   0.27233   0.54899   0.00000  Uiso   1.00
N319   N     0.84681   0.59383   0.86208   0.00000  Uiso   1.00
N320   N     0.50045   0.35807   0.60779   0.00000  Uiso   1.00
N321   N     0.07465   0.16617   0.60365   0.00000  Uiso   1.00
N322   N     0.78196   0.48767   0.91674   0.00000  Uiso   1.00
C323   C     0.35619   0.95282   0.64993   0.00000  Uiso   1.00
C324   C     0.26017   0.93003   0.63662   0.00000  Uiso   1.00
C325   C     0.21556   0.96999   0.59497   0.00000  Uiso   1.00
C326   C     0.12796   0.93971   0.58946   0.00000  Uiso   1.00
C327   C     0.98518   0.91461   0.56346   0.00000  Uiso   1.00
C328   C     0.41842   0.87714   0.63547   0.00000  Uiso   1.00
C329   C     0.50687   0.87263   0.59286   0.00000  Uiso   1.00
C330   C     0.55248   0.79782   0.58639   0.00000  Uiso   1.00
C331   C     0.65542   0.69062   0.55863   0.00000  Uiso   1.00
C332   C     0.33774   0.96575   0.72175   0.00000  Uiso   1.00
C333   C     0.35837   0.03574   0.75170   0.00000  Uiso   1.00
C334   C     0.33608   0.03553   0.81788   0.00000  Uiso   1.00
C335   C     0.31376   0.06590   0.92409   0.00000  Uiso   1.00
C336   C     0.27994   0.82798   0.71421   0.00000  Uiso   1.00
C337   C     0.21875   0.86222   0.67153   0.00000  Uiso   1.00
C338   C     0.13119   0.83187   0.66609   0.00000  Uiso   1.00
C339   C     0.08646   0.87178   0.62444   0.00000  Uiso   1.00
C340   C     0.37700   0.80933   0.67038   0.00000  Uiso   1.00
C341   C     0.42250   0.73451   0.66398   0.00000  Uiso   1.00
C342   C     0.51099   0.72989   0.62137   0.00000  Uiso   1.00
C343   C     0.29632   0.89794   0.75667   0.00000  Uiso   1.00
C344   C     0.27400   0.89762   0.82281   0.00000  Uiso   1.00
C345   C     0.29459   0.96759   0.85285   0.00000  Uiso   1.00
H346   H     0.38844   0.00561   0.62275   0.00000  Uiso   1.00
H347   H     0.24764   0.02246   0.56796   0.00000  Uiso   1.00
H348   H     0.53890   0.92512   0.56585   0.00000  Uiso   1.00
H349   H     0.39043   0.08820   0.72466   0.00000  Uiso   1.00
H350   H     0.07329   0.01122   0.52259   0.00000  Uiso   1.00
H351   H     0.68744   0.80597   0.51817   0.00000  Uiso   1.00
H352   H     0.37436   0.14987   0.85305   0.00000  Uiso   1.00
H353   H     0.24769   0.77519   0.74140   0.00000  Uiso   1.00
H354   H     0.09916   0.77939   0.69312   0.00000  Uiso   1.00
H355   H     0.39043   0.68205   0.69101   0.00000  Uiso   1.00
H356   H     0.24195   0.84513   0.84982   0.00000  Uiso   1.00
H357   H     0.95278   0.81394   0.62417   0.00000  Uiso   1.00
H358   H     0.56694   0.60869   0.61975   0.00000  Uiso   1.00
H359   H     0.25385   0.95258   0.95463   0.00000  Uiso   1.00
O360   O     0.91788   0.91949   0.53946   0.00000  Uiso   1.00
O361   O     0.72364   0.65022   0.53367   0.00000  Uiso   1.00
O362   O     0.31287   0.10139   0.97303   0.00000  Uiso   1.00
N363   N     0.06530   0.96422   0.55313   0.00000  Uiso   1.00
N364   N     0.63950   0.77233   0.54899   0.00000  Uiso   1.00
N365   N     0.34681   0.09383   0.86208   0.00000  Uiso   1.00
N366   N     0.00045   0.85807   0.60779   0.00000  Uiso   1.00
N367   N     0.57465   0.66617   0.60365   0.00000  Uiso   1.00
N368   N     0.28196   0.98767   0.91674   0.00000  Uiso   1.00
