data_job_06912
_audit_creation_date              2018-12-19
_audit_creation_method            'Materials Studio'
_symmetry_space_group_name_H-M    'P1'
_symmetry_Int_Tables_number       1
_symmetry_cell_setting            triclinic
loop_
_symmetry_equiv_pos_as_xyz
  x,y,z
_cell_length_a                    20.6552
_cell_length_b                    22.2441
_cell_length_c                    23.4999
_cell_angle_alpha                 72.5089
_cell_angle_beta                  72.0154
_cell_angle_gamma                 101.7850
loop_
_atom_site_label
_atom_site_type_symbol
_atom_site_fract_x
_atom_site_fract_y
_atom_site_fract_z
_atom_site_U_iso_or_equiv
_atom_site_adp_type
_atom_site_occupancy
C1     C     0.40156   0.23787   0.93078   0.00000  Uiso   1.00
C2     C     0.33461   0.17596   0.96474   0.00000  Uiso   1.00
C3     C     0.33420   0.11058   0.97935   0.00000  Uiso   1.00
C4     C     0.26737   0.06095   0.01054   0.00000  Uiso   1.00
C5     C     0.17317   0.96250   0.06082   0.00000  Uiso   1.00
C6     C     0.39363   0.28215   0.87139   0.00000  Uiso   1.00
C7     C     0.44284   0.30606   0.80752   0.00000  Uiso   1.00
C8     C     0.42568   0.34583   0.76013   0.00000  Uiso   1.00
C9     C     0.42313   0.41228   0.66549   0.00000  Uiso   1.00
C10    C     0.39560   0.27478   0.97636   0.00000  Uiso   1.00
C11    C     0.44647   0.29252   0.00073   0.00000  Uiso   1.00
C12    C     0.43099   0.32611   0.04171   0.00000  Uiso   1.00
C13    C     0.43150   0.38112   0.11004   0.00000  Uiso   1.00
C14    C     0.28361   0.26600   0.96020   0.00000  Uiso   1.00
C15    C     0.27055   0.19124   0.98071   0.00000  Uiso   1.00
C16    C     0.20370   0.14171   0.01190   0.00000  Uiso   1.00
C17    C     0.20319   0.07626   0.02655   0.00000  Uiso   1.00
C18    C     0.32957   0.29743   0.88737   0.00000  Uiso   1.00
C19    C     0.31234   0.33719   0.84006   0.00000  Uiso   1.00
C20    C     0.36151   0.36114   0.77614   0.00000  Uiso   1.00
C21    C     0.33154   0.29006   0.99234   0.00000  Uiso   1.00
C22    C     0.31598   0.32364   0.03328   0.00000  Uiso   1.00
C23    C     0.36681   0.34142   0.05771   0.00000  Uiso   1.00
H24    H     0.45143   0.22597   0.91834   0.00000  Uiso   1.00
H25    H     0.38379   0.09877   0.96697   0.00000  Uiso   1.00
H26    H     0.49241   0.29423   0.79517   0.00000  Uiso   1.00
H27    H     0.49604   0.28068   0.98836   0.00000  Uiso   1.00
H28    H     0.28053   0.96449   0.02792   0.00000  Uiso   1.00
H29    H     0.50959   0.37663   0.66567   0.00000  Uiso   1.00
H30    H     0.51725   0.34807   0.07304   0.00000  Uiso   1.00
H31    H     0.23373   0.27790   0.97263   0.00000  Uiso   1.00
H32    H     0.15413   0.15355   0.02426   0.00000  Uiso   1.00
H33    H     0.26276   0.34900   0.85245   0.00000  Uiso   1.00
H34    H     0.26639   0.33546   0.04563   0.00000  Uiso   1.00
H35    H     0.09414   0.00894   0.07441   0.00000  Uiso   1.00
H36    H     0.32320   0.42109   0.71215   0.00000  Uiso   1.00
H37    H     0.33086   0.39253   0.11952   0.00000  Uiso   1.00
O38    O     0.13890   0.90397   0.08412   0.00000  Uiso   1.00
O39    O     0.43942   0.44470   0.60886   0.00000  Uiso   1.00
O40    O     0.44947   0.40723   0.14332   0.00000  Uiso   1.00
N41    N     0.24759   0.99201   0.03179   0.00000  Uiso   1.00
N42    N     0.46174   0.37734   0.69310   0.00000  Uiso   1.00
N43    N     0.46891   0.35065   0.07394   0.00000  Uiso   1.00
N44    N     0.14729   0.01594   0.05681   0.00000  Uiso   1.00
N45    N     0.36144   0.40126   0.71812   0.00000  Uiso   1.00
N46    N     0.36861   0.37458   0.09896   0.00000  Uiso   1.00
C47    C     0.78421   0.51393   0.22933   0.00000  Uiso   1.00
C48    C     0.75162   0.56538   0.24551   0.00000  Uiso   1.00
C49    C     0.67919   0.55380   0.27967   0.00000  Uiso   1.00
C50    C     0.66020   0.60739   0.28943   0.00000  Uiso   1.00
C51    C     0.60174   0.67772   0.31812   0.00000  Uiso   1.00
C52    C     0.82434   0.54312   0.15564   0.00000  Uiso   1.00
C53    C     0.81304   0.51281   0.11423   0.00000  Uiso   1.00
C54    C     0.85527   0.54767   0.04833   0.00000  Uiso   1.00
C55    C     0.90973   0.58341   0.93749   0.00000  Uiso   1.00
C56    C     0.84183   0.51264   0.25709   0.00000  Uiso   1.00
C57    C     0.84525   0.45671   0.30098   0.00000  Uiso   1.00
C58    C     0.90222   0.46590   0.32049   0.00000  Uiso   1.00
C59    C     0.98384   0.45432   0.36718   0.00000  Uiso   1.00
C60    C     0.87930   0.62970   0.18594   0.00000  Uiso   1.00
C61    C     0.80327   0.62826   0.22194   0.00000  Uiso   1.00
C62    C     0.78439   0.68188   0.23166   0.00000  Uiso   1.00
C63    C     0.71194   0.67039   0.26582   0.00000  Uiso   1.00
C64    C     0.87598   0.60600   0.13207   0.00000  Uiso   1.00
C65    C     0.91824   0.64090   0.06622   0.00000  Uiso   1.00
C66    C     0.90701   0.61066   0.02472   0.00000  Uiso   1.00
C67    C     0.89348   0.57552   0.23353   0.00000  Uiso   1.00
C68    C     0.95045   0.58479   0.25297   0.00000  Uiso   1.00
C69    C     0.95396   0.52889   0.29688   0.00000  Uiso   1.00
H70    H     0.74400   0.46498   0.24767   0.00000  Uiso   1.00
H71    H     0.63923   0.50513   0.29789   0.00000  Uiso   1.00
H72    H     0.77307   0.46415   0.13248   0.00000  Uiso   1.00
H73    H     0.80528   0.40805   0.31920   0.00000  Uiso   1.00
H74    H     0.54585   0.57738   0.34315   0.00000  Uiso   1.00
H75    H     0.82807   0.49097   0.99438   0.00000  Uiso   1.00
H76    H     0.89598   0.37267   0.38812   0.00000  Uiso   1.00
H77    H     0.91951   0.67866   0.16759   0.00000  Uiso   1.00
H78    H     0.82437   0.73054   0.21342   0.00000  Uiso   1.00
H79    H     0.95820   0.68956   0.04800   0.00000  Uiso   1.00
H80    H     0.99041   0.63346   0.23473   0.00000  Uiso   1.00
H81    H     0.69611   0.76034   0.27459   0.00000  Uiso   1.00
H82    H     0.97833   0.67392   0.92581   0.00000  Uiso   1.00
H83    H     0.04624   0.55563   0.31955   0.00000  Uiso   1.00
O84    O     0.55523   0.69914   0.34044   0.00000  Uiso   1.00
O85    O     0.92550   0.58575   0.88286   0.00000  Uiso   1.00
O86    O     0.01459   0.43056   0.39944   0.00000  Uiso   1.00
N87    N     0.59427   0.61332   0.32074   0.00000  Uiso   1.00
N88    N     0.85812   0.53253   0.99465   0.00000  Uiso   1.00
N89    N     0.92163   0.42193   0.36275   0.00000  Uiso   1.00
N90    N     0.67513   0.71176   0.28385   0.00000  Uiso   1.00
N91    N     0.93898   0.63097   0.95776   0.00000  Uiso   1.00
N92    N     0.00248   0.52038   0.32586   0.00000  Uiso   1.00
C93    C     0.68732   0.04034   0.10676   0.00000  Uiso   1.00
C94    C     0.76142   0.06280   0.10828   0.00000  Uiso   1.00
C95    C     0.79790   0.12664   0.09989   0.00000  Uiso   1.00
C96    C     0.86513   0.13713   0.10297   0.00000  Uiso   1.00
C97    C     0.97569   0.17986   0.10362   0.00000  Uiso   1.00
C98    C     0.69712   0.01149   0.05464   0.00000  Uiso   1.00
C99    C     0.67953   0.03218   0.00115   0.00000  Uiso   1.00
C100   C     0.69262   0.99947   0.95908   0.00000  Uiso   1.00
C101   C     0.70331   0.96251   0.87647   0.00000  Uiso   1.00
C102   C     0.64078   0.98170   0.17133   0.00000  Uiso   1.00
C103   C     0.57582   0.97733   0.21595   0.00000  Uiso   1.00
C104   C     0.54147   0.91952   0.27212   0.00000  Uiso   1.00
C105   C     0.46469   0.83630   0.37069   0.00000  Uiso   1.00
C106   C     0.74182   0.94545   0.12715   0.00000  Uiso   1.00
C107   C     0.79102   0.01126   0.11936   0.00000  Uiso   1.00
C108   C     0.85820   0.02166   0.12246   0.00000  Uiso   1.00
C109   C     0.89478   0.08550   0.11407   0.00000  Uiso   1.00
C110   C     0.72672   0.95996   0.06571   0.00000  Uiso   1.00
C111   C     0.73983   0.92720   0.02371   0.00000  Uiso   1.00
C112   C     0.72228   0.94784   0.97018   0.00000  Uiso   1.00
C113   C     0.67039   0.93016   0.18241   0.00000  Uiso   1.00
C114   C     0.63612   0.87235   0.23851   0.00000  Uiso   1.00
C115   C     0.57113   0.86789   0.28321   0.00000  Uiso   1.00
H116   H     0.66427   0.08046   0.09813   0.00000  Uiso   1.00
H117   H     0.77498   0.16651   0.09131   0.00000  Uiso   1.00
H118   H     0.65662   0.07206   0.99259   0.00000  Uiso   1.00
H119   H     0.55293   0.01722   0.20736   0.00000  Uiso   1.00
H120   H     0.91078   0.23919   0.08862   0.00000  Uiso   1.00
H121   H     0.66119   0.04003   0.88047   0.00000  Uiso   1.00
H122   H     0.44253   0.92437   0.33335   0.00000  Uiso   1.00
H123   H     0.76487   0.90533   0.13578   0.00000  Uiso   1.00
H124   H     0.88110   0.98176   0.13103   0.00000  Uiso   1.00
H125   H     0.76274   0.88732   0.03230   0.00000  Uiso   1.00
H126   H     0.65905   0.83247   0.24707   0.00000  Uiso   1.00
H127   H     0.99692   0.08924   0.12085   0.00000  Uiso   1.00
H128   H     0.74732   0.89008   0.91270   0.00000  Uiso   1.00
H129   H     0.52867   0.77443   0.36558   0.00000  Uiso   1.00
O130   O     0.02850   0.21766   0.10091   0.00000  Uiso   1.00
O131   O     0.70104   0.95636   0.82783   0.00000  Uiso   1.00
O132   O     0.41417   0.80463   0.42200   0.00000  Uiso   1.00
N133   N     0.91510   0.19340   0.09687   0.00000  Uiso   1.00
N134   N     0.68176   0.00721   0.90226   0.00000  Uiso   1.00
N135   N     0.47732   0.89908   0.32565   0.00000  Uiso   1.00
N136   N     0.96144   0.11272   0.11421   0.00000  Uiso   1.00
N137   N     0.72810   0.92652   0.91960   0.00000  Uiso   1.00
N138   N     0.52367   0.81839   0.34299   0.00000  Uiso   1.00
C139   C     0.15801   0.34376   0.47465   0.00000  Uiso   1.00
C140   C     0.15323   0.27064   0.49998   0.00000  Uiso   1.00
C141   C     0.09014   0.21642   0.53252   0.00000  Uiso   1.00
C142   C     0.09720   0.15350   0.55173   0.00000  Uiso   1.00
C143   C     0.07948   0.04124   0.59300   0.00000  Uiso   1.00
C144   C     0.20528   0.37275   0.40218   0.00000  Uiso   1.00
C145   C     0.18596   0.40438   0.35250   0.00000  Uiso   1.00
C146   C     0.23684   0.42743   0.28937   0.00000  Uiso   1.00
C147   C     0.29996   0.47372   0.17881   0.00000  Uiso   1.00
C148   C     0.20097   0.37740   0.50550   0.00000  Uiso   1.00
C149   C     0.17803   0.41295   0.54268   0.00000  Uiso   1.00
C150   C     0.22528   0.43993   0.56653   0.00000  Uiso   1.00
C151   C     0.28170   0.49345   0.61639   0.00000  Uiso   1.00
C152   C     0.28272   0.32846   0.45089   0.00000  Uiso   1.00
C153   C     0.22097   0.26234   0.48707   0.00000  Uiso   1.00
C154   C     0.22813   0.19949   0.50624   0.00000  Uiso   1.00
C155   C     0.16506   0.14518   0.53881   0.00000  Uiso   1.00
C156   C     0.27302   0.36444   0.38928   0.00000  Uiso   1.00
C157   C     0.32395   0.38745   0.32621   0.00000  Uiso   1.00
C158   C     0.30471   0.41910   0.27645   0.00000  Uiso   1.00
C159   C     0.26871   0.36909   0.49260   0.00000  Uiso   1.00
C160   C     0.31601   0.39602   0.51640   0.00000  Uiso   1.00
C161   C     0.29315   0.43161   0.55360   0.00000  Uiso   1.00
H162   H     0.10527   0.35023   0.48469   0.00000  Uiso   1.00
H163   H     0.03773   0.22287   0.54249   0.00000  Uiso   1.00
H164   H     0.13354   0.41081   0.36250   0.00000  Uiso   1.00
H165   H     0.12561   0.41937   0.55265   0.00000  Uiso   1.00
H166   H     0.99273   0.07800   0.60087   0.00000  Uiso   1.00
H167   H     0.19476   0.47430   0.22134   0.00000  Uiso   1.00
H168   H     0.17802   0.49237   0.62231   0.00000  Uiso   1.00
H169   H     0.33546   0.32199   0.44085   0.00000  Uiso   1.00
H170   H     0.28056   0.19307   0.49625   0.00000  Uiso   1.00
H171   H     0.37636   0.38101   0.31625   0.00000  Uiso   1.00
H172   H     0.36843   0.38958   0.50640   0.00000  Uiso   1.00
H173   H     0.18981   0.05381   0.56333   0.00000  Uiso   1.00
H174   H     0.39184   0.45012   0.18379   0.00000  Uiso   1.00
H175   H     0.37511   0.46818   0.58477   0.00000  Uiso   1.00
O176   O     0.05100   0.98161   0.61931   0.00000  Uiso   1.00
O177   O     0.31605   0.50155   0.12138   0.00000  Uiso   1.00
O178   O     0.29410   0.52525   0.64746   0.00000  Uiso   1.00
N179   N     0.04665   0.09000   0.58444   0.00000  Uiso   1.00
N180   N     0.23553   0.46051   0.22960   0.00000  Uiso   1.00
N181   N     0.21989   0.47741   0.60446   0.00000  Uiso   1.00
N182   N     0.15270   0.07699   0.56424   0.00000  Uiso   1.00
N183   N     0.34157   0.44749   0.20940   0.00000  Uiso   1.00
N184   N     0.32594   0.46440   0.58427   0.00000  Uiso   1.00
C185   C     0.57334   0.67161   0.74592   0.00000  Uiso   1.00
C186   C     0.63423   0.64986   0.75964   0.00000  Uiso   1.00
C187   C     0.62812   0.58602   0.79769   0.00000  Uiso   1.00
C188   C     0.69014   0.57625   0.80426   0.00000  Uiso   1.00
C189   C     0.77471   0.53454   0.83017   0.00000  Uiso   1.00
C190   C     0.59879   0.70147   0.67215   0.00000  Uiso   1.00
C191   C     0.56287   0.68103   0.63664   0.00000  Uiso   1.00
C192   C     0.59505   0.71471   0.56956   0.00000  Uiso   1.00
C193   C     0.62456   0.75314   0.45963   0.00000  Uiso   1.00
C194   C     0.56991   0.72940   0.76759   0.00000  Uiso   1.00
C195   C     0.50970   0.73245   0.81232   0.00000  Uiso   1.00
C196   C     0.51756   0.78965   0.82558   0.00000  Uiso   1.00
C197   C     0.50223   0.87145   0.86384   0.00000  Uiso   1.00
C198   C     0.69434   0.76778   0.68992   0.00000  Uiso   1.00
C199   C     0.69996   0.70210   0.72922   0.00000  Uiso   1.00
C200   C     0.76200   0.69243   0.73574   0.00000  Uiso   1.00
C201   C     0.75598   0.62859   0.77380   0.00000  Uiso   1.00
C202   C     0.66451   0.75371   0.64173   0.00000  Uiso   1.00
C203   C     0.69675   0.78743   0.57469   0.00000  Uiso   1.00
C204   C     0.66089   0.76704   0.53909   0.00000  Uiso   1.00
C205   C     0.63563   0.78164   0.73718   0.00000  Uiso   1.00
C206   C     0.64358   0.83885   0.75037   0.00000  Uiso   1.00
C207   C     0.58340   0.84198   0.79511   0.00000  Uiso   1.00
H208   H     0.52217   0.63094   0.76959   0.00000  Uiso   1.00
H209   H     0.57725   0.54561   0.82122   0.00000  Uiso   1.00
H210   H     0.51201   0.64060   0.66019   0.00000  Uiso   1.00
H211   H     0.45885   0.69201   0.83584   0.00000  Uiso   1.00
H212   H     0.66731   0.47404   0.86502   0.00000  Uiso   1.00
H213   H     0.52973   0.67435   0.52549   0.00000  Uiso   1.00
H214   H     0.41763   0.78276   0.89588   0.00000  Uiso   1.00
H215   H     0.74551   0.80846   0.66624   0.00000  Uiso   1.00
H216   H     0.81285   0.73286   0.71220   0.00000  Uiso   1.00
H217   H     0.74760   0.82786   0.55117   0.00000  Uiso   1.00
H218   H     0.69445   0.87926   0.72682   0.00000  Uiso   1.00
H219   H     0.85854   0.62602   0.77653   0.00000  Uiso   1.00
H220   H     0.72095   0.82633   0.43700   0.00000  Uiso   1.00
H221   H     0.60886   0.93474   0.80740   0.00000  Uiso   1.00
O222   O     0.80320   0.49709   0.85285   0.00000  Uiso   1.00
O223   O     0.62268   0.75990   0.40740   0.00000  Uiso   1.00
O224   O     0.47562   0.90213   0.89336   0.00000  Uiso   1.00
N225   N     0.70307   0.52018   0.83790   0.00000  Uiso   1.00
N226   N     0.57444   0.70746   0.52045   0.00000  Uiso   1.00
N227   N     0.46964   0.80882   0.86673   0.00000  Uiso   1.00
N228   N     0.80597   0.60196   0.79028   0.00000  Uiso   1.00
N229   N     0.67734   0.78923   0.47284   0.00000  Uiso   1.00
N230   N     0.57254   0.89060   0.81912   0.00000  Uiso   1.00
C231   C     0.17683   0.66969   0.58587   0.00000  Uiso   1.00
C232   C     0.17336   0.73822   0.58334   0.00000  Uiso   1.00
C233   C     0.23065   0.79179   0.57184   0.00000  Uiso   1.00
C234   C     0.21645   0.85025   0.57146   0.00000  Uiso   1.00
C235   C     0.22158   0.95597   0.56586   0.00000  Uiso   1.00
C236   C     0.14954   0.65713   0.53577   0.00000  Uiso   1.00
C237   C     0.18679   0.64250   0.48427   0.00000  Uiso   1.00
C238   C     0.15253   0.63269   0.44385   0.00000  Uiso   1.00
C239   C     0.12064   0.61246   0.36442   0.00000  Uiso   1.00
C240   C     0.12050   0.61959   0.65204   0.00000  Uiso   1.00
C241   C     0.13332   0.57338   0.69831   0.00000  Uiso   1.00
C242   C     0.07460   0.53196   0.75577   0.00000  Uiso   1.00
C243   C     0.99763   0.45344   0.85688   0.00000  Uiso   1.00
C244   C     0.04974   0.67826   0.60564   0.00000  Uiso   1.00
C245   C     0.10433   0.74287   0.59408   0.00000  Uiso   1.00
C246   C     0.09004   0.80127   0.59371   0.00000  Uiso   1.00
C247   C     0.14730   0.85491   0.58222   0.00000  Uiso   1.00
C248   C     0.08051   0.66178   0.54650   0.00000  Uiso   1.00
C249   C     0.04618   0.65199   0.50615   0.00000  Uiso   1.00
C250   C     0.08337   0.63735   0.45460   0.00000  Uiso   1.00
C251   C     0.05147   0.62424   0.66278   0.00000  Uiso   1.00
C252   C     0.99271   0.58287   0.72018   0.00000  Uiso   1.00
C253   C     0.00545   0.53662   0.76653   0.00000  Uiso   1.00
H254   H     0.23057   0.66606   0.57750   0.00000  Uiso   1.00
H255   H     0.28407   0.78816   0.56353   0.00000  Uiso   1.00
H256   H     0.24021   0.63890   0.47598   0.00000  Uiso   1.00
H257   H     0.18675   0.56980   0.68998   0.00000  Uiso   1.00
H258   H     0.31294   0.92560   0.55274   0.00000  Uiso   1.00
H259   H     0.22045   0.61084   0.36815   0.00000  Uiso   1.00
H260   H     0.10772   0.46512   0.81942   0.00000  Uiso   1.00
H261   H     0.99600   0.68188   0.61400   0.00000  Uiso   1.00
H262   H     0.03662   0.80486   0.60202   0.00000  Uiso   1.00
H263   H     0.99276   0.65559   0.51447   0.00000  Uiso   1.00
H264   H     0.93930   0.58649   0.72848   0.00000  Uiso   1.00
H265   H     0.11210   0.93915   0.58398   0.00000  Uiso   1.00
H266   H     0.01961   0.62438   0.39940   0.00000  Uiso   1.00
H267   H     0.90688   0.47867   0.85066   0.00000  Uiso   1.00
O268   O     0.24348   0.01299   0.55980   0.00000  Uiso   1.00
O269   O     0.12213   0.60002   0.31764   0.00000  Uiso   1.00
O270   O     0.97424   0.40886   0.90969   0.00000  Uiso   1.00
N271   N     0.26009   0.91191   0.56175   0.00000  Uiso   1.00
N272   N     0.17362   0.61763   0.38917   0.00000  Uiso   1.00
N273   N     0.06823   0.48139   0.81105   0.00000  Uiso   1.00
N274   N     0.15202   0.91920   0.57856   0.00000  Uiso   1.00
N275   N     0.06556   0.62492   0.40598   0.00000  Uiso   1.00
N276   N     0.96016   0.48868   0.82787   0.00000  Uiso   1.00
C277   C     0.51223   0.65536   0.00239   0.00000  Uiso   1.00
C278   C     0.59016   0.69064   0.95358   0.00000  Uiso   1.00
C279   C     0.62230   0.75897   0.91867   0.00000  Uiso   1.00
C280   C     0.69417   0.78142   0.87644   0.00000  Uiso   1.00
C281   C     0.80937   0.84295   0.80174   0.00000  Uiso   1.00
C282   C     0.51558   0.61468   0.06584   0.00000  Uiso   1.00
C283   C     0.48500   0.61914   0.12532   0.00000  Uiso   1.00
C284   C     0.49409   0.57765   0.17759   0.00000  Uiso   1.00
C285   C     0.49345   0.52121   0.27719   0.00000  Uiso   1.00
C286   C     0.47925   0.60482   0.97890   0.00000  Uiso   1.00
C287   C     0.41811   0.60097   0.96529   0.00000  Uiso   1.00
C288   C     0.39660   0.55115   0.94437   0.00000  Uiso   1.00
C289   C     0.33955   0.47941   0.90898   0.00000  Uiso   1.00
C290   C     0.58272   0.57372   0.98947   0.00000  Uiso   1.00
C291   C     0.62845   0.64629   0.94657   0.00000  Uiso   1.00
C292   C     0.70029   0.66865   0.90438   0.00000  Uiso   1.00
C293   C     0.73253   0.73700   0.86941   0.00000  Uiso   1.00
C294   C     0.55387   0.57034   0.05883   0.00000  Uiso   1.00
C295   C     0.56299   0.52882   0.11103   0.00000  Uiso   1.00
C296   C     0.53244   0.53323   0.17056   0.00000  Uiso   1.00
C297   C     0.51753   0.56048   0.97188   0.00000  Uiso   1.00
C298   C     0.49610   0.51065   0.95099   0.00000  Uiso   1.00
C299   C     0.43495   0.50673   0.93735   0.00000  Uiso   1.00
H300   H     0.48242   0.68988   0.00785   0.00000  Uiso   1.00
H301   H     0.59265   0.79326   0.92411   0.00000  Uiso   1.00
H302   H     0.45537   0.65345   0.13073   0.00000  Uiso   1.00
H303   H     0.38850   0.63529   0.97072   0.00000  Uiso   1.00
H304   H     0.73176   0.88834   0.82820   0.00000  Uiso   1.00
H305   H     0.44228   0.59353   0.26387   0.00000  Uiso   1.00
H306   H     0.30125   0.55522   0.92645   0.00000  Uiso   1.00
H307   H     0.61252   0.53920   0.98401   0.00000  Uiso   1.00
H308   H     0.72990   0.63432   0.89896   0.00000  Uiso   1.00
H309   H     0.59262   0.49452   0.10558   0.00000  Uiso   1.00
H310   H     0.52574   0.47635   0.94557   0.00000  Uiso   1.00
H311   H     0.84316   0.75934   0.80778   0.00000  Uiso   1.00
H312   H     0.55367   0.46452   0.24346   0.00000  Uiso   1.00
H313   H     0.41265   0.42622   0.90604   0.00000  Uiso   1.00
O314   O     0.86234   0.88913   0.76249   0.00000  Uiso   1.00
O315   O     0.48253   0.50234   0.33407   0.00000  Uiso   1.00
O316   O     0.29751   0.45209   0.89139   0.00000  Uiso   1.00
N317   N     0.74187   0.84492   0.83505   0.00000  Uiso   1.00
N318   N     0.47123   0.56930   0.24238   0.00000  Uiso   1.00
N319   N     0.33937   0.53347   0.92694   0.00000  Uiso   1.00
N320   N     0.80181   0.77551   0.82407   0.00000  Uiso   1.00
N321   N     0.53117   0.49988   0.23139   0.00000  Uiso   1.00
N322   N     0.39931   0.46406   0.91596   0.00000  Uiso   1.00
C323   C     0.00224   0.25771   0.70001   0.00000  Uiso   1.00
C324   C     0.02919   0.19798   0.70988   0.00000  Uiso   1.00
C325   C     0.10068   0.20094   0.69333   0.00000  Uiso   1.00
C326   C     0.11421   0.14069   0.70630   0.00000  Uiso   1.00
C327   C     0.16457   0.05722   0.71732   0.00000  Uiso   1.00
C328   C     0.94875   0.24641   0.76679   0.00000  Uiso   1.00
C329   C     0.95259   0.29011   0.79808   0.00000  Uiso   1.00
C330   C     0.89839   0.27062   0.85896   0.00000  Uiso   1.00
C331   C     0.82383   0.26237   0.95831   0.00000  Uiso   1.00
C332   C     0.95815   0.25178   0.65933   0.00000  Uiso   1.00
C333   C     0.96989   0.30000   0.60028   0.00000  Uiso   1.00
C334   C     0.92360   0.28505   0.57070   0.00000  Uiso   1.00
C335   C     0.86364   0.28513   0.50320   0.00000  Uiso   1.00
C336   C     0.89916   0.14542   0.75247   0.00000  Uiso   1.00
C337   C     0.97320   0.13699   0.73837   0.00000  Uiso   1.00
C338   C     0.98663   0.07671   0.75137   0.00000  Uiso   1.00
C339   C     0.05812   0.07959   0.73485   0.00000  Uiso   1.00
C340   C     0.89276   0.18542   0.79528   0.00000  Uiso   1.00
C341   C     0.83854   0.16587   0.85613   0.00000  Uiso   1.00
C342   C     0.84230   0.20952   0.88751   0.00000  Uiso   1.00
C343   C     0.90216   0.19079   0.68782   0.00000  Uiso   1.00
C344   C     0.85584   0.17576   0.65832   0.00000  Uiso   1.00
C345   C     0.86751   0.22395   0.59924   0.00000  Uiso   1.00
H346   H     0.04583   0.30519   0.67783   0.00000  Uiso   1.00
H347   H     0.14399   0.24815   0.67129   0.00000  Uiso   1.00
H348   H     0.99592   0.33730   0.77602   0.00000  Uiso   1.00
H349   H     0.01322   0.34719   0.57825   0.00000  Uiso   1.00
H350   H     0.22813   0.15802   0.67662   0.00000  Uiso   1.00
H351   H     0.91590   0.34600   0.89744   0.00000  Uiso   1.00
H352   H     0.95237   0.36686   0.48040   0.00000  Uiso   1.00
H353   H     0.85557   0.09794   0.77466   0.00000  Uiso   1.00
H354   H     0.94329   0.02952   0.77342   0.00000  Uiso   1.00
H355   H     0.79522   0.11867   0.87816   0.00000  Uiso   1.00
H356   H     0.81252   0.12856   0.68039   0.00000  Uiso   1.00
H357   H     0.06523   0.98057   0.75952   0.00000  Uiso   1.00
H358   H     0.75300   0.16856   0.98034   0.00000  Uiso   1.00
H359   H     0.78948   0.18941   0.56331   0.00000  Uiso   1.00
O360   O     0.20781   0.02803   0.71553   0.00000  Uiso   1.00
O361   O     0.79817   0.27467   0.00524   0.00000  Uiso   1.00
O362   O     0.84604   0.30203   0.45809   0.00000  Uiso   1.00
N363   N     0.17775   0.12565   0.69628   0.00000  Uiso   1.00
N364   N     0.88584   0.30140   0.90275   0.00000  Uiso   1.00
N365   N     0.91993   0.32090   0.51286   0.00000  Uiso   1.00
N366   N     0.09010   0.03016   0.74089   0.00000  Uiso   1.00
N367   N     0.79819   0.20591   0.94736   0.00000  Uiso   1.00
N368   N     0.83228   0.22542   0.55747   0.00000  Uiso   1.00
C369   C     0.25941   0.77120   0.78712   0.00000  Uiso   1.00
C370   C     0.19174   0.77875   0.77667   0.00000  Uiso   1.00
C371   C     0.12913   0.72700   0.79548   0.00000  Uiso   1.00
C372   C     0.07323   0.74424   0.78151   0.00000  Uiso   1.00
C373   C     0.96714   0.74583   0.77012   0.00000  Uiso   1.00
C374   C     0.27382   0.81392   0.82475   0.00000  Uiso   1.00
C375   C     0.28023   0.79173   0.88398   0.00000  Uiso   1.00
C376   C     0.29343   0.83859   0.91048   0.00000  Uiso   1.00
C377   C     0.31483   0.89479   0.97371   0.00000  Uiso   1.00
C378   C     0.32092   0.80499   0.72004   0.00000  Uiso   1.00
C379   C     0.36696   0.77531   0.69123   0.00000  Uiso   1.00
C380   C     0.41983   0.81466   0.62959   0.00000  Uiso   1.00
C381   C     0.51437   0.85700   0.53024   0.00000  Uiso   1.00
C382   C     0.27145   0.89386   0.72887   0.00000  Uiso   1.00
C383   C     0.19828   0.84537   0.74503   0.00000  Uiso   1.00
C384   C     0.14246   0.86271   0.73103   0.00000  Uiso   1.00
C385   C     0.07978   0.81099   0.74982   0.00000  Uiso   1.00
C386   C     0.28036   0.88054   0.79311   0.00000  Uiso   1.00
C387   C     0.29356   0.92745   0.81953   0.00000  Uiso   1.00
C388   C     0.29998   0.90534   0.87879   0.00000  Uiso   1.00
C389   C     0.32747   0.87162   0.68840   0.00000  Uiso   1.00
C390   C     0.38028   0.91102   0.62679   0.00000  Uiso   1.00
C391   C     0.42639   0.88140   0.59789   0.00000  Uiso   1.00
H392   H     0.25432   0.71933   0.81176   0.00000  Uiso   1.00
H393   H     0.12409   0.67544   0.81997   0.00000  Uiso   1.00
H394   H     0.27517   0.74018   0.90845   0.00000  Uiso   1.00
H395   H     0.36188   0.72375   0.71573   0.00000  Uiso   1.00
H396   H     0.98258   0.65617   0.81514   0.00000  Uiso   1.00
H397   H     0.30117   0.79266   0.00169   0.00000  Uiso   1.00
H398   H     0.48402   0.75803   0.59532   0.00000  Uiso   1.00
H399   H     0.27655   0.94573   0.70424   0.00000  Uiso   1.00
H400   H     0.14753   0.91427   0.70655   0.00000  Uiso   1.00
H401   H     0.29862   0.97900   0.79503   0.00000  Uiso   1.00
H402   H     0.38533   0.96258   0.60232   0.00000  Uiso   1.00
H403   H     0.00161   0.85001   0.72309   0.00000  Uiso   1.00
H404   H     0.32021   0.98650   0.90964   0.00000  Uiso   1.00
H405   H     0.50305   0.95187   0.50327   0.00000  Uiso   1.00
O406   O     0.90682   0.72831   0.77259   0.00000  Uiso   1.00
O407   O     0.32481   0.90738   0.01734   0.00000  Uiso   1.00
O408   O     0.56470   0.86195   0.48418   0.00000  Uiso   1.00
N409   N     0.00477   0.70610   0.79314   0.00000  Uiso   1.00
N410   N     0.30262   0.83372   0.96757   0.00000  Uiso   1.00
N411   N     0.47359   0.80135   0.58765   0.00000  Uiso   1.00
N412   N     0.01501   0.81041   0.74361   0.00000  Uiso   1.00
N413   N     0.31286   0.93802   0.91804   0.00000  Uiso   1.00
N414   N     0.48382   0.90565   0.53812   0.00000  Uiso   1.00
C415   C     0.74031   0.48086   0.48701   0.00000  Uiso   1.00
C416   C     0.77638   0.55490   0.44376   0.00000  Uiso   1.00
C417   C     0.84954   0.58651   0.40626   0.00000  Uiso   1.00
C418   C     0.87187   0.65459   0.37007   0.00000  Uiso   1.00
C419   C     0.93534   0.76421   0.30274   0.00000  Uiso   1.00
C420   C     0.69949   0.47717   0.55490   0.00000  Uiso   1.00
C421   C     0.70800   0.44341   0.61084   0.00000  Uiso   1.00
C422   C     0.66559   0.44605   0.66821   0.00000  Uiso   1.00
C423   C     0.60965   0.43496   0.77343   0.00000  Uiso   1.00
C424   C     0.68310   0.45486   0.46403   0.00000  Uiso   1.00
C425   C     0.67781   0.40233   0.44359   0.00000  Uiso   1.00
C426   C     0.62160   0.38617   0.42448   0.00000  Uiso   1.00
C427   C     0.54021   0.34043   0.38862   0.00000  Uiso   1.00
C428   C     0.64986   0.54557   0.48943   0.00000  Uiso   1.00
C429   C     0.72725   0.59005   0.44508   0.00000  Uiso   1.00
C430   C     0.74947   0.65810   0.40894   0.00000  Uiso   1.00
C431   C     0.82265   0.68980   0.37139   0.00000  Uiso   1.00
C432   C     0.65036   0.51232   0.55622   0.00000  Uiso   1.00
C433   C     0.60792   0.51501   0.61352   0.00000  Uiso   1.00
C434   C     0.61637   0.48126   0.66953   0.00000  Uiso   1.00
C435   C     0.63397   0.49001   0.46535   0.00000  Uiso   1.00
C436   C     0.57774   0.47393   0.44627   0.00000  Uiso   1.00
C437   C     0.57238   0.42138   0.42580   0.00000  Uiso   1.00
H438   H     0.77856   0.45350   0.48599   0.00000  Uiso   1.00
H439   H     0.88755   0.55929   0.40525   0.00000  Uiso   1.00
H440   H     0.74601   0.41621   0.60980   0.00000  Uiso   1.00
H441   H     0.71584   0.37514   0.44258   0.00000  Uiso   1.00
H442   H     0.98671   0.69208   0.31635   0.00000  Uiso   1.00
H443   H     0.68827   0.39038   0.74765   0.00000  Uiso   1.00
H444   H     0.62464   0.30376   0.39503   0.00000  Uiso   1.00
H445   H     0.61161   0.57294   0.49046   0.00000  Uiso   1.00
H446   H     0.71144   0.68529   0.40997   0.00000  Uiso   1.00
H447   H     0.56991   0.54221   0.61452   0.00000  Uiso   1.00
H448   H     0.53974   0.50114   0.44730   0.00000  Uiso   1.00
H449   H     0.84378   0.79435   0.32018   0.00000  Uiso   1.00
H450   H     0.54533   0.49264   0.75148   0.00000  Uiso   1.00
H451   H     0.48171   0.40603   0.39886   0.00000  Uiso   1.00
O452   O     0.98393   0.81497   0.26525   0.00000  Uiso   1.00
O453   O     0.59238   0.41913   0.83110   0.00000  Uiso   1.00
O454   O     0.50890   0.30550   0.36847   0.00000  Uiso   1.00
N455   N     0.93937   0.70073   0.32828   0.00000  Uiso   1.00
N456   N     0.66035   0.41866   0.73153   0.00000  Uiso   1.00
N457   N     0.60086   0.33767   0.40187   0.00000  Uiso   1.00
N458   N     0.86246   0.75576   0.33034   0.00000  Uiso   1.00
N459   N     0.58344   0.47369   0.73359   0.00000  Uiso   1.00
N460   N     0.52394   0.39270   0.40393   0.00000  Uiso   1.00
C461   C     0.33728   0.08935   0.18061   0.00000  Uiso   1.00
C462   C     0.25989   0.05568   0.19147   0.00000  Uiso   1.00
C463   C     0.20924   0.08733   0.18692   0.00000  Uiso   1.00
C464   C     0.14138   0.04775   0.19865   0.00000  Uiso   1.00
C465   C     0.02371   0.00593   0.21316   0.00000  Uiso   1.00
C466   C     0.34608   0.05284   0.24257   0.00000  Uiso   1.00
C467   C     0.36791   0.08210   0.28097   0.00000  Uiso   1.00
C468   C     0.37261   0.04012   0.33570   0.00000  Uiso   1.00
C469   C     0.38880   0.99389   0.42951   0.00000  Uiso   1.00
C470   C     0.38500   0.07278   0.12760   0.00000  Uiso   1.00
C471   C     0.43957   0.11880   0.06934   0.00000  Uiso   1.00
C472   C     0.47705   0.09361   0.02729   0.00000  Uiso   1.00
C473   C     0.55368   0.07834   0.94260   0.00000  Uiso   1.00
C474   C     0.30681   0.96277   0.20951   0.00000  Uiso   1.00
C475   C     0.24334   0.98693   0.20717   0.00000  Uiso   1.00
C476   C     0.17554   0.94729   0.21890   0.00000  Uiso   1.00
C477   C     0.12480   0.97887   0.21437   0.00000  Uiso   1.00
C478   C     0.32953   0.98409   0.25827   0.00000  Uiso   1.00
C479   C     0.33420   0.94205   0.31295   0.00000  Uiso   1.00
C480   C     0.35603   0.97124   0.35143   0.00000  Uiso   1.00
C481   C     0.36845   0.00402   0.14330   0.00000  Uiso   1.00
C482   C     0.40586   0.97876   0.10132   0.00000  Uiso   1.00
C483   C     0.46047   0.02473   0.04302   0.00000  Uiso   1.00
H484   H     0.35017   0.14287   0.16839   0.00000  Uiso   1.00
H485   H     0.22207   0.14054   0.17478   0.00000  Uiso   1.00
H486   H     0.38072   0.13530   0.26881   0.00000  Uiso   1.00
H487   H     0.45236   0.17200   0.05721   0.00000  Uiso   1.00
H488   H     0.07275   0.10763   0.18881   0.00000  Uiso   1.00
H489   H     0.40729   0.09659   0.38706   0.00000  Uiso   1.00
H490   H     0.55837   0.17398   0.94088   0.00000  Uiso   1.00
H491   H     0.29393   0.90924   0.22174   0.00000  Uiso   1.00
H492   H     0.16275   0.89409   0.23105   0.00000  Uiso   1.00
H493   H     0.32139   0.88885   0.32508   0.00000  Uiso   1.00
H494   H     0.39304   0.92555   0.11349   0.00000  Uiso   1.00
H495   H     0.02459   0.90760   0.23449   0.00000  Uiso   1.00
H496   H     0.35914   0.89656   0.43274   0.00000  Uiso   1.00
H497   H     0.51022   0.97395   0.98655   0.00000  Uiso   1.00
O498   O     0.96338   0.00186   0.21684   0.00000  Uiso   1.00
O499   O     0.40230   0.98738   0.47693   0.00000  Uiso   1.00
O500   O     0.60051   0.08891   0.89154   0.00000  Uiso   1.00
N501   N     0.07942   0.06263   0.19827   0.00000  Uiso   1.00
N502   N     0.39219   0.05231   0.38363   0.00000  Uiso   1.00
N503   N     0.53345   0.12466   0.96649   0.00000  Uiso   1.00
N504   N     0.05351   0.95500   0.22285   0.00000  Uiso   1.00
N505   N     0.36628   0.94468   0.40821   0.00000  Uiso   1.00
N506   N     0.50754   0.01703   0.99107   0.00000  Uiso   1.00
C507   C     0.61334   0.08542   0.34195   0.00000  Uiso   1.00
C508   C     0.66662   0.04838   0.32647   0.00000  Uiso   1.00
C509   C     0.64912   0.98003   0.34319   0.00000  Uiso   1.00
C510   C     0.70566   0.95582   0.32460   0.00000  Uiso   1.00
C511   C     0.77753   0.89182   0.30579   0.00000  Uiso   1.00
C512   C     0.63805   0.12399   0.37942   0.00000  Uiso   1.00
C513   C     0.59651   0.11921   0.44065   0.00000  Uiso   1.00
C514   C     0.62900   0.15866   0.46664   0.00000  Uiso   1.00
C515   C     0.65649   0.21208   0.53001   0.00000  Uiso   1.00
C516   C     0.62549   0.13773   0.27696   0.00000  Uiso   1.00
C517   C     0.57339   0.14451   0.25203   0.00000  Uiso   1.00
C518   C     0.59529   0.19554   0.19175   0.00000  Uiso   1.00
C519   C     0.60328   0.27028   0.09603   0.00000  Uiso   1.00
C520   C     0.74487   0.16400   0.27921   0.00000  Uiso   1.00
C521   C     0.73806   0.09107   0.29240   0.00000  Uiso   1.00
C522   C     0.79464   0.06696   0.27378   0.00000  Uiso   1.00
C523   C     0.77723   0.99858   0.29046   0.00000  Uiso   1.00
C524   C     0.70949   0.16667   0.34535   0.00000  Uiso   1.00
C525   C     0.74204   0.20615   0.37125   0.00000  Uiso   1.00
C526   C     0.70057   0.20142   0.43250   0.00000  Uiso   1.00
C527   C     0.69693   0.18041   0.24288   0.00000  Uiso   1.00
C528   C     0.71892   0.23144   0.18263   0.00000  Uiso   1.00
C529   C     0.66687   0.23829   0.15762   0.00000  Uiso   1.00
H530   H     0.55772   0.05219   0.36848   0.00000  Uiso   1.00
H531   H     0.59382   0.94701   0.36956   0.00000  Uiso   1.00
H532   H     0.54123   0.08618   0.46701   0.00000  Uiso   1.00
H533   H     0.51811   0.11147   0.27842   0.00000  Uiso   1.00
H534   H     0.66536   0.84922   0.35576   0.00000  Uiso   1.00
H535   H     0.55445   0.14268   0.56122   0.00000  Uiso   1.00
H536   H     0.50570   0.19601   0.16354   0.00000  Uiso   1.00
H537   H     0.80049   0.19723   0.25268   0.00000  Uiso   1.00
H538   H     0.84993   0.10000   0.24741   0.00000  Uiso   1.00
H539   H     0.79733   0.23917   0.34486   0.00000  Uiso   1.00
H540   H     0.77421   0.26446   0.15627   0.00000  Uiso   1.00
H541   H     0.87323   0.97339   0.25662   0.00000  Uiso   1.00
H542   H     0.76231   0.26686   0.46209   0.00000  Uiso   1.00
H543   H     0.71356   0.32018   0.06440   0.00000  Uiso   1.00
O544   O     0.79743   0.84473   0.30483   0.00000  Uiso   1.00
O545   O     0.65191   0.22975   0.57438   0.00000  Uiso   1.00
O546   O     0.58796   0.29971   0.05264   0.00000  Uiso   1.00
N547   N     0.70750   0.89179   0.33314   0.00000  Uiso   1.00
N548   N     0.60380   0.16615   0.52524   0.00000  Uiso   1.00
N549   N     0.55822   0.21602   0.15345   0.00000  Uiso   1.00
N550   N     0.81935   0.95860   0.27979   0.00000  Uiso   1.00
N551   N     0.71565   0.23297   0.47189   0.00000  Uiso   1.00
N552   N     0.67007   0.28283   0.10010   0.00000  Uiso   1.00
