data_job_02820
_audit_creation_date              2018-12-19
_audit_creation_method            'Materials Studio'
_symmetry_space_group_name_H-M    'P1'
_symmetry_Int_Tables_number       1
_symmetry_cell_setting            triclinic
loop_
_symmetry_equiv_pos_as_xyz
  x,y,z
_cell_length_a                    29.6982
_cell_length_b                    12.6111
_cell_length_c                    24.7250
_cell_angle_alpha                 90.0000
_cell_angle_beta                  134.3620
_cell_angle_gamma                 90.0000
loop_
_atom_site_label
_atom_site_type_symbol
_atom_site_fract_x
_atom_site_fract_y
_atom_site_fract_z
_atom_site_U_iso_or_equiv
_atom_site_adp_type
_atom_site_occupancy
C1     C     0.29357   0.19392   0.83906   0.00000  Uiso   1.00
C2     C     0.33163   0.29595   0.87628   0.00000  Uiso   1.00
C3     C     0.35476   0.35609   0.85310   0.00000  Uiso   1.00
C4     C     0.38846   0.44680   0.89463   0.00000  Uiso   1.00
C5     C     0.44599   0.60077   0.94290   0.00000  Uiso   1.00
C6     C     0.23240   0.21293   0.81853   0.00000  Uiso   1.00
C7     C     0.17210   0.20324   0.74680   0.00000  Uiso   1.00
C8     C     0.12227   0.22405   0.73972   0.00000  Uiso   1.00
C9     C     0.02574   0.24905   0.69834   0.00000  Uiso   1.00
C10    C     0.32950   0.11001   0.90117   0.00000  Uiso   1.00
C11    C     0.35082   0.01378   0.89892   0.00000  Uiso   1.00
C12    C     0.38272   0.94793   0.96142   0.00000  Uiso   1.00
C13    C     0.43695   0.81315   0.04835   0.00000  Uiso   1.00
C14    C     0.31229   0.24807   0.95405   0.00000  Uiso   1.00
C15    C     0.34180   0.32536   0.93873   0.00000  Uiso   1.00
C16    C     0.37547   0.41600   0.98032   0.00000  Uiso   1.00
C17    C     0.39865   0.47626   0.95720   0.00000  Uiso   1.00
C18    C     0.24257   0.24234   0.88098   0.00000  Uiso   1.00
C19    C     0.19281   0.26316   0.87401   0.00000  Uiso   1.00
C20    C     0.13245   0.25352   0.80229   0.00000  Uiso   1.00
C21    C     0.33967   0.13942   0.96363   0.00000  Uiso   1.00
C22    C     0.37154   0.07370   0.02614   0.00000  Uiso   1.00
C23    C     0.39291   0.97740   0.02398   0.00000  Uiso   1.00
H24    H     0.28565   0.17102   0.79044   0.00000  Uiso   1.00
H25    H     0.34688   0.33330   0.80476   0.00000  Uiso   1.00
H26    H     0.16425   0.18047   0.69848   0.00000  Uiso   1.00
H27    H     0.34294   0.99105   0.85058   0.00000  Uiso   1.00
H28    H     0.41922   0.52621   0.84816   0.00000  Uiso   1.00
H29    H     0.03414   0.20393   0.62406   0.00000  Uiso   1.00
H30    H     0.41095   0.80448   0.94480   0.00000  Uiso   1.00
H31    H     0.32021   0.27097   0.00267   0.00000  Uiso   1.00
H32    H     0.38333   0.43874   0.02864   0.00000  Uiso   1.00
H33    H     0.20070   0.28591   0.92235   0.00000  Uiso   1.00
H34    H     0.37940   0.09649   0.07446   0.00000  Uiso   1.00
H35    H     0.44881   0.61180   0.02987   0.00000  Uiso   1.00
H36    H     0.06372   0.28950   0.80577   0.00000  Uiso   1.00
H37    H     0.44053   0.89007   0.12651   0.00000  Uiso   1.00
O38    O     0.47490   0.67758   0.95226   0.00000  Uiso   1.00
O39    O     0.96969   0.25473   0.65825   0.00000  Uiso   1.00
O40    O     0.46405   0.73068   0.07905   0.00000  Uiso   1.00
N41    N     0.41753   0.52332   0.88738   0.00000  Uiso   1.00
N42    N     0.05750   0.22202   0.67785   0.00000  Uiso   1.00
N43    N     0.40977   0.84856   0.97771   0.00000  Uiso   1.00
N44    N     0.43346   0.56937   0.98515   0.00000  Uiso   1.00
N45    N     0.07342   0.26806   0.77563   0.00000  Uiso   1.00
N46    N     0.42569   0.89461   0.07548   0.00000  Uiso   1.00
C47    C     0.79357   0.69392   0.83906   0.00000  Uiso   1.00
C48    C     0.83163   0.79595   0.87628   0.00000  Uiso   1.00
C49    C     0.85476   0.85609   0.85310   0.00000  Uiso   1.00
C50    C     0.88846   0.94680   0.89463   0.00000  Uiso   1.00
C51    C     0.94599   0.10077   0.94290   0.00000  Uiso   1.00
C52    C     0.73240   0.71293   0.81853   0.00000  Uiso   1.00
C53    C     0.67210   0.70324   0.74680   0.00000  Uiso   1.00
C54    C     0.62227   0.72405   0.73972   0.00000  Uiso   1.00
C55    C     0.52574   0.74905   0.69834   0.00000  Uiso   1.00
C56    C     0.82950   0.61001   0.90117   0.00000  Uiso   1.00
C57    C     0.85082   0.51378   0.89892   0.00000  Uiso   1.00
C58    C     0.88272   0.44793   0.96142   0.00000  Uiso   1.00
C59    C     0.93695   0.31315   0.04835   0.00000  Uiso   1.00
C60    C     0.81229   0.74807   0.95405   0.00000  Uiso   1.00
C61    C     0.84180   0.82536   0.93873   0.00000  Uiso   1.00
C62    C     0.87547   0.91600   0.98032   0.00000  Uiso   1.00
C63    C     0.89865   0.97626   0.95720   0.00000  Uiso   1.00
C64    C     0.74257   0.74234   0.88098   0.00000  Uiso   1.00
C65    C     0.69281   0.76316   0.87401   0.00000  Uiso   1.00
C66    C     0.63245   0.75352   0.80229   0.00000  Uiso   1.00
C67    C     0.83967   0.63942   0.96363   0.00000  Uiso   1.00
C68    C     0.87154   0.57370   0.02614   0.00000  Uiso   1.00
C69    C     0.89291   0.47740   0.02398   0.00000  Uiso   1.00
H70    H     0.78565   0.67102   0.79044   0.00000  Uiso   1.00
H71    H     0.84688   0.83330   0.80476   0.00000  Uiso   1.00
H72    H     0.66425   0.68047   0.69848   0.00000  Uiso   1.00
H73    H     0.84294   0.49105   0.85058   0.00000  Uiso   1.00
H74    H     0.91922   0.02621   0.84816   0.00000  Uiso   1.00
H75    H     0.53414   0.70393   0.62406   0.00000  Uiso   1.00
H76    H     0.91095   0.30448   0.94480   0.00000  Uiso   1.00
H77    H     0.82021   0.77097   0.00267   0.00000  Uiso   1.00
H78    H     0.88333   0.93874   0.02864   0.00000  Uiso   1.00
H79    H     0.70070   0.78591   0.92235   0.00000  Uiso   1.00
H80    H     0.87940   0.59649   0.07446   0.00000  Uiso   1.00
H81    H     0.94881   0.11180   0.02987   0.00000  Uiso   1.00
H82    H     0.56372   0.78950   0.80577   0.00000  Uiso   1.00
H83    H     0.94053   0.39007   0.12651   0.00000  Uiso   1.00
O84    O     0.97490   0.17758   0.95226   0.00000  Uiso   1.00
O85    O     0.46969   0.75473   0.65825   0.00000  Uiso   1.00
O86    O     0.96405   0.23068   0.07905   0.00000  Uiso   1.00
N87    N     0.91753   0.02332   0.88738   0.00000  Uiso   1.00
N88    N     0.55750   0.72202   0.67785   0.00000  Uiso   1.00
N89    N     0.90977   0.34856   0.97771   0.00000  Uiso   1.00
N90    N     0.93346   0.06937   0.98515   0.00000  Uiso   1.00
N91    N     0.57342   0.76806   0.77563   0.00000  Uiso   1.00
N92    N     0.92569   0.39461   0.07548   0.00000  Uiso   1.00
C93    C     0.70643   0.19392   0.66094   0.00000  Uiso   1.00
C94    C     0.66837   0.29595   0.62372   0.00000  Uiso   1.00
C95    C     0.64524   0.35609   0.64690   0.00000  Uiso   1.00
C96    C     0.61154   0.44680   0.60537   0.00000  Uiso   1.00
C97    C     0.55401   0.60077   0.55710   0.00000  Uiso   1.00
C98    C     0.76760   0.21293   0.68147   0.00000  Uiso   1.00
C99    C     0.82790   0.20324   0.75320   0.00000  Uiso   1.00
C100   C     0.87773   0.22405   0.76028   0.00000  Uiso   1.00
C101   C     0.97426   0.24905   0.80166   0.00000  Uiso   1.00
C102   C     0.67050   0.11001   0.59883   0.00000  Uiso   1.00
C103   C     0.64918   0.01378   0.60108   0.00000  Uiso   1.00
C104   C     0.61728   0.94793   0.53858   0.00000  Uiso   1.00
C105   C     0.56305   0.81315   0.45165   0.00000  Uiso   1.00
C106   C     0.68771   0.24807   0.54595   0.00000  Uiso   1.00
C107   C     0.65820   0.32536   0.56127   0.00000  Uiso   1.00
C108   C     0.62453   0.41600   0.51968   0.00000  Uiso   1.00
C109   C     0.60135   0.47626   0.54280   0.00000  Uiso   1.00
C110   C     0.75743   0.24234   0.61902   0.00000  Uiso   1.00
C111   C     0.80719   0.26316   0.62599   0.00000  Uiso   1.00
C112   C     0.86755   0.25352   0.69771   0.00000  Uiso   1.00
C113   C     0.66033   0.13942   0.53637   0.00000  Uiso   1.00
C114   C     0.62846   0.07370   0.47386   0.00000  Uiso   1.00
C115   C     0.60709   0.97740   0.47602   0.00000  Uiso   1.00
H116   H     0.71435   0.17102   0.70956   0.00000  Uiso   1.00
H117   H     0.65312   0.33330   0.69524   0.00000  Uiso   1.00
H118   H     0.83575   0.18047   0.80152   0.00000  Uiso   1.00
H119   H     0.65706   0.99105   0.64942   0.00000  Uiso   1.00
H120   H     0.58078   0.52621   0.65184   0.00000  Uiso   1.00
H121   H     0.96586   0.20393   0.87594   0.00000  Uiso   1.00
H122   H     0.58905   0.80448   0.55520   0.00000  Uiso   1.00
H123   H     0.67979   0.27097   0.49733   0.00000  Uiso   1.00
H124   H     0.61667   0.43874   0.47136   0.00000  Uiso   1.00
H125   H     0.79930   0.28591   0.57765   0.00000  Uiso   1.00
H126   H     0.62060   0.09649   0.42554   0.00000  Uiso   1.00
H127   H     0.55119   0.61180   0.47013   0.00000  Uiso   1.00
H128   H     0.93628   0.28950   0.69423   0.00000  Uiso   1.00
H129   H     0.55947   0.89007   0.37349   0.00000  Uiso   1.00
O130   O     0.52510   0.67758   0.54774   0.00000  Uiso   1.00
O131   O     0.03031   0.25473   0.84175   0.00000  Uiso   1.00
O132   O     0.53595   0.73068   0.42095   0.00000  Uiso   1.00
N133   N     0.58247   0.52332   0.61262   0.00000  Uiso   1.00
N134   N     0.94250   0.22202   0.82215   0.00000  Uiso   1.00
N135   N     0.59023   0.84856   0.52229   0.00000  Uiso   1.00
N136   N     0.56654   0.56937   0.51485   0.00000  Uiso   1.00
N137   N     0.92658   0.26806   0.72437   0.00000  Uiso   1.00
N138   N     0.57431   0.89461   0.42452   0.00000  Uiso   1.00
C139   C     0.20643   0.69392   0.66094   0.00000  Uiso   1.00
C140   C     0.16837   0.79595   0.62372   0.00000  Uiso   1.00
C141   C     0.14524   0.85609   0.64690   0.00000  Uiso   1.00
C142   C     0.11154   0.94680   0.60537   0.00000  Uiso   1.00
C143   C     0.05401   0.10077   0.55710   0.00000  Uiso   1.00
C144   C     0.26760   0.71293   0.68147   0.00000  Uiso   1.00
C145   C     0.32790   0.70324   0.75320   0.00000  Uiso   1.00
C146   C     0.37773   0.72405   0.76028   0.00000  Uiso   1.00
C147   C     0.47426   0.74905   0.80166   0.00000  Uiso   1.00
C148   C     0.17050   0.61001   0.59883   0.00000  Uiso   1.00
C149   C     0.14918   0.51378   0.60108   0.00000  Uiso   1.00
C150   C     0.11728   0.44793   0.53858   0.00000  Uiso   1.00
C151   C     0.06305   0.31315   0.45165   0.00000  Uiso   1.00
C152   C     0.18771   0.74807   0.54595   0.00000  Uiso   1.00
C153   C     0.15820   0.82536   0.56127   0.00000  Uiso   1.00
C154   C     0.12453   0.91600   0.51968   0.00000  Uiso   1.00
C155   C     0.10135   0.97626   0.54280   0.00000  Uiso   1.00
C156   C     0.25743   0.74234   0.61902   0.00000  Uiso   1.00
C157   C     0.30719   0.76316   0.62599   0.00000  Uiso   1.00
C158   C     0.36755   0.75352   0.69771   0.00000  Uiso   1.00
C159   C     0.16033   0.63942   0.53637   0.00000  Uiso   1.00
C160   C     0.12846   0.57370   0.47386   0.00000  Uiso   1.00
C161   C     0.10709   0.47740   0.47602   0.00000  Uiso   1.00
H162   H     0.21435   0.67102   0.70956   0.00000  Uiso   1.00
H163   H     0.15312   0.83330   0.69524   0.00000  Uiso   1.00
H164   H     0.33575   0.68047   0.80152   0.00000  Uiso   1.00
H165   H     0.15706   0.49105   0.64942   0.00000  Uiso   1.00
H166   H     0.08078   0.02621   0.65184   0.00000  Uiso   1.00
H167   H     0.46586   0.70393   0.87594   0.00000  Uiso   1.00
H168   H     0.08905   0.30448   0.55520   0.00000  Uiso   1.00
H169   H     0.17979   0.77097   0.49733   0.00000  Uiso   1.00
H170   H     0.11667   0.93874   0.47136   0.00000  Uiso   1.00
H171   H     0.29930   0.78591   0.57765   0.00000  Uiso   1.00
H172   H     0.12060   0.59649   0.42554   0.00000  Uiso   1.00
H173   H     0.05119   0.11180   0.47013   0.00000  Uiso   1.00
H174   H     0.43628   0.78950   0.69423   0.00000  Uiso   1.00
H175   H     0.05947   0.39007   0.37349   0.00000  Uiso   1.00
O176   O     0.02510   0.17758   0.54774   0.00000  Uiso   1.00
O177   O     0.53031   0.75473   0.84175   0.00000  Uiso   1.00
O178   O     0.03595   0.23068   0.42095   0.00000  Uiso   1.00
N179   N     0.08247   0.02332   0.61262   0.00000  Uiso   1.00
N180   N     0.44250   0.72202   0.82215   0.00000  Uiso   1.00
N181   N     0.09023   0.34856   0.52229   0.00000  Uiso   1.00
N182   N     0.06654   0.06937   0.51485   0.00000  Uiso   1.00
N183   N     0.42658   0.76806   0.72437   0.00000  Uiso   1.00
N184   N     0.07431   0.39461   0.42452   0.00000  Uiso   1.00
C185   C     0.70643   0.80608   0.16094   0.00000  Uiso   1.00
C186   C     0.66837   0.70405   0.12372   0.00000  Uiso   1.00
C187   C     0.64524   0.64391   0.14690   0.00000  Uiso   1.00
C188   C     0.61154   0.55320   0.10537   0.00000  Uiso   1.00
C189   C     0.55401   0.39923   0.05710   0.00000  Uiso   1.00
C190   C     0.76760   0.78707   0.18147   0.00000  Uiso   1.00
C191   C     0.82790   0.79676   0.25320   0.00000  Uiso   1.00
C192   C     0.87773   0.77595   0.26028   0.00000  Uiso   1.00
C193   C     0.97426   0.75095   0.30166   0.00000  Uiso   1.00
C194   C     0.67050   0.88999   0.09883   0.00000  Uiso   1.00
C195   C     0.64918   0.98622   0.10108   0.00000  Uiso   1.00
C196   C     0.61728   0.05207   0.03858   0.00000  Uiso   1.00
C197   C     0.56305   0.18685   0.95165   0.00000  Uiso   1.00
C198   C     0.68771   0.75193   0.04595   0.00000  Uiso   1.00
C199   C     0.65820   0.67464   0.06127   0.00000  Uiso   1.00
C200   C     0.62453   0.58400   0.01968   0.00000  Uiso   1.00
C201   C     0.60135   0.52374   0.04280   0.00000  Uiso   1.00
C202   C     0.75743   0.75766   0.11902   0.00000  Uiso   1.00
C203   C     0.80719   0.73684   0.12599   0.00000  Uiso   1.00
C204   C     0.86755   0.74648   0.19771   0.00000  Uiso   1.00
C205   C     0.66033   0.86058   0.03637   0.00000  Uiso   1.00
C206   C     0.62846   0.92630   0.97386   0.00000  Uiso   1.00
C207   C     0.60709   0.02260   0.97602   0.00000  Uiso   1.00
H208   H     0.71435   0.82898   0.20956   0.00000  Uiso   1.00
H209   H     0.65312   0.66670   0.19524   0.00000  Uiso   1.00
H210   H     0.83575   0.81953   0.30152   0.00000  Uiso   1.00
H211   H     0.65706   0.00895   0.14942   0.00000  Uiso   1.00
H212   H     0.58078   0.47379   0.15184   0.00000  Uiso   1.00
H213   H     0.96586   0.79607   0.37594   0.00000  Uiso   1.00
H214   H     0.58905   0.19552   0.05520   0.00000  Uiso   1.00
H215   H     0.67979   0.72903   0.99733   0.00000  Uiso   1.00
H216   H     0.61667   0.56126   0.97136   0.00000  Uiso   1.00
H217   H     0.79930   0.71409   0.07765   0.00000  Uiso   1.00
H218   H     0.62060   0.90351   0.92554   0.00000  Uiso   1.00
H219   H     0.55119   0.38820   0.97013   0.00000  Uiso   1.00
H220   H     0.93628   0.71050   0.19423   0.00000  Uiso   1.00
H221   H     0.55947   0.10993   0.87349   0.00000  Uiso   1.00
O222   O     0.52510   0.32242   0.04774   0.00000  Uiso   1.00
O223   O     0.03031   0.74527   0.34175   0.00000  Uiso   1.00
O224   O     0.53595   0.26932   0.92095   0.00000  Uiso   1.00
N225   N     0.58247   0.47668   0.11262   0.00000  Uiso   1.00
N226   N     0.94250   0.77798   0.32215   0.00000  Uiso   1.00
N227   N     0.59023   0.15144   0.02229   0.00000  Uiso   1.00
N228   N     0.56654   0.43063   0.01485   0.00000  Uiso   1.00
N229   N     0.92658   0.73194   0.22437   0.00000  Uiso   1.00
N230   N     0.57431   0.10539   0.92452   0.00000  Uiso   1.00
C231   C     0.20643   0.30608   0.16094   0.00000  Uiso   1.00
C232   C     0.16837   0.20405   0.12372   0.00000  Uiso   1.00
C233   C     0.14524   0.14391   0.14690   0.00000  Uiso   1.00
C234   C     0.11154   0.05320   0.10537   0.00000  Uiso   1.00
C235   C     0.05401   0.89923   0.05710   0.00000  Uiso   1.00
C236   C     0.26760   0.28707   0.18147   0.00000  Uiso   1.00
C237   C     0.32790   0.29676   0.25320   0.00000  Uiso   1.00
C238   C     0.37773   0.27595   0.26028   0.00000  Uiso   1.00
C239   C     0.47426   0.25095   0.30166   0.00000  Uiso   1.00
C240   C     0.17050   0.38999   0.09883   0.00000  Uiso   1.00
C241   C     0.14918   0.48622   0.10108   0.00000  Uiso   1.00
C242   C     0.11728   0.55207   0.03858   0.00000  Uiso   1.00
C243   C     0.06305   0.68685   0.95165   0.00000  Uiso   1.00
C244   C     0.18771   0.25193   0.04595   0.00000  Uiso   1.00
C245   C     0.15820   0.17464   0.06127   0.00000  Uiso   1.00
C246   C     0.12453   0.08400   0.01968   0.00000  Uiso   1.00
C247   C     0.10135   0.02374   0.04280   0.00000  Uiso   1.00
C248   C     0.25743   0.25766   0.11902   0.00000  Uiso   1.00
C249   C     0.30719   0.23684   0.12599   0.00000  Uiso   1.00
C250   C     0.36755   0.24648   0.19771   0.00000  Uiso   1.00
C251   C     0.16033   0.36058   0.03637   0.00000  Uiso   1.00
C252   C     0.12846   0.42630   0.97386   0.00000  Uiso   1.00
C253   C     0.10709   0.52260   0.97602   0.00000  Uiso   1.00
H254   H     0.21435   0.32898   0.20956   0.00000  Uiso   1.00
H255   H     0.15312   0.16670   0.19524   0.00000  Uiso   1.00
H256   H     0.33575   0.31953   0.30152   0.00000  Uiso   1.00
H257   H     0.15706   0.50895   0.14942   0.00000  Uiso   1.00
H258   H     0.08078   0.97379   0.15184   0.00000  Uiso   1.00
H259   H     0.46586   0.29607   0.37594   0.00000  Uiso   1.00
H260   H     0.08905   0.69552   0.05520   0.00000  Uiso   1.00
H261   H     0.17979   0.22903   0.99733   0.00000  Uiso   1.00
H262   H     0.11667   0.06126   0.97136   0.00000  Uiso   1.00
H263   H     0.29930   0.21409   0.07765   0.00000  Uiso   1.00
H264   H     0.12060   0.40351   0.92554   0.00000  Uiso   1.00
H265   H     0.05119   0.88820   0.97013   0.00000  Uiso   1.00
H266   H     0.43628   0.21050   0.19423   0.00000  Uiso   1.00
H267   H     0.05947   0.60993   0.87349   0.00000  Uiso   1.00
O268   O     0.02510   0.82242   0.04774   0.00000  Uiso   1.00
O269   O     0.53031   0.24527   0.34175   0.00000  Uiso   1.00
O270   O     0.03595   0.76932   0.92095   0.00000  Uiso   1.00
N271   N     0.08247   0.97668   0.11262   0.00000  Uiso   1.00
N272   N     0.44250   0.27798   0.32215   0.00000  Uiso   1.00
N273   N     0.09023   0.65144   0.02229   0.00000  Uiso   1.00
N274   N     0.06654   0.93063   0.01485   0.00000  Uiso   1.00
N275   N     0.42658   0.23194   0.22437   0.00000  Uiso   1.00
N276   N     0.07431   0.60539   0.92452   0.00000  Uiso   1.00
C277   C     0.29357   0.80608   0.33906   0.00000  Uiso   1.00
C278   C     0.33163   0.70405   0.37628   0.00000  Uiso   1.00
C279   C     0.35476   0.64391   0.35310   0.00000  Uiso   1.00
C280   C     0.38846   0.55320   0.39463   0.00000  Uiso   1.00
C281   C     0.44599   0.39923   0.44290   0.00000  Uiso   1.00
C282   C     0.23240   0.78707   0.31853   0.00000  Uiso   1.00
C283   C     0.17210   0.79676   0.24680   0.00000  Uiso   1.00
C284   C     0.12227   0.77595   0.23972   0.00000  Uiso   1.00
C285   C     0.02574   0.75095   0.19834   0.00000  Uiso   1.00
C286   C     0.32950   0.88999   0.40117   0.00000  Uiso   1.00
C287   C     0.35082   0.98622   0.39892   0.00000  Uiso   1.00
C288   C     0.38272   0.05207   0.46142   0.00000  Uiso   1.00
C289   C     0.43695   0.18685   0.54835   0.00000  Uiso   1.00
C290   C     0.31229   0.75193   0.45405   0.00000  Uiso   1.00
C291   C     0.34180   0.67464   0.43873   0.00000  Uiso   1.00
C292   C     0.37547   0.58400   0.48032   0.00000  Uiso   1.00
C293   C     0.39865   0.52374   0.45720   0.00000  Uiso   1.00
C294   C     0.24257   0.75766   0.38098   0.00000  Uiso   1.00
C295   C     0.19281   0.73684   0.37401   0.00000  Uiso   1.00
C296   C     0.13245   0.74648   0.30229   0.00000  Uiso   1.00
C297   C     0.33967   0.86058   0.46363   0.00000  Uiso   1.00
C298   C     0.37154   0.92630   0.52614   0.00000  Uiso   1.00
C299   C     0.39291   0.02260   0.52398   0.00000  Uiso   1.00
H300   H     0.28565   0.82898   0.29044   0.00000  Uiso   1.00
H301   H     0.34688   0.66670   0.30476   0.00000  Uiso   1.00
H302   H     0.16425   0.81953   0.19848   0.00000  Uiso   1.00
H303   H     0.34294   0.00895   0.35058   0.00000  Uiso   1.00
H304   H     0.41922   0.47379   0.34816   0.00000  Uiso   1.00
H305   H     0.03414   0.79607   0.12406   0.00000  Uiso   1.00
H306   H     0.41095   0.19552   0.44480   0.00000  Uiso   1.00
H307   H     0.32021   0.72903   0.50267   0.00000  Uiso   1.00
H308   H     0.38333   0.56126   0.52864   0.00000  Uiso   1.00
H309   H     0.20070   0.71409   0.42235   0.00000  Uiso   1.00
H310   H     0.37940   0.90351   0.57446   0.00000  Uiso   1.00
H311   H     0.44881   0.38820   0.52987   0.00000  Uiso   1.00
H312   H     0.06372   0.71050   0.30577   0.00000  Uiso   1.00
H313   H     0.44053   0.10993   0.62651   0.00000  Uiso   1.00
O314   O     0.47490   0.32242   0.45226   0.00000  Uiso   1.00
O315   O     0.96969   0.74527   0.15825   0.00000  Uiso   1.00
O316   O     0.46405   0.26932   0.57905   0.00000  Uiso   1.00
N317   N     0.41753   0.47668   0.38738   0.00000  Uiso   1.00
N318   N     0.05750   0.77798   0.17785   0.00000  Uiso   1.00
N319   N     0.40977   0.15144   0.47771   0.00000  Uiso   1.00
N320   N     0.43346   0.43063   0.48515   0.00000  Uiso   1.00
N321   N     0.07342   0.73194   0.27563   0.00000  Uiso   1.00
N322   N     0.42569   0.10539   0.57548   0.00000  Uiso   1.00
C323   C     0.79357   0.30608   0.33906   0.00000  Uiso   1.00
C324   C     0.83163   0.20405   0.37628   0.00000  Uiso   1.00
C325   C     0.85476   0.14391   0.35310   0.00000  Uiso   1.00
C326   C     0.88846   0.05320   0.39463   0.00000  Uiso   1.00
C327   C     0.94599   0.89923   0.44290   0.00000  Uiso   1.00
C328   C     0.73240   0.28707   0.31853   0.00000  Uiso   1.00
C329   C     0.67210   0.29676   0.24680   0.00000  Uiso   1.00
C330   C     0.62227   0.27595   0.23972   0.00000  Uiso   1.00
C331   C     0.52574   0.25095   0.19834   0.00000  Uiso   1.00
C332   C     0.82950   0.38999   0.40117   0.00000  Uiso   1.00
C333   C     0.85082   0.48622   0.39892   0.00000  Uiso   1.00
C334   C     0.88272   0.55207   0.46142   0.00000  Uiso   1.00
C335   C     0.93695   0.68685   0.54835   0.00000  Uiso   1.00
C336   C     0.81229   0.25193   0.45405   0.00000  Uiso   1.00
C337   C     0.84180   0.17464   0.43873   0.00000  Uiso   1.00
C338   C     0.87547   0.08400   0.48032   0.00000  Uiso   1.00
C339   C     0.89865   0.02374   0.45720   0.00000  Uiso   1.00
C340   C     0.74257   0.25766   0.38098   0.00000  Uiso   1.00
C341   C     0.69281   0.23684   0.37401   0.00000  Uiso   1.00
C342   C     0.63245   0.24648   0.30229   0.00000  Uiso   1.00
C343   C     0.83967   0.36058   0.46363   0.00000  Uiso   1.00
C344   C     0.87154   0.42630   0.52614   0.00000  Uiso   1.00
C345   C     0.89291   0.52260   0.52398   0.00000  Uiso   1.00
H346   H     0.78565   0.32898   0.29044   0.00000  Uiso   1.00
H347   H     0.84688   0.16670   0.30476   0.00000  Uiso   1.00
H348   H     0.66425   0.31953   0.19848   0.00000  Uiso   1.00
H349   H     0.84294   0.50895   0.35058   0.00000  Uiso   1.00
H350   H     0.91922   0.97379   0.34816   0.00000  Uiso   1.00
H351   H     0.53414   0.29607   0.12406   0.00000  Uiso   1.00
H352   H     0.91095   0.69552   0.44480   0.00000  Uiso   1.00
H353   H     0.82021   0.22903   0.50267   0.00000  Uiso   1.00
H354   H     0.88333   0.06126   0.52864   0.00000  Uiso   1.00
H355   H     0.70070   0.21409   0.42235   0.00000  Uiso   1.00
H356   H     0.87940   0.40351   0.57446   0.00000  Uiso   1.00
H357   H     0.94881   0.88820   0.52987   0.00000  Uiso   1.00
H358   H     0.56372   0.21050   0.30577   0.00000  Uiso   1.00
H359   H     0.94053   0.60993   0.62651   0.00000  Uiso   1.00
O360   O     0.97490   0.82242   0.45226   0.00000  Uiso   1.00
O361   O     0.46969   0.24527   0.15825   0.00000  Uiso   1.00
O362   O     0.96405   0.76932   0.57905   0.00000  Uiso   1.00
N363   N     0.91753   0.97668   0.38738   0.00000  Uiso   1.00
N364   N     0.55750   0.27798   0.17785   0.00000  Uiso   1.00
N365   N     0.90977   0.65144   0.47771   0.00000  Uiso   1.00
N366   N     0.93346   0.93063   0.48515   0.00000  Uiso   1.00
N367   N     0.57342   0.23194   0.27563   0.00000  Uiso   1.00
N368   N     0.92569   0.60539   0.57548   0.00000  Uiso   1.00
