data_job_00845
_audit_creation_date              2018-12-19
_audit_creation_method            'Materials Studio'
_symmetry_space_group_name_H-M    'P1'
_symmetry_Int_Tables_number       1
_symmetry_cell_setting            triclinic
loop_
_symmetry_equiv_pos_as_xyz
  x,y,z
_cell_length_a                    22.4234
_cell_length_b                    27.3429
_cell_length_c                    10.4126
_cell_angle_alpha                 90.0000
_cell_angle_beta                  90.0000
_cell_angle_gamma                 90.0000
loop_
_atom_site_label
_atom_site_type_symbol
_atom_site_fract_x
_atom_site_fract_y
_atom_site_fract_z
_atom_site_U_iso_or_equiv
_atom_site_adp_type
_atom_site_occupancy
C1     C     0.81491   0.37902   0.26968   0.00000  Uiso   1.00
C2     C     0.78966   0.42826   0.22757   0.00000  Uiso   1.00
C3     C     0.80348   0.47328   0.28143   0.00000  Uiso   1.00
C4     C     0.77564   0.51406   0.22926   0.00000  Uiso   1.00
C5     C     0.74253   0.59114   0.17948   0.00000  Uiso   1.00
C6     C     0.76123   0.34708   0.30205   0.00000  Uiso   1.00
C7     C     0.75115   0.32383   0.41853   0.00000  Uiso   1.00
C8     C     0.69938   0.29626   0.42905   0.00000  Uiso   1.00
C9     C     0.62216   0.24728   0.49487   0.00000  Uiso   1.00
C10    C     0.84312   0.35649   0.15030   0.00000  Uiso   1.00
C11    C     0.90190   0.34115   0.13919   0.00000  Uiso   1.00
C12    C     0.91907   0.32149   0.02194   0.00000  Uiso   1.00
C13    C     0.96899   0.28712   0.85214   0.00000  Uiso   1.00
C14    C     0.74091   0.37138   0.08123   0.00000  Uiso   1.00
C15    C     0.74947   0.42411   0.12521   0.00000  Uiso   1.00
C16    C     0.72161   0.46482   0.07293   0.00000  Uiso   1.00
C17    C     0.73538   0.50989   0.12671   0.00000  Uiso   1.00
C18    C     0.72104   0.34292   0.19969   0.00000  Uiso   1.00
C19    C     0.66928   0.31537   0.21003   0.00000  Uiso   1.00
C20    C     0.65912   0.29210   0.32650   0.00000  Uiso   1.00
C21    C     0.80293   0.35234   0.04793   0.00000  Uiso   1.00
C22    C     0.82002   0.33269   0.93068   0.00000  Uiso   1.00
C23    C     0.87881   0.31732   0.91940   0.00000  Uiso   1.00
H24    H     0.84620   0.38226   0.34938   0.00000  Uiso   1.00
H25    H     0.83458   0.47648   0.36066   0.00000  Uiso   1.00
H26    H     0.78226   0.32705   0.49772   0.00000  Uiso   1.00
H27    H     0.93299   0.34437   0.21842   0.00000  Uiso   1.00
H28    H     0.80395   0.57911   0.32805   0.00000  Uiso   1.00
H29    H     0.69365   0.26402   0.61705   0.00000  Uiso   1.00
H30    H     0.01148   0.30053   0.02809   0.00000  Uiso   1.00
H31    H     0.70962   0.36814   0.00153   0.00000  Uiso   1.00
H32    H     0.69050   0.46160   0.99372   0.00000  Uiso   1.00
H33    H     0.63819   0.31217   0.13080   0.00000  Uiso   1.00
H34    H     0.78891   0.32948   0.85149   0.00000  Uiso   1.00
H35    H     0.68701   0.56703   0.03024   0.00000  Uiso   1.00
H36    H     0.57672   0.25194   0.31924   0.00000  Uiso   1.00
H37    H     0.89454   0.28845   0.73027   0.00000  Uiso   1.00
O38    O     0.73536   0.63480   0.18031   0.00000  Uiso   1.00
O39    O     0.59066   0.22141   0.55946   0.00000  Uiso   1.00
O40    O     0.00763   0.26931   0.78675   0.00000  Uiso   1.00
N41    N     0.77906   0.56345   0.25902   0.00000  Uiso   1.00
N42    N     0.67594   0.26886   0.52922   0.00000  Uiso   1.00
N43    N     0.97307   0.30298   0.97860   0.00000  Uiso   1.00
N44    N     0.71614   0.55695   0.09876   0.00000  Uiso   1.00
N45    N     0.61301   0.26236   0.36897   0.00000  Uiso   1.00
N46    N     0.91015   0.29648   0.81835   0.00000  Uiso   1.00
C47    C     0.31491   0.87902   0.26968   0.00000  Uiso   1.00
C48    C     0.28966   0.92826   0.22757   0.00000  Uiso   1.00
C49    C     0.30348   0.97328   0.28143   0.00000  Uiso   1.00
C50    C     0.27564   0.01406   0.22926   0.00000  Uiso   1.00
C51    C     0.24253   0.09114   0.17948   0.00000  Uiso   1.00
C52    C     0.26123   0.84708   0.30205   0.00000  Uiso   1.00
C53    C     0.25115   0.82383   0.41853   0.00000  Uiso   1.00
C54    C     0.19938   0.79626   0.42905   0.00000  Uiso   1.00
C55    C     0.12216   0.74728   0.49487   0.00000  Uiso   1.00
C56    C     0.34312   0.85649   0.15030   0.00000  Uiso   1.00
C57    C     0.40190   0.84115   0.13919   0.00000  Uiso   1.00
C58    C     0.41907   0.82149   0.02194   0.00000  Uiso   1.00
C59    C     0.46899   0.78712   0.85214   0.00000  Uiso   1.00
C60    C     0.24091   0.87138   0.08123   0.00000  Uiso   1.00
C61    C     0.24947   0.92411   0.12521   0.00000  Uiso   1.00
C62    C     0.22161   0.96482   0.07293   0.00000  Uiso   1.00
C63    C     0.23538   0.00989   0.12671   0.00000  Uiso   1.00
C64    C     0.22104   0.84292   0.19969   0.00000  Uiso   1.00
C65    C     0.16928   0.81537   0.21003   0.00000  Uiso   1.00
C66    C     0.15912   0.79210   0.32650   0.00000  Uiso   1.00
C67    C     0.30293   0.85234   0.04793   0.00000  Uiso   1.00
C68    C     0.32002   0.83269   0.93068   0.00000  Uiso   1.00
C69    C     0.37881   0.81732   0.91940   0.00000  Uiso   1.00
H70    H     0.34620   0.88226   0.34938   0.00000  Uiso   1.00
H71    H     0.33458   0.97648   0.36066   0.00000  Uiso   1.00
H72    H     0.28226   0.82705   0.49772   0.00000  Uiso   1.00
H73    H     0.43299   0.84437   0.21842   0.00000  Uiso   1.00
H74    H     0.30395   0.07911   0.32805   0.00000  Uiso   1.00
H75    H     0.19365   0.76402   0.61705   0.00000  Uiso   1.00
H76    H     0.51148   0.80053   0.02809   0.00000  Uiso   1.00
H77    H     0.20962   0.86814   0.00153   0.00000  Uiso   1.00
H78    H     0.19050   0.96160   0.99372   0.00000  Uiso   1.00
H79    H     0.13819   0.81217   0.13080   0.00000  Uiso   1.00
H80    H     0.28891   0.82948   0.85149   0.00000  Uiso   1.00
H81    H     0.18701   0.06703   0.03024   0.00000  Uiso   1.00
H82    H     0.07672   0.75194   0.31924   0.00000  Uiso   1.00
H83    H     0.39454   0.78845   0.73027   0.00000  Uiso   1.00
O84    O     0.23536   0.13480   0.18031   0.00000  Uiso   1.00
O85    O     0.09066   0.72141   0.55946   0.00000  Uiso   1.00
O86    O     0.50763   0.76931   0.78675   0.00000  Uiso   1.00
N87    N     0.27906   0.06345   0.25902   0.00000  Uiso   1.00
N88    N     0.17594   0.76886   0.52922   0.00000  Uiso   1.00
N89    N     0.47307   0.80298   0.97860   0.00000  Uiso   1.00
N90    N     0.21614   0.05695   0.09876   0.00000  Uiso   1.00
N91    N     0.11301   0.76236   0.36897   0.00000  Uiso   1.00
N92    N     0.41015   0.79648   0.81835   0.00000  Uiso   1.00
C93    C     0.18509   0.62098   0.26968   0.00000  Uiso   1.00
C94    C     0.21034   0.57174   0.22757   0.00000  Uiso   1.00
C95    C     0.19652   0.52672   0.28143   0.00000  Uiso   1.00
C96    C     0.22436   0.48594   0.22926   0.00000  Uiso   1.00
C97    C     0.25747   0.40886   0.17948   0.00000  Uiso   1.00
C98    C     0.23877   0.65292   0.30205   0.00000  Uiso   1.00
C99    C     0.24885   0.67617   0.41853   0.00000  Uiso   1.00
C100   C     0.30062   0.70374   0.42905   0.00000  Uiso   1.00
C101   C     0.37784   0.75272   0.49487   0.00000  Uiso   1.00
C102   C     0.15688   0.64351   0.15030   0.00000  Uiso   1.00
C103   C     0.09810   0.65885   0.13919   0.00000  Uiso   1.00
C104   C     0.08093   0.67851   0.02194   0.00000  Uiso   1.00
C105   C     0.03101   0.71288   0.85214   0.00000  Uiso   1.00
C106   C     0.25909   0.62862   0.08123   0.00000  Uiso   1.00
C107   C     0.25053   0.57589   0.12521   0.00000  Uiso   1.00
C108   C     0.27839   0.53518   0.07293   0.00000  Uiso   1.00
C109   C     0.26462   0.49011   0.12671   0.00000  Uiso   1.00
C110   C     0.27896   0.65708   0.19969   0.00000  Uiso   1.00
C111   C     0.33072   0.68463   0.21003   0.00000  Uiso   1.00
C112   C     0.34088   0.70790   0.32650   0.00000  Uiso   1.00
C113   C     0.19707   0.64766   0.04793   0.00000  Uiso   1.00
C114   C     0.17998   0.66731   0.93068   0.00000  Uiso   1.00
C115   C     0.12119   0.68268   0.91940   0.00000  Uiso   1.00
H116   H     0.15380   0.61774   0.34938   0.00000  Uiso   1.00
H117   H     0.16542   0.52352   0.36066   0.00000  Uiso   1.00
H118   H     0.21774   0.67295   0.49772   0.00000  Uiso   1.00
H119   H     0.06701   0.65563   0.21842   0.00000  Uiso   1.00
H120   H     0.19605   0.42089   0.32805   0.00000  Uiso   1.00
H121   H     0.30635   0.73598   0.61705   0.00000  Uiso   1.00
H122   H     0.98852   0.69947   0.02809   0.00000  Uiso   1.00
H123   H     0.29038   0.63186   0.00153   0.00000  Uiso   1.00
H124   H     0.30950   0.53840   0.99372   0.00000  Uiso   1.00
H125   H     0.36181   0.68783   0.13080   0.00000  Uiso   1.00
H126   H     0.21109   0.67052   0.85149   0.00000  Uiso   1.00
H127   H     0.31299   0.43297   0.03024   0.00000  Uiso   1.00
H128   H     0.42328   0.74806   0.31924   0.00000  Uiso   1.00
H129   H     0.10546   0.71155   0.73027   0.00000  Uiso   1.00
O130   O     0.26464   0.36520   0.18031   0.00000  Uiso   1.00
O131   O     0.40934   0.77859   0.55946   0.00000  Uiso   1.00
O132   O     0.99237   0.73069   0.78675   0.00000  Uiso   1.00
N133   N     0.22094   0.43655   0.25902   0.00000  Uiso   1.00
N134   N     0.32406   0.73114   0.52922   0.00000  Uiso   1.00
N135   N     0.02693   0.69702   0.97860   0.00000  Uiso   1.00
N136   N     0.28386   0.44305   0.09876   0.00000  Uiso   1.00
N137   N     0.38699   0.73764   0.36897   0.00000  Uiso   1.00
N138   N     0.08985   0.70352   0.81835   0.00000  Uiso   1.00
C139   C     0.68509   0.12098   0.26968   0.00000  Uiso   1.00
C140   C     0.71034   0.07174   0.22757   0.00000  Uiso   1.00
C141   C     0.69652   0.02672   0.28143   0.00000  Uiso   1.00
C142   C     0.72436   0.98594   0.22926   0.00000  Uiso   1.00
C143   C     0.75747   0.90886   0.17948   0.00000  Uiso   1.00
C144   C     0.73877   0.15292   0.30205   0.00000  Uiso   1.00
C145   C     0.74885   0.17617   0.41853   0.00000  Uiso   1.00
C146   C     0.80062   0.20374   0.42905   0.00000  Uiso   1.00
C147   C     0.87784   0.25272   0.49487   0.00000  Uiso   1.00
C148   C     0.65688   0.14351   0.15030   0.00000  Uiso   1.00
C149   C     0.59810   0.15885   0.13919   0.00000  Uiso   1.00
C150   C     0.58093   0.17851   0.02194   0.00000  Uiso   1.00
C151   C     0.53101   0.21288   0.85214   0.00000  Uiso   1.00
C152   C     0.75909   0.12862   0.08123   0.00000  Uiso   1.00
C153   C     0.75053   0.07589   0.12521   0.00000  Uiso   1.00
C154   C     0.77839   0.03518   0.07293   0.00000  Uiso   1.00
C155   C     0.76462   0.99011   0.12671   0.00000  Uiso   1.00
C156   C     0.77896   0.15708   0.19969   0.00000  Uiso   1.00
C157   C     0.83072   0.18463   0.21003   0.00000  Uiso   1.00
C158   C     0.84088   0.20790   0.32650   0.00000  Uiso   1.00
C159   C     0.69707   0.14766   0.04793   0.00000  Uiso   1.00
C160   C     0.67998   0.16731   0.93068   0.00000  Uiso   1.00
C161   C     0.62119   0.18268   0.91940   0.00000  Uiso   1.00
H162   H     0.65380   0.11774   0.34938   0.00000  Uiso   1.00
H163   H     0.66542   0.02352   0.36066   0.00000  Uiso   1.00
H164   H     0.71774   0.17295   0.49772   0.00000  Uiso   1.00
H165   H     0.56701   0.15563   0.21842   0.00000  Uiso   1.00
H166   H     0.69605   0.92089   0.32805   0.00000  Uiso   1.00
H167   H     0.80635   0.23598   0.61705   0.00000  Uiso   1.00
H168   H     0.48852   0.19947   0.02809   0.00000  Uiso   1.00
H169   H     0.79038   0.13186   0.00153   0.00000  Uiso   1.00
H170   H     0.80950   0.03840   0.99372   0.00000  Uiso   1.00
H171   H     0.86181   0.18783   0.13080   0.00000  Uiso   1.00
H172   H     0.71109   0.17052   0.85149   0.00000  Uiso   1.00
H173   H     0.81299   0.93297   0.03024   0.00000  Uiso   1.00
H174   H     0.92328   0.24806   0.31924   0.00000  Uiso   1.00
H175   H     0.60546   0.21155   0.73027   0.00000  Uiso   1.00
O176   O     0.76464   0.86520   0.18031   0.00000  Uiso   1.00
O177   O     0.90934   0.27859   0.55946   0.00000  Uiso   1.00
O178   O     0.49237   0.23069   0.78675   0.00000  Uiso   1.00
N179   N     0.72094   0.93655   0.25902   0.00000  Uiso   1.00
N180   N     0.82406   0.23114   0.52922   0.00000  Uiso   1.00
N181   N     0.52693   0.19702   0.97860   0.00000  Uiso   1.00
N182   N     0.78386   0.94305   0.09876   0.00000  Uiso   1.00
N183   N     0.88699   0.23764   0.36897   0.00000  Uiso   1.00
N184   N     0.58985   0.20352   0.81835   0.00000  Uiso   1.00
C185   C     0.81491   0.62098   0.76968   0.00000  Uiso   1.00
C186   C     0.78966   0.57174   0.72757   0.00000  Uiso   1.00
C187   C     0.80348   0.52672   0.78143   0.00000  Uiso   1.00
C188   C     0.77564   0.48594   0.72926   0.00000  Uiso   1.00
C189   C     0.74253   0.40886   0.67948   0.00000  Uiso   1.00
C190   C     0.76123   0.65292   0.80205   0.00000  Uiso   1.00
C191   C     0.75115   0.67617   0.91853   0.00000  Uiso   1.00
C192   C     0.69938   0.70374   0.92905   0.00000  Uiso   1.00
C193   C     0.62216   0.75272   0.99487   0.00000  Uiso   1.00
C194   C     0.84312   0.64351   0.65030   0.00000  Uiso   1.00
C195   C     0.90190   0.65885   0.63919   0.00000  Uiso   1.00
C196   C     0.91907   0.67851   0.52194   0.00000  Uiso   1.00
C197   C     0.96899   0.71288   0.35214   0.00000  Uiso   1.00
C198   C     0.74091   0.62862   0.58123   0.00000  Uiso   1.00
C199   C     0.74947   0.57589   0.62521   0.00000  Uiso   1.00
C200   C     0.72161   0.53518   0.57293   0.00000  Uiso   1.00
C201   C     0.73538   0.49011   0.62671   0.00000  Uiso   1.00
C202   C     0.72104   0.65708   0.69969   0.00000  Uiso   1.00
C203   C     0.66928   0.68463   0.71003   0.00000  Uiso   1.00
C204   C     0.65912   0.70790   0.82650   0.00000  Uiso   1.00
C205   C     0.80293   0.64766   0.54793   0.00000  Uiso   1.00
C206   C     0.82002   0.66731   0.43068   0.00000  Uiso   1.00
C207   C     0.87881   0.68268   0.41940   0.00000  Uiso   1.00
H208   H     0.84620   0.61774   0.84938   0.00000  Uiso   1.00
H209   H     0.83458   0.52352   0.86066   0.00000  Uiso   1.00
H210   H     0.78226   0.67295   0.99772   0.00000  Uiso   1.00
H211   H     0.93299   0.65563   0.71842   0.00000  Uiso   1.00
H212   H     0.80395   0.42089   0.82805   0.00000  Uiso   1.00
H213   H     0.69365   0.73598   0.11705   0.00000  Uiso   1.00
H214   H     0.01148   0.69947   0.52809   0.00000  Uiso   1.00
H215   H     0.70962   0.63186   0.50153   0.00000  Uiso   1.00
H216   H     0.69050   0.53840   0.49372   0.00000  Uiso   1.00
H217   H     0.63819   0.68783   0.63080   0.00000  Uiso   1.00
H218   H     0.78891   0.67052   0.35149   0.00000  Uiso   1.00
H219   H     0.68701   0.43297   0.53024   0.00000  Uiso   1.00
H220   H     0.57672   0.74806   0.81924   0.00000  Uiso   1.00
H221   H     0.89454   0.71155   0.23027   0.00000  Uiso   1.00
O222   O     0.73536   0.36520   0.68031   0.00000  Uiso   1.00
O223   O     0.59066   0.77859   0.05946   0.00000  Uiso   1.00
O224   O     0.00763   0.73069   0.28675   0.00000  Uiso   1.00
N225   N     0.77906   0.43655   0.75902   0.00000  Uiso   1.00
N226   N     0.67594   0.73114   0.02922   0.00000  Uiso   1.00
N227   N     0.97307   0.69702   0.47860   0.00000  Uiso   1.00
N228   N     0.71614   0.44305   0.59876   0.00000  Uiso   1.00
N229   N     0.61301   0.73764   0.86897   0.00000  Uiso   1.00
N230   N     0.91015   0.70352   0.31835   0.00000  Uiso   1.00
C231   C     0.31491   0.12098   0.76968   0.00000  Uiso   1.00
C232   C     0.28966   0.07174   0.72757   0.00000  Uiso   1.00
C233   C     0.30348   0.02672   0.78143   0.00000  Uiso   1.00
C234   C     0.27564   0.98594   0.72926   0.00000  Uiso   1.00
C235   C     0.24253   0.90886   0.67948   0.00000  Uiso   1.00
C236   C     0.26123   0.15292   0.80205   0.00000  Uiso   1.00
C237   C     0.25115   0.17617   0.91853   0.00000  Uiso   1.00
C238   C     0.19938   0.20374   0.92905   0.00000  Uiso   1.00
C239   C     0.12216   0.25272   0.99487   0.00000  Uiso   1.00
C240   C     0.34312   0.14351   0.65030   0.00000  Uiso   1.00
C241   C     0.40190   0.15885   0.63919   0.00000  Uiso   1.00
C242   C     0.41907   0.17851   0.52194   0.00000  Uiso   1.00
C243   C     0.46899   0.21288   0.35214   0.00000  Uiso   1.00
C244   C     0.24091   0.12862   0.58123   0.00000  Uiso   1.00
C245   C     0.24947   0.07589   0.62521   0.00000  Uiso   1.00
C246   C     0.22161   0.03518   0.57293   0.00000  Uiso   1.00
C247   C     0.23538   0.99011   0.62671   0.00000  Uiso   1.00
C248   C     0.22104   0.15708   0.69969   0.00000  Uiso   1.00
C249   C     0.16928   0.18463   0.71003   0.00000  Uiso   1.00
C250   C     0.15912   0.20790   0.82650   0.00000  Uiso   1.00
C251   C     0.30293   0.14766   0.54793   0.00000  Uiso   1.00
C252   C     0.32002   0.16731   0.43068   0.00000  Uiso   1.00
C253   C     0.37881   0.18268   0.41940   0.00000  Uiso   1.00
H254   H     0.34620   0.11774   0.84938   0.00000  Uiso   1.00
H255   H     0.33458   0.02352   0.86066   0.00000  Uiso   1.00
H256   H     0.28226   0.17295   0.99772   0.00000  Uiso   1.00
H257   H     0.43299   0.15563   0.71842   0.00000  Uiso   1.00
H258   H     0.30395   0.92089   0.82805   0.00000  Uiso   1.00
H259   H     0.19365   0.23598   0.11705   0.00000  Uiso   1.00
H260   H     0.51148   0.19947   0.52809   0.00000  Uiso   1.00
H261   H     0.20962   0.13186   0.50153   0.00000  Uiso   1.00
H262   H     0.19050   0.03840   0.49372   0.00000  Uiso   1.00
H263   H     0.13819   0.18783   0.63080   0.00000  Uiso   1.00
H264   H     0.28891   0.17052   0.35149   0.00000  Uiso   1.00
H265   H     0.18701   0.93297   0.53024   0.00000  Uiso   1.00
H266   H     0.07672   0.24806   0.81924   0.00000  Uiso   1.00
H267   H     0.39454   0.21155   0.23027   0.00000  Uiso   1.00
O268   O     0.23536   0.86520   0.68031   0.00000  Uiso   1.00
O269   O     0.09066   0.27859   0.05946   0.00000  Uiso   1.00
O270   O     0.50763   0.23069   0.28675   0.00000  Uiso   1.00
N271   N     0.27906   0.93655   0.75902   0.00000  Uiso   1.00
N272   N     0.17594   0.23114   0.02922   0.00000  Uiso   1.00
N273   N     0.47307   0.19702   0.47860   0.00000  Uiso   1.00
N274   N     0.21614   0.94305   0.59876   0.00000  Uiso   1.00
N275   N     0.11301   0.23764   0.86897   0.00000  Uiso   1.00
N276   N     0.41015   0.20352   0.31835   0.00000  Uiso   1.00
C277   C     0.18509   0.37902   0.76968   0.00000  Uiso   1.00
C278   C     0.21034   0.42826   0.72757   0.00000  Uiso   1.00
C279   C     0.19652   0.47328   0.78143   0.00000  Uiso   1.00
C280   C     0.22436   0.51406   0.72926   0.00000  Uiso   1.00
C281   C     0.25747   0.59114   0.67948   0.00000  Uiso   1.00
C282   C     0.23877   0.34708   0.80205   0.00000  Uiso   1.00
C283   C     0.24885   0.32383   0.91853   0.00000  Uiso   1.00
C284   C     0.30062   0.29626   0.92905   0.00000  Uiso   1.00
C285   C     0.37784   0.24728   0.99487   0.00000  Uiso   1.00
C286   C     0.15688   0.35649   0.65030   0.00000  Uiso   1.00
C287   C     0.09810   0.34115   0.63919   0.00000  Uiso   1.00
C288   C     0.08093   0.32149   0.52194   0.00000  Uiso   1.00
C289   C     0.03101   0.28712   0.35214   0.00000  Uiso   1.00
C290   C     0.25909   0.37138   0.58123   0.00000  Uiso   1.00
C291   C     0.25053   0.42411   0.62521   0.00000  Uiso   1.00
C292   C     0.27839   0.46482   0.57293   0.00000  Uiso   1.00
C293   C     0.26462   0.50989   0.62671   0.00000  Uiso   1.00
C294   C     0.27896   0.34292   0.69969   0.00000  Uiso   1.00
C295   C     0.33072   0.31537   0.71003   0.00000  Uiso   1.00
C296   C     0.34088   0.29210   0.82650   0.00000  Uiso   1.00
C297   C     0.19707   0.35234   0.54793   0.00000  Uiso   1.00
C298   C     0.17998   0.33269   0.43068   0.00000  Uiso   1.00
C299   C     0.12119   0.31732   0.41940   0.00000  Uiso   1.00
H300   H     0.15380   0.38226   0.84938   0.00000  Uiso   1.00
H301   H     0.16542   0.47648   0.86066   0.00000  Uiso   1.00
H302   H     0.21774   0.32705   0.99772   0.00000  Uiso   1.00
H303   H     0.06701   0.34437   0.71842   0.00000  Uiso   1.00
H304   H     0.19605   0.57911   0.82805   0.00000  Uiso   1.00
H305   H     0.30635   0.26402   0.11705   0.00000  Uiso   1.00
H306   H     0.98852   0.30053   0.52809   0.00000  Uiso   1.00
H307   H     0.29038   0.36814   0.50153   0.00000  Uiso   1.00
H308   H     0.30950   0.46160   0.49372   0.00000  Uiso   1.00
H309   H     0.36181   0.31217   0.63080   0.00000  Uiso   1.00
H310   H     0.21109   0.32948   0.35149   0.00000  Uiso   1.00
H311   H     0.31299   0.56703   0.53024   0.00000  Uiso   1.00
H312   H     0.42328   0.25194   0.81924   0.00000  Uiso   1.00
H313   H     0.10546   0.28845   0.23027   0.00000  Uiso   1.00
O314   O     0.26464   0.63480   0.68031   0.00000  Uiso   1.00
O315   O     0.40934   0.22141   0.05946   0.00000  Uiso   1.00
O316   O     0.99237   0.26931   0.28675   0.00000  Uiso   1.00
N317   N     0.22094   0.56345   0.75902   0.00000  Uiso   1.00
N318   N     0.32406   0.26886   0.02922   0.00000  Uiso   1.00
N319   N     0.02693   0.30298   0.47860   0.00000  Uiso   1.00
N320   N     0.28386   0.55695   0.59876   0.00000  Uiso   1.00
N321   N     0.38699   0.26236   0.86897   0.00000  Uiso   1.00
N322   N     0.08985   0.29648   0.31835   0.00000  Uiso   1.00
C323   C     0.68509   0.87902   0.76968   0.00000  Uiso   1.00
C324   C     0.71034   0.92826   0.72757   0.00000  Uiso   1.00
C325   C     0.69652   0.97328   0.78143   0.00000  Uiso   1.00
C326   C     0.72436   0.01406   0.72926   0.00000  Uiso   1.00
C327   C     0.75747   0.09114   0.67948   0.00000  Uiso   1.00
C328   C     0.73877   0.84708   0.80205   0.00000  Uiso   1.00
C329   C     0.74885   0.82383   0.91853   0.00000  Uiso   1.00
C330   C     0.80062   0.79626   0.92905   0.00000  Uiso   1.00
C331   C     0.87784   0.74728   0.99487   0.00000  Uiso   1.00
C332   C     0.65688   0.85649   0.65030   0.00000  Uiso   1.00
C333   C     0.59810   0.84115   0.63919   0.00000  Uiso   1.00
C334   C     0.58093   0.82149   0.52194   0.00000  Uiso   1.00
C335   C     0.53101   0.78712   0.35214   0.00000  Uiso   1.00
C336   C     0.75909   0.87138   0.58123   0.00000  Uiso   1.00
C337   C     0.75053   0.92411   0.62521   0.00000  Uiso   1.00
C338   C     0.77839   0.96482   0.57293   0.00000  Uiso   1.00
C339   C     0.76462   0.00989   0.62671   0.00000  Uiso   1.00
C340   C     0.77896   0.84292   0.69969   0.00000  Uiso   1.00
C341   C     0.83072   0.81537   0.71003   0.00000  Uiso   1.00
C342   C     0.84088   0.79210   0.82650   0.00000  Uiso   1.00
C343   C     0.69707   0.85234   0.54793   0.00000  Uiso   1.00
C344   C     0.67998   0.83269   0.43068   0.00000  Uiso   1.00
C345   C     0.62119   0.81732   0.41940   0.00000  Uiso   1.00
H346   H     0.65380   0.88226   0.84938   0.00000  Uiso   1.00
H347   H     0.66542   0.97648   0.86066   0.00000  Uiso   1.00
H348   H     0.71774   0.82705   0.99772   0.00000  Uiso   1.00
H349   H     0.56701   0.84437   0.71842   0.00000  Uiso   1.00
H350   H     0.69605   0.07911   0.82805   0.00000  Uiso   1.00
H351   H     0.80635   0.76402   0.11705   0.00000  Uiso   1.00
H352   H     0.48852   0.80053   0.52809   0.00000  Uiso   1.00
H353   H     0.79038   0.86814   0.50153   0.00000  Uiso   1.00
H354   H     0.80950   0.96160   0.49372   0.00000  Uiso   1.00
H355   H     0.86181   0.81217   0.63080   0.00000  Uiso   1.00
H356   H     0.71109   0.82948   0.35149   0.00000  Uiso   1.00
H357   H     0.81299   0.06703   0.53024   0.00000  Uiso   1.00
H358   H     0.92328   0.75194   0.81924   0.00000  Uiso   1.00
H359   H     0.60546   0.78845   0.23027   0.00000  Uiso   1.00
O360   O     0.76464   0.13480   0.68031   0.00000  Uiso   1.00
O361   O     0.90934   0.72141   0.05946   0.00000  Uiso   1.00
O362   O     0.49237   0.76931   0.28675   0.00000  Uiso   1.00
N363   N     0.72094   0.06345   0.75902   0.00000  Uiso   1.00
N364   N     0.82406   0.76886   0.02922   0.00000  Uiso   1.00
N365   N     0.52693   0.80298   0.47860   0.00000  Uiso   1.00
N366   N     0.78386   0.05695   0.59876   0.00000  Uiso   1.00
N367   N     0.88699   0.76236   0.86897   0.00000  Uiso   1.00
N368   N     0.58985   0.79648   0.31835   0.00000  Uiso   1.00
