data_job_01274
_audit_creation_date              2018-12-19
_audit_creation_method            'Materials Studio'
_symmetry_space_group_name_H-M    'P1'
_symmetry_Int_Tables_number       1
_symmetry_cell_setting            triclinic
loop_
_symmetry_equiv_pos_as_xyz
  x,y,z
_cell_length_a                    23.2515
_cell_length_b                    11.4510
_cell_length_c                    21.7641
_cell_angle_alpha                 90.0000
_cell_angle_beta                  90.0000
_cell_angle_gamma                 90.0000
loop_
_atom_site_label
_atom_site_type_symbol
_atom_site_fract_x
_atom_site_fract_y
_atom_site_fract_z
_atom_site_U_iso_or_equiv
_atom_site_adp_type
_atom_site_occupancy
C1     C     0.12246   0.23378   0.81523   0.00000  Uiso   1.00
C2     C     0.17505   0.21404   0.85579   0.00000  Uiso   1.00
C3     C     0.22648   0.16368   0.83722   0.00000  Uiso   1.00
C4     C     0.26940   0.15338   0.88124   0.00000  Uiso   1.00
C5     C     0.35230   0.11679   0.93504   0.00000  Uiso   1.00
C6     C     0.07264   0.17209   0.84722   0.00000  Uiso   1.00
C7     C     0.03796   0.08646   0.82144   0.00000  Uiso   1.00
C8     C     0.99467   0.04085   0.85824   0.00000  Uiso   1.00
C9     C     0.91856   0.93919   0.89872   0.00000  Uiso   1.00
C10    C     0.10924   0.36403   0.81889   0.00000  Uiso   1.00
C11    C     0.10532   0.43979   0.76929   0.00000  Uiso   1.00
C12    C     0.09283   0.55577   0.78224   0.00000  Uiso   1.00
C13    C     0.07355   0.75213   0.77873   0.00000  Uiso   1.00
C14    C     0.10722   0.30504   0.92642   0.00000  Uiso   1.00
C15    C     0.16677   0.25275   0.91618   0.00000  Uiso   1.00
C16    C     0.20962   0.24252   0.96024   0.00000  Uiso   1.00
C17    C     0.26111   0.19215   0.94175   0.00000  Uiso   1.00
C18    C     0.06436   0.21079   0.90761   0.00000  Uiso   1.00
C19    C     0.02111   0.16530   0.94446   0.00000  Uiso   1.00
C20    C     0.98638   0.07963   0.91875   0.00000  Uiso   1.00
C21    C     0.10097   0.40274   0.87928   0.00000  Uiso   1.00
C22    C     0.08847   0.51862   0.89231   0.00000  Uiso   1.00
C23    C     0.08454   0.59455   0.84275   0.00000  Uiso   1.00
H24    H     0.12890   0.20364   0.76821   0.00000  Uiso   1.00
H25    H     0.23286   0.13373   0.79048   0.00000  Uiso   1.00
H26    H     0.04438   0.05654   0.77470   0.00000  Uiso   1.00
H27    H     0.11173   0.40980   0.72256   0.00000  Uiso   1.00
H28    H     0.34447   0.07325   0.84181   0.00000  Uiso   1.00
H29    H     0.94702   0.91051   0.80853   0.00000  Uiso   1.00
H30    H     0.08905   0.65544   0.69858   0.00000  Uiso   1.00
H31    H     0.10077   0.33517   0.97344   0.00000  Uiso   1.00
H32    H     0.20320   0.27248   0.00698   0.00000  Uiso   1.00
H33    H     0.01471   0.19528   0.99119   0.00000  Uiso   1.00
H34    H     0.08207   0.54855   0.93906   0.00000  Uiso   1.00
H35    H     0.32040   0.18586   0.01753   0.00000  Uiso   1.00
H36    H     0.92294   0.02312   0.98424   0.00000  Uiso   1.00
H37    H     0.06498   0.76805   0.87430   0.00000  Uiso   1.00
O38    O     0.40032   0.08590   0.94803   0.00000  Uiso   1.00
O39    O     0.87887   0.87242   0.90436   0.00000  Uiso   1.00
O40    O     0.06521   0.84974   0.76011   0.00000  Uiso   1.00
N41    N     0.32476   0.10838   0.87856   0.00000  Uiso   1.00
N42    N     0.95317   0.95621   0.84745   0.00000  Uiso   1.00
N43    N     0.08594   0.65265   0.74465   0.00000  Uiso   1.00
N44    N     0.31180   0.16897   0.97311   0.00000  Uiso   1.00
N45    N     0.94021   0.01681   0.94200   0.00000  Uiso   1.00
N46    N     0.07298   0.71325   0.83921   0.00000  Uiso   1.00
C47    C     0.37754   0.76622   0.81523   0.00000  Uiso   1.00
C48    C     0.32495   0.78596   0.85579   0.00000  Uiso   1.00
C49    C     0.27352   0.83632   0.83722   0.00000  Uiso   1.00
C50    C     0.23060   0.84662   0.88124   0.00000  Uiso   1.00
C51    C     0.14770   0.88321   0.93504   0.00000  Uiso   1.00
C52    C     0.42736   0.82791   0.84722   0.00000  Uiso   1.00
C53    C     0.46204   0.91354   0.82144   0.00000  Uiso   1.00
C54    C     0.50533   0.95915   0.85824   0.00000  Uiso   1.00
C55    C     0.58144   0.06081   0.89872   0.00000  Uiso   1.00
C56    C     0.39076   0.63597   0.81889   0.00000  Uiso   1.00
C57    C     0.39468   0.56021   0.76929   0.00000  Uiso   1.00
C58    C     0.40717   0.44423   0.78224   0.00000  Uiso   1.00
C59    C     0.42645   0.24787   0.77873   0.00000  Uiso   1.00
C60    C     0.39278   0.69496   0.92642   0.00000  Uiso   1.00
C61    C     0.33323   0.74725   0.91618   0.00000  Uiso   1.00
C62    C     0.29038   0.75748   0.96024   0.00000  Uiso   1.00
C63    C     0.23889   0.80785   0.94175   0.00000  Uiso   1.00
C64    C     0.43564   0.78921   0.90761   0.00000  Uiso   1.00
C65    C     0.47889   0.83470   0.94446   0.00000  Uiso   1.00
C66    C     0.51362   0.92037   0.91875   0.00000  Uiso   1.00
C67    C     0.39903   0.59726   0.87928   0.00000  Uiso   1.00
C68    C     0.41153   0.48138   0.89231   0.00000  Uiso   1.00
C69    C     0.41546   0.40545   0.84275   0.00000  Uiso   1.00
H70    H     0.37110   0.79636   0.76821   0.00000  Uiso   1.00
H71    H     0.26714   0.86627   0.79048   0.00000  Uiso   1.00
H72    H     0.45562   0.94346   0.77470   0.00000  Uiso   1.00
H73    H     0.38827   0.59020   0.72256   0.00000  Uiso   1.00
H74    H     0.15553   0.92675   0.84181   0.00000  Uiso   1.00
H75    H     0.55298   0.08949   0.80853   0.00000  Uiso   1.00
H76    H     0.41095   0.34456   0.69858   0.00000  Uiso   1.00
H77    H     0.39923   0.66483   0.97344   0.00000  Uiso   1.00
H78    H     0.29680   0.72752   0.00698   0.00000  Uiso   1.00
H79    H     0.48529   0.80472   0.99119   0.00000  Uiso   1.00
H80    H     0.41793   0.45145   0.93906   0.00000  Uiso   1.00
H81    H     0.17960   0.81414   0.01753   0.00000  Uiso   1.00
H82    H     0.57706   0.97688   0.98424   0.00000  Uiso   1.00
H83    H     0.43502   0.23195   0.87430   0.00000  Uiso   1.00
O84    O     0.09968   0.91410   0.94803   0.00000  Uiso   1.00
O85    O     0.62113   0.12758   0.90436   0.00000  Uiso   1.00
O86    O     0.43479   0.15026   0.76011   0.00000  Uiso   1.00
N87    N     0.17524   0.89162   0.87856   0.00000  Uiso   1.00
N88    N     0.54683   0.04379   0.84745   0.00000  Uiso   1.00
N89    N     0.41406   0.34735   0.74465   0.00000  Uiso   1.00
N90    N     0.18820   0.83103   0.97311   0.00000  Uiso   1.00
N91    N     0.55979   0.98319   0.94200   0.00000  Uiso   1.00
N92    N     0.42702   0.28675   0.83921   0.00000  Uiso   1.00
C93    C     0.87754   0.23378   0.68477   0.00000  Uiso   1.00
C94    C     0.82495   0.21404   0.64421   0.00000  Uiso   1.00
C95    C     0.77352   0.16368   0.66278   0.00000  Uiso   1.00
C96    C     0.73060   0.15338   0.61876   0.00000  Uiso   1.00
C97    C     0.64770   0.11679   0.56496   0.00000  Uiso   1.00
C98    C     0.92736   0.17209   0.65278   0.00000  Uiso   1.00
C99    C     0.96204   0.08646   0.67856   0.00000  Uiso   1.00
C100   C     0.00533   0.04085   0.64176   0.00000  Uiso   1.00
C101   C     0.08144   0.93919   0.60128   0.00000  Uiso   1.00
C102   C     0.89076   0.36403   0.68111   0.00000  Uiso   1.00
C103   C     0.89468   0.43979   0.73071   0.00000  Uiso   1.00
C104   C     0.90717   0.55577   0.71776   0.00000  Uiso   1.00
C105   C     0.92645   0.75213   0.72127   0.00000  Uiso   1.00
C106   C     0.89278   0.30504   0.57358   0.00000  Uiso   1.00
C107   C     0.83323   0.25275   0.58382   0.00000  Uiso   1.00
C108   C     0.79038   0.24252   0.53976   0.00000  Uiso   1.00
C109   C     0.73889   0.19215   0.55825   0.00000  Uiso   1.00
C110   C     0.93564   0.21079   0.59239   0.00000  Uiso   1.00
C111   C     0.97889   0.16530   0.55554   0.00000  Uiso   1.00
C112   C     0.01362   0.07963   0.58125   0.00000  Uiso   1.00
C113   C     0.89903   0.40274   0.62072   0.00000  Uiso   1.00
C114   C     0.91153   0.51862   0.60769   0.00000  Uiso   1.00
C115   C     0.91546   0.59455   0.65725   0.00000  Uiso   1.00
H116   H     0.87110   0.20364   0.73179   0.00000  Uiso   1.00
H117   H     0.76714   0.13373   0.70952   0.00000  Uiso   1.00
H118   H     0.95562   0.05654   0.72530   0.00000  Uiso   1.00
H119   H     0.88827   0.40980   0.77744   0.00000  Uiso   1.00
H120   H     0.65553   0.07325   0.65819   0.00000  Uiso   1.00
H121   H     0.05298   0.91051   0.69147   0.00000  Uiso   1.00
H122   H     0.91095   0.65544   0.80142   0.00000  Uiso   1.00
H123   H     0.89923   0.33517   0.52656   0.00000  Uiso   1.00
H124   H     0.79680   0.27248   0.49302   0.00000  Uiso   1.00
H125   H     0.98529   0.19528   0.50881   0.00000  Uiso   1.00
H126   H     0.91793   0.54855   0.56094   0.00000  Uiso   1.00
H127   H     0.67960   0.18586   0.48247   0.00000  Uiso   1.00
H128   H     0.07706   0.02312   0.51576   0.00000  Uiso   1.00
H129   H     0.93502   0.76805   0.62570   0.00000  Uiso   1.00
O130   O     0.59968   0.08590   0.55197   0.00000  Uiso   1.00
O131   O     0.12113   0.87242   0.59564   0.00000  Uiso   1.00
O132   O     0.93479   0.84974   0.73989   0.00000  Uiso   1.00
N133   N     0.67524   0.10838   0.62144   0.00000  Uiso   1.00
N134   N     0.04683   0.95621   0.65255   0.00000  Uiso   1.00
N135   N     0.91406   0.65265   0.75535   0.00000  Uiso   1.00
N136   N     0.68820   0.16897   0.52689   0.00000  Uiso   1.00
N137   N     0.05979   0.01681   0.55800   0.00000  Uiso   1.00
N138   N     0.92702   0.71325   0.66079   0.00000  Uiso   1.00
C139   C     0.62246   0.76622   0.68477   0.00000  Uiso   1.00
C140   C     0.67505   0.78596   0.64421   0.00000  Uiso   1.00
C141   C     0.72648   0.83632   0.66278   0.00000  Uiso   1.00
C142   C     0.76940   0.84662   0.61876   0.00000  Uiso   1.00
C143   C     0.85230   0.88321   0.56496   0.00000  Uiso   1.00
C144   C     0.57264   0.82791   0.65278   0.00000  Uiso   1.00
C145   C     0.53796   0.91354   0.67856   0.00000  Uiso   1.00
C146   C     0.49467   0.95915   0.64176   0.00000  Uiso   1.00
C147   C     0.41856   0.06081   0.60128   0.00000  Uiso   1.00
C148   C     0.60924   0.63597   0.68111   0.00000  Uiso   1.00
C149   C     0.60532   0.56021   0.73071   0.00000  Uiso   1.00
C150   C     0.59283   0.44423   0.71776   0.00000  Uiso   1.00
C151   C     0.57355   0.24787   0.72127   0.00000  Uiso   1.00
C152   C     0.60722   0.69496   0.57358   0.00000  Uiso   1.00
C153   C     0.66677   0.74725   0.58382   0.00000  Uiso   1.00
C154   C     0.70962   0.75748   0.53976   0.00000  Uiso   1.00
C155   C     0.76111   0.80785   0.55825   0.00000  Uiso   1.00
C156   C     0.56436   0.78921   0.59239   0.00000  Uiso   1.00
C157   C     0.52111   0.83470   0.55554   0.00000  Uiso   1.00
C158   C     0.48638   0.92037   0.58125   0.00000  Uiso   1.00
C159   C     0.60097   0.59726   0.62072   0.00000  Uiso   1.00
C160   C     0.58847   0.48138   0.60769   0.00000  Uiso   1.00
C161   C     0.58454   0.40545   0.65725   0.00000  Uiso   1.00
H162   H     0.62890   0.79636   0.73179   0.00000  Uiso   1.00
H163   H     0.73286   0.86627   0.70952   0.00000  Uiso   1.00
H164   H     0.54438   0.94346   0.72530   0.00000  Uiso   1.00
H165   H     0.61173   0.59020   0.77744   0.00000  Uiso   1.00
H166   H     0.84447   0.92675   0.65819   0.00000  Uiso   1.00
H167   H     0.44702   0.08949   0.69147   0.00000  Uiso   1.00
H168   H     0.58905   0.34456   0.80142   0.00000  Uiso   1.00
H169   H     0.60077   0.66483   0.52656   0.00000  Uiso   1.00
H170   H     0.70320   0.72752   0.49302   0.00000  Uiso   1.00
H171   H     0.51471   0.80472   0.50881   0.00000  Uiso   1.00
H172   H     0.58207   0.45145   0.56094   0.00000  Uiso   1.00
H173   H     0.82040   0.81414   0.48247   0.00000  Uiso   1.00
H174   H     0.42294   0.97688   0.51576   0.00000  Uiso   1.00
H175   H     0.56498   0.23195   0.62570   0.00000  Uiso   1.00
O176   O     0.90032   0.91410   0.55197   0.00000  Uiso   1.00
O177   O     0.37887   0.12758   0.59564   0.00000  Uiso   1.00
O178   O     0.56521   0.15026   0.73989   0.00000  Uiso   1.00
N179   N     0.82476   0.89162   0.62144   0.00000  Uiso   1.00
N180   N     0.45317   0.04379   0.65255   0.00000  Uiso   1.00
N181   N     0.58594   0.34735   0.75535   0.00000  Uiso   1.00
N182   N     0.81180   0.83103   0.52689   0.00000  Uiso   1.00
N183   N     0.44021   0.98319   0.55800   0.00000  Uiso   1.00
N184   N     0.57298   0.28675   0.66079   0.00000  Uiso   1.00
C185   C     0.87754   0.76622   0.18477   0.00000  Uiso   1.00
C186   C     0.82495   0.78596   0.14421   0.00000  Uiso   1.00
C187   C     0.77352   0.83632   0.16278   0.00000  Uiso   1.00
C188   C     0.73060   0.84662   0.11876   0.00000  Uiso   1.00
C189   C     0.64770   0.88321   0.06496   0.00000  Uiso   1.00
C190   C     0.92736   0.82791   0.15278   0.00000  Uiso   1.00
C191   C     0.96204   0.91354   0.17856   0.00000  Uiso   1.00
C192   C     0.00533   0.95915   0.14176   0.00000  Uiso   1.00
C193   C     0.08144   0.06081   0.10128   0.00000  Uiso   1.00
C194   C     0.89076   0.63597   0.18111   0.00000  Uiso   1.00
C195   C     0.89468   0.56021   0.23071   0.00000  Uiso   1.00
C196   C     0.90717   0.44423   0.21776   0.00000  Uiso   1.00
C197   C     0.92645   0.24787   0.22127   0.00000  Uiso   1.00
C198   C     0.89278   0.69496   0.07358   0.00000  Uiso   1.00
C199   C     0.83323   0.74725   0.08382   0.00000  Uiso   1.00
C200   C     0.79038   0.75748   0.03976   0.00000  Uiso   1.00
C201   C     0.73889   0.80785   0.05825   0.00000  Uiso   1.00
C202   C     0.93564   0.78921   0.09239   0.00000  Uiso   1.00
C203   C     0.97889   0.83470   0.05554   0.00000  Uiso   1.00
C204   C     0.01362   0.92037   0.08125   0.00000  Uiso   1.00
C205   C     0.89903   0.59726   0.12072   0.00000  Uiso   1.00
C206   C     0.91153   0.48138   0.10769   0.00000  Uiso   1.00
C207   C     0.91546   0.40545   0.15725   0.00000  Uiso   1.00
H208   H     0.87110   0.79636   0.23179   0.00000  Uiso   1.00
H209   H     0.76714   0.86627   0.20952   0.00000  Uiso   1.00
H210   H     0.95562   0.94346   0.22530   0.00000  Uiso   1.00
H211   H     0.88827   0.59020   0.27744   0.00000  Uiso   1.00
H212   H     0.65553   0.92675   0.15819   0.00000  Uiso   1.00
H213   H     0.05298   0.08949   0.19147   0.00000  Uiso   1.00
H214   H     0.91095   0.34456   0.30142   0.00000  Uiso   1.00
H215   H     0.89923   0.66483   0.02656   0.00000  Uiso   1.00
H216   H     0.79680   0.72752   0.99302   0.00000  Uiso   1.00
H217   H     0.98529   0.80472   0.00881   0.00000  Uiso   1.00
H218   H     0.91793   0.45145   0.06094   0.00000  Uiso   1.00
H219   H     0.67960   0.81414   0.98247   0.00000  Uiso   1.00
H220   H     0.07706   0.97688   0.01576   0.00000  Uiso   1.00
H221   H     0.93502   0.23195   0.12570   0.00000  Uiso   1.00
O222   O     0.59968   0.91410   0.05197   0.00000  Uiso   1.00
O223   O     0.12113   0.12758   0.09564   0.00000  Uiso   1.00
O224   O     0.93479   0.15026   0.23989   0.00000  Uiso   1.00
N225   N     0.67524   0.89162   0.12144   0.00000  Uiso   1.00
N226   N     0.04683   0.04379   0.15255   0.00000  Uiso   1.00
N227   N     0.91406   0.34735   0.25535   0.00000  Uiso   1.00
N228   N     0.68820   0.83103   0.02689   0.00000  Uiso   1.00
N229   N     0.05979   0.98319   0.05800   0.00000  Uiso   1.00
N230   N     0.92702   0.28675   0.16079   0.00000  Uiso   1.00
C231   C     0.62246   0.23378   0.18477   0.00000  Uiso   1.00
C232   C     0.67505   0.21404   0.14421   0.00000  Uiso   1.00
C233   C     0.72648   0.16368   0.16278   0.00000  Uiso   1.00
C234   C     0.76940   0.15338   0.11876   0.00000  Uiso   1.00
C235   C     0.85230   0.11679   0.06496   0.00000  Uiso   1.00
C236   C     0.57264   0.17209   0.15278   0.00000  Uiso   1.00
C237   C     0.53796   0.08646   0.17856   0.00000  Uiso   1.00
C238   C     0.49467   0.04085   0.14176   0.00000  Uiso   1.00
C239   C     0.41856   0.93919   0.10128   0.00000  Uiso   1.00
C240   C     0.60924   0.36403   0.18111   0.00000  Uiso   1.00
C241   C     0.60532   0.43979   0.23071   0.00000  Uiso   1.00
C242   C     0.59283   0.55577   0.21776   0.00000  Uiso   1.00
C243   C     0.57355   0.75213   0.22127   0.00000  Uiso   1.00
C244   C     0.60722   0.30504   0.07358   0.00000  Uiso   1.00
C245   C     0.66677   0.25275   0.08382   0.00000  Uiso   1.00
C246   C     0.70962   0.24252   0.03976   0.00000  Uiso   1.00
C247   C     0.76111   0.19215   0.05825   0.00000  Uiso   1.00
C248   C     0.56436   0.21079   0.09239   0.00000  Uiso   1.00
C249   C     0.52111   0.16530   0.05554   0.00000  Uiso   1.00
C250   C     0.48638   0.07963   0.08125   0.00000  Uiso   1.00
C251   C     0.60097   0.40274   0.12072   0.00000  Uiso   1.00
C252   C     0.58847   0.51862   0.10769   0.00000  Uiso   1.00
C253   C     0.58454   0.59455   0.15725   0.00000  Uiso   1.00
H254   H     0.62890   0.20364   0.23179   0.00000  Uiso   1.00
H255   H     0.73286   0.13373   0.20952   0.00000  Uiso   1.00
H256   H     0.54438   0.05654   0.22530   0.00000  Uiso   1.00
H257   H     0.61173   0.40980   0.27744   0.00000  Uiso   1.00
H258   H     0.84447   0.07325   0.15819   0.00000  Uiso   1.00
H259   H     0.44702   0.91051   0.19147   0.00000  Uiso   1.00
H260   H     0.58905   0.65544   0.30142   0.00000  Uiso   1.00
H261   H     0.60077   0.33517   0.02656   0.00000  Uiso   1.00
H262   H     0.70320   0.27248   0.99302   0.00000  Uiso   1.00
H263   H     0.51471   0.19528   0.00881   0.00000  Uiso   1.00
H264   H     0.58207   0.54855   0.06094   0.00000  Uiso   1.00
H265   H     0.82040   0.18586   0.98247   0.00000  Uiso   1.00
H266   H     0.42294   0.02312   0.01576   0.00000  Uiso   1.00
H267   H     0.56498   0.76805   0.12570   0.00000  Uiso   1.00
O268   O     0.90032   0.08590   0.05197   0.00000  Uiso   1.00
O269   O     0.37887   0.87242   0.09564   0.00000  Uiso   1.00
O270   O     0.56521   0.84974   0.23989   0.00000  Uiso   1.00
N271   N     0.82476   0.10838   0.12144   0.00000  Uiso   1.00
N272   N     0.45317   0.95621   0.15255   0.00000  Uiso   1.00
N273   N     0.58594   0.65265   0.25535   0.00000  Uiso   1.00
N274   N     0.81180   0.16897   0.02689   0.00000  Uiso   1.00
N275   N     0.44021   0.01681   0.05800   0.00000  Uiso   1.00
N276   N     0.57298   0.71325   0.16079   0.00000  Uiso   1.00
C277   C     0.12246   0.76622   0.31523   0.00000  Uiso   1.00
C278   C     0.17505   0.78596   0.35579   0.00000  Uiso   1.00
C279   C     0.22648   0.83632   0.33722   0.00000  Uiso   1.00
C280   C     0.26940   0.84662   0.38124   0.00000  Uiso   1.00
C281   C     0.35230   0.88321   0.43504   0.00000  Uiso   1.00
C282   C     0.07264   0.82791   0.34722   0.00000  Uiso   1.00
C283   C     0.03796   0.91354   0.32144   0.00000  Uiso   1.00
C284   C     0.99467   0.95915   0.35824   0.00000  Uiso   1.00
C285   C     0.91856   0.06081   0.39872   0.00000  Uiso   1.00
C286   C     0.10924   0.63597   0.31889   0.00000  Uiso   1.00
C287   C     0.10532   0.56021   0.26929   0.00000  Uiso   1.00
C288   C     0.09283   0.44423   0.28224   0.00000  Uiso   1.00
C289   C     0.07355   0.24787   0.27873   0.00000  Uiso   1.00
C290   C     0.10722   0.69496   0.42642   0.00000  Uiso   1.00
C291   C     0.16677   0.74725   0.41618   0.00000  Uiso   1.00
C292   C     0.20962   0.75748   0.46024   0.00000  Uiso   1.00
C293   C     0.26111   0.80785   0.44175   0.00000  Uiso   1.00
C294   C     0.06436   0.78921   0.40761   0.00000  Uiso   1.00
C295   C     0.02111   0.83470   0.44446   0.00000  Uiso   1.00
C296   C     0.98638   0.92037   0.41875   0.00000  Uiso   1.00
C297   C     0.10097   0.59726   0.37928   0.00000  Uiso   1.00
C298   C     0.08847   0.48138   0.39231   0.00000  Uiso   1.00
C299   C     0.08454   0.40545   0.34275   0.00000  Uiso   1.00
H300   H     0.12890   0.79636   0.26821   0.00000  Uiso   1.00
H301   H     0.23286   0.86627   0.29048   0.00000  Uiso   1.00
H302   H     0.04438   0.94346   0.27470   0.00000  Uiso   1.00
H303   H     0.11173   0.59020   0.22256   0.00000  Uiso   1.00
H304   H     0.34447   0.92675   0.34181   0.00000  Uiso   1.00
H305   H     0.94702   0.08949   0.30853   0.00000  Uiso   1.00
H306   H     0.08905   0.34456   0.19858   0.00000  Uiso   1.00
H307   H     0.10077   0.66483   0.47344   0.00000  Uiso   1.00
H308   H     0.20320   0.72752   0.50698   0.00000  Uiso   1.00
H309   H     0.01471   0.80472   0.49119   0.00000  Uiso   1.00
H310   H     0.08207   0.45145   0.43906   0.00000  Uiso   1.00
H311   H     0.32040   0.81414   0.51753   0.00000  Uiso   1.00
H312   H     0.92294   0.97688   0.48424   0.00000  Uiso   1.00
H313   H     0.06498   0.23195   0.37430   0.00000  Uiso   1.00
O314   O     0.40032   0.91410   0.44803   0.00000  Uiso   1.00
O315   O     0.87887   0.12758   0.40436   0.00000  Uiso   1.00
O316   O     0.06521   0.15026   0.26011   0.00000  Uiso   1.00
N317   N     0.32476   0.89162   0.37856   0.00000  Uiso   1.00
N318   N     0.95317   0.04379   0.34745   0.00000  Uiso   1.00
N319   N     0.08594   0.34735   0.24465   0.00000  Uiso   1.00
N320   N     0.31180   0.83103   0.47311   0.00000  Uiso   1.00
N321   N     0.94021   0.98319   0.44200   0.00000  Uiso   1.00
N322   N     0.07298   0.28675   0.33921   0.00000  Uiso   1.00
C323   C     0.37754   0.23378   0.31523   0.00000  Uiso   1.00
C324   C     0.32495   0.21404   0.35579   0.00000  Uiso   1.00
C325   C     0.27352   0.16368   0.33722   0.00000  Uiso   1.00
C326   C     0.23060   0.15338   0.38124   0.00000  Uiso   1.00
C327   C     0.14770   0.11679   0.43504   0.00000  Uiso   1.00
C328   C     0.42736   0.17209   0.34722   0.00000  Uiso   1.00
C329   C     0.46204   0.08646   0.32144   0.00000  Uiso   1.00
C330   C     0.50533   0.04085   0.35824   0.00000  Uiso   1.00
C331   C     0.58144   0.93919   0.39872   0.00000  Uiso   1.00
C332   C     0.39076   0.36403   0.31889   0.00000  Uiso   1.00
C333   C     0.39468   0.43979   0.26929   0.00000  Uiso   1.00
C334   C     0.40717   0.55577   0.28224   0.00000  Uiso   1.00
C335   C     0.42645   0.75213   0.27873   0.00000  Uiso   1.00
C336   C     0.39278   0.30504   0.42642   0.00000  Uiso   1.00
C337   C     0.33323   0.25275   0.41618   0.00000  Uiso   1.00
C338   C     0.29038   0.24252   0.46024   0.00000  Uiso   1.00
C339   C     0.23889   0.19215   0.44175   0.00000  Uiso   1.00
C340   C     0.43564   0.21079   0.40761   0.00000  Uiso   1.00
C341   C     0.47889   0.16530   0.44446   0.00000  Uiso   1.00
C342   C     0.51362   0.07963   0.41875   0.00000  Uiso   1.00
C343   C     0.39903   0.40274   0.37928   0.00000  Uiso   1.00
C344   C     0.41153   0.51862   0.39231   0.00000  Uiso   1.00
C345   C     0.41546   0.59455   0.34275   0.00000  Uiso   1.00
H346   H     0.37110   0.20364   0.26821   0.00000  Uiso   1.00
H347   H     0.26714   0.13373   0.29048   0.00000  Uiso   1.00
H348   H     0.45562   0.05654   0.27470   0.00000  Uiso   1.00
H349   H     0.38827   0.40980   0.22256   0.00000  Uiso   1.00
H350   H     0.15553   0.07325   0.34181   0.00000  Uiso   1.00
H351   H     0.55298   0.91051   0.30853   0.00000  Uiso   1.00
H352   H     0.41095   0.65544   0.19858   0.00000  Uiso   1.00
H353   H     0.39923   0.33517   0.47344   0.00000  Uiso   1.00
H354   H     0.29680   0.27248   0.50698   0.00000  Uiso   1.00
H355   H     0.48529   0.19528   0.49119   0.00000  Uiso   1.00
H356   H     0.41793   0.54855   0.43906   0.00000  Uiso   1.00
H357   H     0.17960   0.18586   0.51753   0.00000  Uiso   1.00
H358   H     0.57706   0.02312   0.48424   0.00000  Uiso   1.00
H359   H     0.43502   0.76805   0.37430   0.00000  Uiso   1.00
O360   O     0.09968   0.08590   0.44803   0.00000  Uiso   1.00
O361   O     0.62113   0.87242   0.40436   0.00000  Uiso   1.00
O362   O     0.43479   0.84974   0.26011   0.00000  Uiso   1.00
N363   N     0.17524   0.10838   0.37856   0.00000  Uiso   1.00
N364   N     0.54683   0.95621   0.34745   0.00000  Uiso   1.00
N365   N     0.41406   0.65265   0.24465   0.00000  Uiso   1.00
N366   N     0.18820   0.16897   0.47311   0.00000  Uiso   1.00
N367   N     0.55979   0.01681   0.44200   0.00000  Uiso   1.00
N368   N     0.42702   0.71325   0.33921   0.00000  Uiso   1.00
