data_job_05064
_audit_creation_date              2018-12-19
_audit_creation_method            'Materials Studio'
_symmetry_space_group_name_H-M    'P1'
_symmetry_Int_Tables_number       1
_symmetry_cell_setting            triclinic
loop_
_symmetry_equiv_pos_as_xyz
  x,y,z
_cell_length_a                    22.8927
_cell_length_b                    10.0946
_cell_length_c                    21.3505
_cell_angle_alpha                 90.0000
_cell_angle_beta                  90.0000
_cell_angle_gamma                 90.0000
loop_
_atom_site_label
_atom_site_type_symbol
_atom_site_fract_x
_atom_site_fract_y
_atom_site_fract_z
_atom_site_U_iso_or_equiv
_atom_site_adp_type
_atom_site_occupancy
C1     C     0.55869   0.25712   0.56050   0.00000  Uiso   1.00
C2     C     0.61294   0.20741   0.59462   0.00000  Uiso   1.00
C3     C     0.64976   0.10716   0.57413   0.00000  Uiso   1.00
C4     C     0.69708   0.07624   0.61209   0.00000  Uiso   1.00
C5     C     0.77978   0.98881   0.65651   0.00000  Uiso   1.00
C6     C     0.50829   0.24293   0.60672   0.00000  Uiso   1.00
C7     C     0.45711   0.17256   0.59639   0.00000  Uiso   1.00
C8     C     0.41632   0.17157   0.64452   0.00000  Uiso   1.00
C9     C     0.33652   0.13936   0.70770   0.00000  Uiso   1.00
C10    C     0.56756   0.40557   0.55133   0.00000  Uiso   1.00
C11    C     0.56619   0.47196   0.49442   0.00000  Uiso   1.00
C12    C     0.57530   0.60791   0.49592   0.00000  Uiso   1.00
C13    C     0.58752   0.82823   0.47310   0.00000  Uiso   1.00
C14    C     0.57726   0.38050   0.66434   0.00000  Uiso   1.00
C15    C     0.62303   0.27442   0.65103   0.00000  Uiso   1.00
C16    C     0.67031   0.24366   0.68902   0.00000  Uiso   1.00
C17    C     0.70719   0.14338   0.66859   0.00000  Uiso   1.00
C18    C     0.51838   0.30994   0.66312   0.00000  Uiso   1.00
C19    C     0.47766   0.30906   0.71128   0.00000  Uiso   1.00
C20    C     0.42643   0.23870   0.70103   0.00000  Uiso   1.00
C21    C     0.57765   0.47259   0.60773   0.00000  Uiso   1.00
C22    C     0.58675   0.60847   0.60932   0.00000  Uiso   1.00
C23    C     0.58540   0.67505   0.55243   0.00000  Uiso   1.00
H24    H     0.55083   0.20495   0.51659   0.00000  Uiso   1.00
H25    H     0.64193   0.05531   0.53048   0.00000  Uiso   1.00
H26    H     0.44931   0.12072   0.55273   0.00000  Uiso   1.00
H27    H     0.55838   0.42007   0.45079   0.00000  Uiso   1.00
H28    H     0.74738   0.91893   0.57077   0.00000  Uiso   1.00
H29    H     0.34121   0.05688   0.61768   0.00000  Uiso   1.00
H30    H     0.57121   0.68813   0.40270   0.00000  Uiso   1.00
H31    H     0.58512   0.43268   0.70826   0.00000  Uiso   1.00
H32    H     0.67811   0.29554   0.73267   0.00000  Uiso   1.00
H33    H     0.48548   0.36094   0.75492   0.00000  Uiso   1.00
H34    H     0.59456   0.66029   0.65297   0.00000  Uiso   1.00
H35    H     0.77674   0.11390   0.73487   0.00000  Uiso   1.00
H36    H     0.37057   0.25185   0.78178   0.00000  Uiso   1.00
H37    H     0.60057   0.88310   0.56681   0.00000  Uiso   1.00
O38    O     0.82260   0.92206   0.66543   0.00000  Uiso   1.00
O39    O     0.28972   0.10307   0.72696   0.00000  Uiso   1.00
O40    O     0.59148   0.93124   0.44493   0.00000  Uiso   1.00
N41    N     0.74153   0.98365   0.60603   0.00000  Uiso   1.00
N42    N     0.36179   0.11261   0.64989   0.00000  Uiso   1.00
N43    N     0.57681   0.70278   0.44891   0.00000  Uiso   1.00
N44    N     0.75733   0.08857   0.69434   0.00000  Uiso   1.00
N45    N     0.37759   0.21753   0.73820   0.00000  Uiso   1.00
N46    N     0.59261   0.80770   0.53722   0.00000  Uiso   1.00
C47    C     0.63332   0.73804   0.94083   0.00000  Uiso   1.00
C48    C     0.68732   0.78800   0.90632   0.00000  Uiso   1.00
C49    C     0.72455   0.88737   0.92689   0.00000  Uiso   1.00
C50    C     0.77154   0.91869   0.88853   0.00000  Uiso   1.00
C51    C     0.85394   0.00631   0.84358   0.00000  Uiso   1.00
C52    C     0.58247   0.75385   0.89530   0.00000  Uiso   1.00
C53    C     0.53154   0.82451   0.90662   0.00000  Uiso   1.00
C54    C     0.49026   0.82707   0.85899   0.00000  Uiso   1.00
C55    C     0.40987   0.86160   0.79696   0.00000  Uiso   1.00
C56    C     0.64197   0.58929   0.94911   0.00000  Uiso   1.00
C57    C     0.64107   0.52157   0.00567   0.00000  Uiso   1.00
C58    C     0.64987   0.38557   0.00334   0.00000  Uiso   1.00
C59    C     0.66187   0.16459   0.02486   0.00000  Uiso   1.00
C60    C     0.65055   0.61694   0.83612   0.00000  Uiso   1.00
C61    C     0.69667   0.72222   0.84944   0.00000  Uiso   1.00
C62    C     0.74362   0.75339   0.81105   0.00000  Uiso   1.00
C63    C     0.78092   0.85279   0.83156   0.00000  Uiso   1.00
C64    C     0.59182   0.68808   0.83843   0.00000  Uiso   1.00
C65    C     0.55061   0.69053   0.79078   0.00000  Uiso   1.00
C66    C     0.49964   0.76117   0.80202   0.00000  Uiso   1.00
C67    C     0.65133   0.52351   0.89224   0.00000  Uiso   1.00
C68    C     0.66014   0.38759   0.88982   0.00000  Uiso   1.00
C69    C     0.65925   0.31967   0.94637   0.00000  Uiso   1.00
H70    H     0.62603   0.78925   0.98511   0.00000  Uiso   1.00
H71    H     0.71729   0.93826   0.97090   0.00000  Uiso   1.00
H72    H     0.52431   0.87539   0.95064   0.00000  Uiso   1.00
H73    H     0.63382   0.57250   0.04967   0.00000  Uiso   1.00
H74    H     0.82259   0.07449   0.93007   0.00000  Uiso   1.00
H75    H     0.41567   0.94189   0.88735   0.00000  Uiso   1.00
H76    H     0.64660   0.30319   0.09618   0.00000  Uiso   1.00
H77    H     0.65783   0.56573   0.79184   0.00000  Uiso   1.00
H78    H     0.75085   0.70247   0.76704   0.00000  Uiso   1.00
H79    H     0.55787   0.63961   0.74677   0.00000  Uiso   1.00
H80    H     0.66738   0.33672   0.84581   0.00000  Uiso   1.00
H81    H     0.84982   0.88312   0.76460   0.00000  Uiso   1.00
H82    H     0.44290   0.75052   0.72188   0.00000  Uiso   1.00
H83    H     0.67383   0.11182   0.93071   0.00000  Uiso   1.00
O84    O     0.89681   0.07283   0.83449   0.00000  Uiso   1.00
O85    O     0.36294   0.89884   0.77845   0.00000  Uiso   1.00
O86    O     0.66592   0.06088   0.05243   0.00000  Uiso   1.00
N87    N     0.81624   0.01067   0.89453   0.00000  Uiso   1.00
N88    N     0.43580   0.88671   0.85459   0.00000  Uiso   1.00
N89    N     0.65168   0.28957   0.04983   0.00000  Uiso   1.00
N90    N     0.83089   0.90769   0.80550   0.00000  Uiso   1.00
N91    N     0.45046   0.78374   0.76556   0.00000  Uiso   1.00
N92    N     0.66634   0.18660   0.96079   0.00000  Uiso   1.00
C93    C     0.44131   0.74288   0.06050   0.00000  Uiso   1.00
C94    C     0.38706   0.79259   0.09462   0.00000  Uiso   1.00
C95    C     0.35024   0.89284   0.07413   0.00000  Uiso   1.00
C96    C     0.30292   0.92376   0.11209   0.00000  Uiso   1.00
C97    C     0.22022   0.01119   0.15651   0.00000  Uiso   1.00
C98    C     0.49171   0.75707   0.10672   0.00000  Uiso   1.00
C99    C     0.54289   0.82744   0.09639   0.00000  Uiso   1.00
C100   C     0.58368   0.82843   0.14452   0.00000  Uiso   1.00
C101   C     0.66348   0.86064   0.20770   0.00000  Uiso   1.00
C102   C     0.43244   0.59443   0.05133   0.00000  Uiso   1.00
C103   C     0.43381   0.52804   0.99442   0.00000  Uiso   1.00
C104   C     0.42470   0.39209   0.99592   0.00000  Uiso   1.00
C105   C     0.41248   0.17177   0.97310   0.00000  Uiso   1.00
C106   C     0.42274   0.61950   0.16434   0.00000  Uiso   1.00
C107   C     0.37697   0.72558   0.15103   0.00000  Uiso   1.00
C108   C     0.32969   0.75634   0.18902   0.00000  Uiso   1.00
C109   C     0.29281   0.85662   0.16859   0.00000  Uiso   1.00
C110   C     0.48162   0.69006   0.16312   0.00000  Uiso   1.00
C111   C     0.52234   0.69094   0.21128   0.00000  Uiso   1.00
C112   C     0.57357   0.76130   0.20103   0.00000  Uiso   1.00
C113   C     0.42235   0.52741   0.10773   0.00000  Uiso   1.00
C114   C     0.41325   0.39153   0.10932   0.00000  Uiso   1.00
C115   C     0.41460   0.32495   0.05243   0.00000  Uiso   1.00
H116   H     0.44917   0.79505   0.01659   0.00000  Uiso   1.00
H117   H     0.35807   0.94469   0.03048   0.00000  Uiso   1.00
H118   H     0.55069   0.87928   0.05273   0.00000  Uiso   1.00
H119   H     0.44162   0.57993   0.95079   0.00000  Uiso   1.00
H120   H     0.25262   0.08107   0.07077   0.00000  Uiso   1.00
H121   H     0.65879   0.94312   0.11768   0.00000  Uiso   1.00
H122   H     0.42879   0.31187   0.90270   0.00000  Uiso   1.00
H123   H     0.41488   0.56732   0.20826   0.00000  Uiso   1.00
H124   H     0.32189   0.70446   0.23267   0.00000  Uiso   1.00
H125   H     0.51452   0.63906   0.25492   0.00000  Uiso   1.00
H126   H     0.40544   0.33971   0.15297   0.00000  Uiso   1.00
H127   H     0.22326   0.88610   0.23487   0.00000  Uiso   1.00
H128   H     0.62943   0.74815   0.28178   0.00000  Uiso   1.00
H129   H     0.39943   0.11690   0.06681   0.00000  Uiso   1.00
O130   O     0.17740   0.07794   0.16543   0.00000  Uiso   1.00
O131   O     0.71028   0.89693   0.22696   0.00000  Uiso   1.00
O132   O     0.40852   0.06876   0.94493   0.00000  Uiso   1.00
N133   N     0.25847   0.01635   0.10603   0.00000  Uiso   1.00
N134   N     0.63821   0.88739   0.14989   0.00000  Uiso   1.00
N135   N     0.42319   0.29722   0.94891   0.00000  Uiso   1.00
N136   N     0.24267   0.91143   0.19434   0.00000  Uiso   1.00
N137   N     0.62241   0.78247   0.23820   0.00000  Uiso   1.00
N138   N     0.40739   0.19230   0.03722   0.00000  Uiso   1.00
C139   C     0.36668   0.26196   0.44083   0.00000  Uiso   1.00
C140   C     0.31268   0.21200   0.40632   0.00000  Uiso   1.00
C141   C     0.27545   0.11263   0.42689   0.00000  Uiso   1.00
C142   C     0.22846   0.08131   0.38853   0.00000  Uiso   1.00
C143   C     0.14606   0.99369   0.34358   0.00000  Uiso   1.00
C144   C     0.41753   0.24615   0.39530   0.00000  Uiso   1.00
C145   C     0.46846   0.17549   0.40662   0.00000  Uiso   1.00
C146   C     0.50974   0.17293   0.35899   0.00000  Uiso   1.00
C147   C     0.59013   0.13840   0.29696   0.00000  Uiso   1.00
C148   C     0.35803   0.41071   0.44911   0.00000  Uiso   1.00
C149   C     0.35893   0.47843   0.50567   0.00000  Uiso   1.00
C150   C     0.35013   0.61443   0.50334   0.00000  Uiso   1.00
C151   C     0.33813   0.83541   0.52486   0.00000  Uiso   1.00
C152   C     0.34945   0.38306   0.33612   0.00000  Uiso   1.00
C153   C     0.30333   0.27778   0.34944   0.00000  Uiso   1.00
C154   C     0.25638   0.24661   0.31105   0.00000  Uiso   1.00
C155   C     0.21908   0.14721   0.33156   0.00000  Uiso   1.00
C156   C     0.40818   0.31192   0.33843   0.00000  Uiso   1.00
C157   C     0.44939   0.30947   0.29078   0.00000  Uiso   1.00
C158   C     0.50036   0.23883   0.30202   0.00000  Uiso   1.00
C159   C     0.34867   0.47649   0.39224   0.00000  Uiso   1.00
C160   C     0.33986   0.61241   0.38982   0.00000  Uiso   1.00
C161   C     0.34075   0.68033   0.44637   0.00000  Uiso   1.00
H162   H     0.37397   0.21075   0.48511   0.00000  Uiso   1.00
H163   H     0.28271   0.06174   0.47090   0.00000  Uiso   1.00
H164   H     0.47569   0.12461   0.45064   0.00000  Uiso   1.00
H165   H     0.36618   0.42750   0.54967   0.00000  Uiso   1.00
H166   H     0.17741   0.92551   0.43007   0.00000  Uiso   1.00
H167   H     0.58433   0.05811   0.38735   0.00000  Uiso   1.00
H168   H     0.35340   0.69681   0.59618   0.00000  Uiso   1.00
H169   H     0.34217   0.43427   0.29184   0.00000  Uiso   1.00
H170   H     0.24915   0.29753   0.26704   0.00000  Uiso   1.00
H171   H     0.44213   0.36039   0.24677   0.00000  Uiso   1.00
H172   H     0.33262   0.66328   0.34581   0.00000  Uiso   1.00
H173   H     0.15018   0.11688   0.26460   0.00000  Uiso   1.00
H174   H     0.55710   0.24948   0.22188   0.00000  Uiso   1.00
H175   H     0.32617   0.88818   0.43071   0.00000  Uiso   1.00
O176   O     0.10319   0.92717   0.33449   0.00000  Uiso   1.00
O177   O     0.63706   0.10116   0.27845   0.00000  Uiso   1.00
O178   O     0.33408   0.93912   0.55243   0.00000  Uiso   1.00
N179   N     0.18376   0.98933   0.39453   0.00000  Uiso   1.00
N180   N     0.56420   0.11329   0.35459   0.00000  Uiso   1.00
N181   N     0.34832   0.71043   0.54983   0.00000  Uiso   1.00
N182   N     0.16911   0.09231   0.30550   0.00000  Uiso   1.00
N183   N     0.54954   0.21626   0.26556   0.00000  Uiso   1.00
N184   N     0.33366   0.81340   0.46079   0.00000  Uiso   1.00
C185   C     0.05869   0.24288   0.56050   0.00000  Uiso   1.00
C186   C     0.11294   0.29259   0.59462   0.00000  Uiso   1.00
C187   C     0.14976   0.39284   0.57413   0.00000  Uiso   1.00
C188   C     0.19708   0.42376   0.61209   0.00000  Uiso   1.00
C189   C     0.27978   0.51119   0.65651   0.00000  Uiso   1.00
C190   C     0.00829   0.25707   0.60672   0.00000  Uiso   1.00
C191   C     0.95711   0.32744   0.59639   0.00000  Uiso   1.00
C192   C     0.91632   0.32843   0.64452   0.00000  Uiso   1.00
C193   C     0.83652   0.36064   0.70770   0.00000  Uiso   1.00
C194   C     0.06756   0.09443   0.55133   0.00000  Uiso   1.00
C195   C     0.06619   0.02804   0.49442   0.00000  Uiso   1.00
C196   C     0.07530   0.89209   0.49592   0.00000  Uiso   1.00
C197   C     0.08752   0.67177   0.47310   0.00000  Uiso   1.00
C198   C     0.07726   0.11950   0.66434   0.00000  Uiso   1.00
C199   C     0.12303   0.22558   0.65103   0.00000  Uiso   1.00
C200   C     0.17031   0.25634   0.68902   0.00000  Uiso   1.00
C201   C     0.20719   0.35662   0.66859   0.00000  Uiso   1.00
C202   C     0.01838   0.19006   0.66312   0.00000  Uiso   1.00
C203   C     0.97766   0.19094   0.71128   0.00000  Uiso   1.00
C204   C     0.92643   0.26130   0.70103   0.00000  Uiso   1.00
C205   C     0.07765   0.02741   0.60773   0.00000  Uiso   1.00
C206   C     0.08675   0.89153   0.60932   0.00000  Uiso   1.00
C207   C     0.08540   0.82495   0.55243   0.00000  Uiso   1.00
H208   H     0.05083   0.29505   0.51659   0.00000  Uiso   1.00
H209   H     0.14193   0.44469   0.53048   0.00000  Uiso   1.00
H210   H     0.94931   0.37928   0.55273   0.00000  Uiso   1.00
H211   H     0.05838   0.07993   0.45079   0.00000  Uiso   1.00
H212   H     0.24738   0.58107   0.57077   0.00000  Uiso   1.00
H213   H     0.84121   0.44312   0.61768   0.00000  Uiso   1.00
H214   H     0.07121   0.81187   0.40270   0.00000  Uiso   1.00
H215   H     0.08512   0.06732   0.70826   0.00000  Uiso   1.00
H216   H     0.17811   0.20446   0.73267   0.00000  Uiso   1.00
H217   H     0.98548   0.13906   0.75492   0.00000  Uiso   1.00
H218   H     0.09456   0.83971   0.65297   0.00000  Uiso   1.00
H219   H     0.27674   0.38610   0.73487   0.00000  Uiso   1.00
H220   H     0.87057   0.24815   0.78178   0.00000  Uiso   1.00
H221   H     0.10057   0.61690   0.56681   0.00000  Uiso   1.00
O222   O     0.32260   0.57794   0.66543   0.00000  Uiso   1.00
O223   O     0.78972   0.39693   0.72696   0.00000  Uiso   1.00
O224   O     0.09148   0.56876   0.44493   0.00000  Uiso   1.00
N225   N     0.24153   0.51635   0.60603   0.00000  Uiso   1.00
N226   N     0.86179   0.38739   0.64989   0.00000  Uiso   1.00
N227   N     0.07681   0.79722   0.44891   0.00000  Uiso   1.00
N228   N     0.25733   0.41143   0.69434   0.00000  Uiso   1.00
N229   N     0.87759   0.28247   0.73820   0.00000  Uiso   1.00
N230   N     0.09261   0.69230   0.53722   0.00000  Uiso   1.00
C231   C     0.13332   0.76196   0.94083   0.00000  Uiso   1.00
C232   C     0.18732   0.71200   0.90632   0.00000  Uiso   1.00
C233   C     0.22455   0.61263   0.92689   0.00000  Uiso   1.00
C234   C     0.27154   0.58131   0.88853   0.00000  Uiso   1.00
C235   C     0.35394   0.49369   0.84358   0.00000  Uiso   1.00
C236   C     0.08247   0.74615   0.89530   0.00000  Uiso   1.00
C237   C     0.03154   0.67549   0.90662   0.00000  Uiso   1.00
C238   C     0.99026   0.67293   0.85899   0.00000  Uiso   1.00
C239   C     0.90987   0.63840   0.79696   0.00000  Uiso   1.00
C240   C     0.14197   0.91071   0.94911   0.00000  Uiso   1.00
C241   C     0.14107   0.97843   0.00567   0.00000  Uiso   1.00
C242   C     0.14987   0.11443   0.00334   0.00000  Uiso   1.00
C243   C     0.16187   0.33541   0.02486   0.00000  Uiso   1.00
C244   C     0.15055   0.88306   0.83612   0.00000  Uiso   1.00
C245   C     0.19667   0.77778   0.84944   0.00000  Uiso   1.00
C246   C     0.24362   0.74661   0.81105   0.00000  Uiso   1.00
C247   C     0.28092   0.64721   0.83156   0.00000  Uiso   1.00
C248   C     0.09182   0.81192   0.83843   0.00000  Uiso   1.00
C249   C     0.05061   0.80947   0.79078   0.00000  Uiso   1.00
C250   C     0.99964   0.73883   0.80202   0.00000  Uiso   1.00
C251   C     0.15133   0.97649   0.89224   0.00000  Uiso   1.00
C252   C     0.16014   0.11241   0.88982   0.00000  Uiso   1.00
C253   C     0.15925   0.18033   0.94637   0.00000  Uiso   1.00
H254   H     0.12603   0.71075   0.98511   0.00000  Uiso   1.00
H255   H     0.21729   0.56174   0.97090   0.00000  Uiso   1.00
H256   H     0.02431   0.62461   0.95064   0.00000  Uiso   1.00
H257   H     0.13382   0.92750   0.04967   0.00000  Uiso   1.00
H258   H     0.32259   0.42551   0.93007   0.00000  Uiso   1.00
H259   H     0.91567   0.55811   0.88735   0.00000  Uiso   1.00
H260   H     0.14660   0.19681   0.09618   0.00000  Uiso   1.00
H261   H     0.15783   0.93427   0.79184   0.00000  Uiso   1.00
H262   H     0.25085   0.79753   0.76704   0.00000  Uiso   1.00
H263   H     0.05787   0.86039   0.74677   0.00000  Uiso   1.00
H264   H     0.16738   0.16328   0.84581   0.00000  Uiso   1.00
H265   H     0.34982   0.61688   0.76460   0.00000  Uiso   1.00
H266   H     0.94290   0.74948   0.72188   0.00000  Uiso   1.00
H267   H     0.17383   0.38818   0.93071   0.00000  Uiso   1.00
O268   O     0.39681   0.42717   0.83449   0.00000  Uiso   1.00
O269   O     0.86294   0.60116   0.77845   0.00000  Uiso   1.00
O270   O     0.16592   0.43912   0.05243   0.00000  Uiso   1.00
N271   N     0.31624   0.48933   0.89453   0.00000  Uiso   1.00
N272   N     0.93580   0.61329   0.85459   0.00000  Uiso   1.00
N273   N     0.15168   0.21043   0.04983   0.00000  Uiso   1.00
N274   N     0.33089   0.59231   0.80550   0.00000  Uiso   1.00
N275   N     0.95046   0.71626   0.76556   0.00000  Uiso   1.00
N276   N     0.16634   0.31340   0.96079   0.00000  Uiso   1.00
C277   C     0.94131   0.75712   0.06050   0.00000  Uiso   1.00
C278   C     0.88706   0.70741   0.09462   0.00000  Uiso   1.00
C279   C     0.85024   0.60716   0.07413   0.00000  Uiso   1.00
C280   C     0.80292   0.57624   0.11209   0.00000  Uiso   1.00
C281   C     0.72022   0.48881   0.15651   0.00000  Uiso   1.00
C282   C     0.99171   0.74293   0.10672   0.00000  Uiso   1.00
C283   C     0.04289   0.67256   0.09639   0.00000  Uiso   1.00
C284   C     0.08368   0.67157   0.14452   0.00000  Uiso   1.00
C285   C     0.16348   0.63936   0.20770   0.00000  Uiso   1.00
C286   C     0.93244   0.90557   0.05133   0.00000  Uiso   1.00
C287   C     0.93381   0.97196   0.99442   0.00000  Uiso   1.00
C288   C     0.92470   0.10791   0.99592   0.00000  Uiso   1.00
C289   C     0.91248   0.32823   0.97310   0.00000  Uiso   1.00
C290   C     0.92274   0.88050   0.16434   0.00000  Uiso   1.00
C291   C     0.87697   0.77442   0.15103   0.00000  Uiso   1.00
C292   C     0.82969   0.74366   0.18902   0.00000  Uiso   1.00
C293   C     0.79281   0.64338   0.16859   0.00000  Uiso   1.00
C294   C     0.98162   0.80994   0.16312   0.00000  Uiso   1.00
C295   C     0.02234   0.80906   0.21128   0.00000  Uiso   1.00
C296   C     0.07357   0.73870   0.20103   0.00000  Uiso   1.00
C297   C     0.92235   0.97259   0.10773   0.00000  Uiso   1.00
C298   C     0.91325   0.10847   0.10932   0.00000  Uiso   1.00
C299   C     0.91460   0.17505   0.05243   0.00000  Uiso   1.00
H300   H     0.94917   0.70495   0.01659   0.00000  Uiso   1.00
H301   H     0.85807   0.55531   0.03048   0.00000  Uiso   1.00
H302   H     0.05069   0.62072   0.05273   0.00000  Uiso   1.00
H303   H     0.94162   0.92007   0.95079   0.00000  Uiso   1.00
H304   H     0.75262   0.41893   0.07077   0.00000  Uiso   1.00
H305   H     0.15879   0.55688   0.11768   0.00000  Uiso   1.00
H306   H     0.92879   0.18813   0.90270   0.00000  Uiso   1.00
H307   H     0.91488   0.93268   0.20826   0.00000  Uiso   1.00
H308   H     0.82189   0.79554   0.23267   0.00000  Uiso   1.00
H309   H     0.01452   0.86094   0.25492   0.00000  Uiso   1.00
H310   H     0.90544   0.16029   0.15297   0.00000  Uiso   1.00
H311   H     0.72326   0.61390   0.23487   0.00000  Uiso   1.00
H312   H     0.12943   0.75185   0.28178   0.00000  Uiso   1.00
H313   H     0.89943   0.38310   0.06681   0.00000  Uiso   1.00
O314   O     0.67740   0.42206   0.16543   0.00000  Uiso   1.00
O315   O     0.21028   0.60307   0.22696   0.00000  Uiso   1.00
O316   O     0.90852   0.43124   0.94493   0.00000  Uiso   1.00
N317   N     0.75847   0.48365   0.10603   0.00000  Uiso   1.00
N318   N     0.13821   0.61261   0.14989   0.00000  Uiso   1.00
N319   N     0.92319   0.20278   0.94891   0.00000  Uiso   1.00
N320   N     0.74267   0.58857   0.19434   0.00000  Uiso   1.00
N321   N     0.12241   0.71753   0.23820   0.00000  Uiso   1.00
N322   N     0.90739   0.30770   0.03722   0.00000  Uiso   1.00
C323   C     0.86668   0.23804   0.44083   0.00000  Uiso   1.00
C324   C     0.81268   0.28800   0.40632   0.00000  Uiso   1.00
C325   C     0.77545   0.38737   0.42689   0.00000  Uiso   1.00
C326   C     0.72846   0.41869   0.38853   0.00000  Uiso   1.00
C327   C     0.64606   0.50631   0.34358   0.00000  Uiso   1.00
C328   C     0.91753   0.25385   0.39530   0.00000  Uiso   1.00
C329   C     0.96846   0.32451   0.40662   0.00000  Uiso   1.00
C330   C     0.00974   0.32707   0.35899   0.00000  Uiso   1.00
C331   C     0.09013   0.36160   0.29696   0.00000  Uiso   1.00
C332   C     0.85803   0.08929   0.44911   0.00000  Uiso   1.00
C333   C     0.85893   0.02157   0.50567   0.00000  Uiso   1.00
C334   C     0.85013   0.88557   0.50334   0.00000  Uiso   1.00
C335   C     0.83813   0.66459   0.52486   0.00000  Uiso   1.00
C336   C     0.84945   0.11694   0.33612   0.00000  Uiso   1.00
C337   C     0.80333   0.22222   0.34944   0.00000  Uiso   1.00
C338   C     0.75638   0.25339   0.31105   0.00000  Uiso   1.00
C339   C     0.71908   0.35279   0.33156   0.00000  Uiso   1.00
C340   C     0.90818   0.18808   0.33843   0.00000  Uiso   1.00
C341   C     0.94939   0.19053   0.29078   0.00000  Uiso   1.00
C342   C     0.00036   0.26117   0.30202   0.00000  Uiso   1.00
C343   C     0.84867   0.02351   0.39224   0.00000  Uiso   1.00
C344   C     0.83986   0.88759   0.38982   0.00000  Uiso   1.00
C345   C     0.84075   0.81967   0.44637   0.00000  Uiso   1.00
H346   H     0.87397   0.28925   0.48511   0.00000  Uiso   1.00
H347   H     0.78271   0.43826   0.47090   0.00000  Uiso   1.00
H348   H     0.97569   0.37539   0.45064   0.00000  Uiso   1.00
H349   H     0.86618   0.07250   0.54967   0.00000  Uiso   1.00
H350   H     0.67741   0.57449   0.43007   0.00000  Uiso   1.00
H351   H     0.08433   0.44189   0.38735   0.00000  Uiso   1.00
H352   H     0.85340   0.80319   0.59618   0.00000  Uiso   1.00
H353   H     0.84217   0.06573   0.29184   0.00000  Uiso   1.00
H354   H     0.74915   0.20247   0.26704   0.00000  Uiso   1.00
H355   H     0.94213   0.13961   0.24677   0.00000  Uiso   1.00
H356   H     0.83262   0.83672   0.34581   0.00000  Uiso   1.00
H357   H     0.65018   0.38312   0.26460   0.00000  Uiso   1.00
H358   H     0.05710   0.25052   0.22188   0.00000  Uiso   1.00
H359   H     0.82617   0.61182   0.43071   0.00000  Uiso   1.00
O360   O     0.60319   0.57283   0.33449   0.00000  Uiso   1.00
O361   O     0.13706   0.39884   0.27845   0.00000  Uiso   1.00
O362   O     0.83408   0.56088   0.55243   0.00000  Uiso   1.00
N363   N     0.68376   0.51067   0.39453   0.00000  Uiso   1.00
N364   N     0.06420   0.38671   0.35459   0.00000  Uiso   1.00
N365   N     0.84832   0.78957   0.54983   0.00000  Uiso   1.00
N366   N     0.66911   0.40769   0.30550   0.00000  Uiso   1.00
N367   N     0.04954   0.28374   0.26556   0.00000  Uiso   1.00
N368   N     0.83366   0.68660   0.46079   0.00000  Uiso   1.00
