data_job_06298
_audit_creation_date              2018-12-19
_audit_creation_method            'Materials Studio'
_symmetry_space_group_name_H-M    'P1'
_symmetry_Int_Tables_number       1
_symmetry_cell_setting            triclinic
loop_
_symmetry_equiv_pos_as_xyz
  x,y,z
_cell_length_a                    7.3146
_cell_length_b                    24.9000
_cell_length_c                    24.9005
_cell_angle_alpha                 60.9440
_cell_angle_beta                  95.6386
_cell_angle_gamma                 84.4181
loop_
_atom_site_label
_atom_site_type_symbol
_atom_site_fract_x
_atom_site_fract_y
_atom_site_fract_z
_atom_site_U_iso_or_equiv
_atom_site_adp_type
_atom_site_occupancy
C1     C     0.02042   0.10067   0.57016   0.00000  Uiso   1.00
C2     C     0.85115   0.13711   0.51907   0.00000  Uiso   1.00
C3     C     0.85572   0.17404   0.45601   0.00000  Uiso   1.00
C4     C     0.68568   0.20354   0.41676   0.00000  Uiso   1.00
C5     C     0.44846   0.26124   0.33392   0.00000  Uiso   1.00
C6     C     0.00743   0.12278   0.61725   0.00000  Uiso   1.00
C7     C     0.14343   0.14766   0.63675   0.00000  Uiso   1.00
C8     C     0.10495   0.16509   0.68016   0.00000  Uiso   1.00
C9     C     0.11044   0.20050   0.74979   0.00000  Uiso   1.00
C10    C     0.99015   0.03303   0.60325   0.00000  Uiso   1.00
C11    C     0.11164   0.98244   0.61099   0.00000  Uiso   1.00
C12    C     0.05863   0.92430   0.64262   0.00000  Uiso   1.00
C13    C     0.03729   0.82036   0.69051   0.00000  Uiso   1.00
C14    C     0.71028   0.08738   0.61259   0.00000  Uiso   1.00
C15    C     0.68269   0.12989   0.54211   0.00000  Uiso   1.00
C16    C     0.51259   0.15934   0.50295   0.00000  Uiso   1.00
C17    C     0.51691   0.19631   0.43985   0.00000  Uiso   1.00
C18    C     0.83898   0.11556   0.64029   0.00000  Uiso   1.00
C19    C     0.80030   0.13295   0.68369   0.00000  Uiso   1.00
C20    C     0.93619   0.15786   0.70325   0.00000  Uiso   1.00
C21    C     0.82169   0.02581   0.62629   0.00000  Uiso   1.00
C22    C     0.76850   0.96774   0.65792   0.00000  Uiso   1.00
C23    C     0.88987   0.91707   0.66571   0.00000  Uiso   1.00
H24    H     0.15158   0.10629   0.55222   0.00000  Uiso   1.00
H25    H     0.98612   0.17962   0.43820   0.00000  Uiso   1.00
H26    H     0.27379   0.15323   0.61892   0.00000  Uiso   1.00
H27    H     0.24199   0.98804   0.59315   0.00000  Uiso   1.00
H28    H     0.72840   0.25776   0.32194   0.00000  Uiso   1.00
H29    H     0.33499   0.20210   0.70301   0.00000  Uiso   1.00
H30    H     0.26794   0.85376   0.64868   0.00000  Uiso   1.00
H31    H     0.57913   0.08176   0.63053   0.00000  Uiso   1.00
H32    H     0.38225   0.15375   0.52079   0.00000  Uiso   1.00
H33    H     0.66993   0.12736   0.70151   0.00000  Uiso   1.00
H34    H     0.63813   0.96217   0.67575   0.00000  Uiso   1.00
H35    H     0.23827   0.23676   0.38898   0.00000  Uiso   1.00
H36    H     0.84487   0.18109   0.77005   0.00000  Uiso   1.00
H37    H     0.77782   0.83276   0.71573   0.00000  Uiso   1.00
O38    O     0.36416   0.29507   0.28186   0.00000  Uiso   1.00
O39    O     0.16000   0.22203   0.78182   0.00000  Uiso   1.00
O40    O     0.07203   0.76503   0.71054   0.00000  Uiso   1.00
N41    N     0.64006   0.24293   0.35278   0.00000  Uiso   1.00
N42    N     0.20718   0.19090   0.70905   0.00000  Uiso   1.00
N43    N     0.14452   0.86523   0.65827   0.00000  Uiso   1.00
N44    N     0.37633   0.23162   0.38885   0.00000  Uiso   1.00
N45    N     0.94345   0.17960   0.74512   0.00000  Uiso   1.00
N46    N     0.88079   0.85393   0.69434   0.00000  Uiso   1.00
C47    C     0.11958   0.32963   0.10043   0.00000  Uiso   1.00
C48    C     0.98678   0.34427   0.13688   0.00000  Uiso   1.00
C49    C     0.02833   0.37039   0.17382   0.00000  Uiso   1.00
C50    C     0.88782   0.38010   0.20334   0.00000  Uiso   1.00
C51    C     0.70837   0.40520   0.26106   0.00000  Uiso   1.00
C52    C     0.12859   0.26044   0.12254   0.00000  Uiso   1.00
C53    C     0.28938   0.21609   0.14741   0.00000  Uiso   1.00
C54    C     0.26824   0.15524   0.16485   0.00000  Uiso   1.00
C55    C     0.30896   0.05021   0.20026   0.00000  Uiso   1.00
C56    C     0.02173   0.36419   0.03279   0.00000  Uiso   1.00
C57    C     0.09268   0.40705   0.98219   0.00000  Uiso   1.00
C58    C     0.98159   0.43354   0.92405   0.00000  Uiso   1.00
C59    C     0.85639   0.48959   0.82011   0.00000  Uiso   1.00
C60    C     0.79613   0.30044   0.08717   0.00000  Uiso   1.00
C61    C     0.81109   0.32841   0.12968   0.00000  Uiso   1.00
C62    C     0.67047   0.33809   0.15915   0.00000  Uiso   1.00
C63    C     0.71182   0.36422   0.19612   0.00000  Uiso   1.00
C64    C     0.95291   0.24458   0.11534   0.00000  Uiso   1.00
C65    C     0.93152   0.18379   0.13274   0.00000  Uiso   1.00
C66    C     0.09224   0.13935   0.15763   0.00000  Uiso   1.00
C67    C     0.84604   0.34833   0.02558   0.00000  Uiso   1.00
C68    C     0.73482   0.37475   0.96752   0.00000  Uiso   1.00
C69    C     0.80559   0.41765   0.91684   0.00000  Uiso   1.00
H70    H     0.25636   0.34198   0.10604   0.00000  Uiso   1.00
H71    H     0.16432   0.38265   0.17938   0.00000  Uiso   1.00
H72    H     0.42532   0.22837   0.15297   0.00000  Uiso   1.00
H73    H     0.22864   0.41931   0.98778   0.00000  Uiso   1.00
H74    H     0.98481   0.42072   0.25754   0.00000  Uiso   1.00
H75    H     0.53516   0.09543   0.20184   0.00000  Uiso   1.00
H76    H     0.12044   0.49806   0.85349   0.00000  Uiso   1.00
H77    H     0.65935   0.28809   0.08156   0.00000  Uiso   1.00
H78    H     0.53453   0.32581   0.15357   0.00000  Uiso   1.00
H79    H     0.79555   0.17153   0.12716   0.00000  Uiso   1.00
H80    H     0.59887   0.36247   0.96196   0.00000  Uiso   1.00
H81    H     0.47366   0.37459   0.23659   0.00000  Uiso   1.00
H82    H     0.02402   0.04930   0.18088   0.00000  Uiso   1.00
H83    H     0.60929   0.45192   0.83253   0.00000  Uiso   1.00
O84    O     0.65792   0.42342   0.29489   0.00000  Uiso   1.00
O85    O     0.37997   0.99665   0.22179   0.00000  Uiso   1.00
O86    O     0.83586   0.52489   0.76477   0.00000  Uiso   1.00
N87    N     0.88163   0.40470   0.24272   0.00000  Uiso   1.00
N88    N     0.39617   0.10057   0.19065   0.00000  Uiso   1.00
N89    N     0.00846   0.47698   0.86497   0.00000  Uiso   1.00
N90    N     0.60658   0.37988   0.23145   0.00000  Uiso   1.00
N91    N     0.12113   0.07575   0.17937   0.00000  Uiso   1.00
N92    N     0.73341   0.45216   0.85369   0.00000  Uiso   1.00
C93    C     0.45223   0.57064   0.32942   0.00000  Uiso   1.00
C94    C     0.33399   0.51953   0.34406   0.00000  Uiso   1.00
C95    C     0.40156   0.45648   0.37018   0.00000  Uiso   1.00
C96    C     0.27071   0.41723   0.37991   0.00000  Uiso   1.00
C97    C     0.11624   0.33437   0.40503   0.00000  Uiso   1.00
C98    C     0.39212   0.61772   0.26022   0.00000  Uiso   1.00
C99    C     0.50858   0.63723   0.21585   0.00000  Uiso   1.00
C100   C     0.42666   0.68063   0.15500   0.00000  Uiso   1.00
C101   C     0.36246   0.75025   0.04996   0.00000  Uiso   1.00
C102   C     0.38899   0.60371   0.36398   0.00000  Uiso   1.00
C103   C     0.50282   0.61147   0.40683   0.00000  Uiso   1.00
C104   C     0.41827   0.64309   0.43333   0.00000  Uiso   1.00
C105   C     0.34921   0.69096   0.48939   0.00000  Uiso   1.00
C106   C     0.09969   0.61303   0.30025   0.00000  Uiso   1.00
C107   C     0.14250   0.54256   0.32822   0.00000  Uiso   1.00
C108   C     0.01151   0.50338   0.33791   0.00000  Uiso   1.00
C109   C     0.07888   0.44029   0.36404   0.00000  Uiso   1.00
C110   C     0.20064   0.64074   0.24438   0.00000  Uiso   1.00
C111   C     0.11853   0.68413   0.18358   0.00000  Uiso   1.00
C112   C     0.23482   0.70370   0.13913   0.00000  Uiso   1.00
C113   C     0.19750   0.62674   0.34814   0.00000  Uiso   1.00
C114   C     0.11276   0.65836   0.37457   0.00000  Uiso   1.00
C115   C     0.22644   0.66616   0.41746   0.00000  Uiso   1.00
H116   H     0.60131   0.55271   0.34175   0.00000  Uiso   1.00
H117   H     0.54976   0.43868   0.38243   0.00000  Uiso   1.00
H118   H     0.65676   0.61941   0.22812   0.00000  Uiso   1.00
H119   H     0.65099   0.59364   0.41908   0.00000  Uiso   1.00
H120   H     0.40817   0.32242   0.42053   0.00000  Uiso   1.00
H121   H     0.63378   0.70350   0.09517   0.00000  Uiso   1.00
H122   H     0.62164   0.64917   0.49784   0.00000  Uiso   1.00
H123   H     0.95060   0.63096   0.28792   0.00000  Uiso   1.00
H124   H     0.86334   0.52122   0.32565   0.00000  Uiso   1.00
H125   H     0.97034   0.70194   0.17134   0.00000  Uiso   1.00
H126   H     0.96458   0.67617   0.36230   0.00000  Uiso   1.00
H127   H     0.85104   0.38940   0.37444   0.00000  Uiso   1.00
H128   H     0.07666   0.77049   0.04908   0.00000  Uiso   1.00
H129   H     0.06451   0.71615   0.45175   0.00000  Uiso   1.00
O130   O     0.08394   0.28231   0.42326   0.00000  Uiso   1.00
O131   O     0.37995   0.78229   0.99640   0.00000  Uiso   1.00
O132   O     0.36401   0.71100   0.52470   0.00000  Uiso   1.00
N133   N     0.28902   0.35324   0.40451   0.00000  Uiso   1.00
N134   N     0.49996   0.70953   0.10032   0.00000  Uiso   1.00
N135   N     0.48861   0.65874   0.47677   0.00000  Uiso   1.00
N136   N     0.98923   0.38929   0.37972   0.00000  Uiso   1.00
N137   N     0.20017   0.74557   0.07552   0.00000  Uiso   1.00
N138   N     0.18882   0.69479   0.45197   0.00000  Uiso   1.00
C139   C     0.97958   0.89933   0.42984   0.00000  Uiso   1.00
C140   C     0.14885   0.86289   0.48093   0.00000  Uiso   1.00
C141   C     0.14428   0.82596   0.54399   0.00000  Uiso   1.00
C142   C     0.31432   0.79646   0.58324   0.00000  Uiso   1.00
C143   C     0.55154   0.73876   0.66608   0.00000  Uiso   1.00
C144   C     0.99257   0.87722   0.38275   0.00000  Uiso   1.00
C145   C     0.85657   0.85234   0.36325   0.00000  Uiso   1.00
C146   C     0.89505   0.83491   0.31984   0.00000  Uiso   1.00
C147   C     0.88956   0.79950   0.25021   0.00000  Uiso   1.00
C148   C     0.00985   0.96697   0.39676   0.00000  Uiso   1.00
C149   C     0.88836   0.01756   0.38901   0.00000  Uiso   1.00
C150   C     0.94137   0.07570   0.35738   0.00000  Uiso   1.00
C151   C     0.96271   0.17964   0.30949   0.00000  Uiso   1.00
C152   C     0.28972   0.91262   0.38741   0.00000  Uiso   1.00
C153   C     0.31731   0.87011   0.45789   0.00000  Uiso   1.00
C154   C     0.48741   0.84066   0.49705   0.00000  Uiso   1.00
C155   C     0.48309   0.80369   0.56015   0.00000  Uiso   1.00
C156   C     0.16102   0.88444   0.35971   0.00000  Uiso   1.00
C157   C     0.19970   0.86704   0.31631   0.00000  Uiso   1.00
C158   C     0.06381   0.84214   0.29675   0.00000  Uiso   1.00
C159   C     0.17831   0.97419   0.37371   0.00000  Uiso   1.00
C160   C     0.23150   0.03226   0.34208   0.00000  Uiso   1.00
C161   C     0.11013   0.08293   0.33429   0.00000  Uiso   1.00
H162   H     0.84843   0.89371   0.44778   0.00000  Uiso   1.00
H163   H     0.01388   0.82038   0.56180   0.00000  Uiso   1.00
H164   H     0.72621   0.84677   0.38109   0.00000  Uiso   1.00
H165   H     0.75801   0.01196   0.40685   0.00000  Uiso   1.00
H166   H     0.27160   0.74224   0.67806   0.00000  Uiso   1.00
H167   H     0.66501   0.79790   0.29699   0.00000  Uiso   1.00
H168   H     0.73206   0.14624   0.35132   0.00000  Uiso   1.00
H169   H     0.42087   0.91824   0.36947   0.00000  Uiso   1.00
H170   H     0.61775   0.84625   0.47921   0.00000  Uiso   1.00
H171   H     0.33007   0.87264   0.29849   0.00000  Uiso   1.00
H172   H     0.36187   0.03783   0.32425   0.00000  Uiso   1.00
H173   H     0.76173   0.76324   0.61102   0.00000  Uiso   1.00
H174   H     0.15513   0.81891   0.22995   0.00000  Uiso   1.00
H175   H     0.22218   0.16724   0.28427   0.00000  Uiso   1.00
O176   O     0.63584   0.70493   0.71814   0.00000  Uiso   1.00
O177   O     0.84000   0.77797   0.21818   0.00000  Uiso   1.00
O178   O     0.92797   0.23497   0.28946   0.00000  Uiso   1.00
N179   N     0.35994   0.75707   0.64722   0.00000  Uiso   1.00
N180   N     0.79282   0.80910   0.29096   0.00000  Uiso   1.00
N181   N     0.85548   0.13477   0.34173   0.00000  Uiso   1.00
N182   N     0.62367   0.76837   0.61115   0.00000  Uiso   1.00
N183   N     0.05655   0.82040   0.25488   0.00000  Uiso   1.00
N184   N     0.11921   0.14607   0.30566   0.00000  Uiso   1.00
C185   C     0.88042   0.67036   0.89957   0.00000  Uiso   1.00
C186   C     0.01322   0.65573   0.86312   0.00000  Uiso   1.00
C187   C     0.97167   0.62961   0.82618   0.00000  Uiso   1.00
C188   C     0.11218   0.61990   0.79666   0.00000  Uiso   1.00
C189   C     0.29164   0.59480   0.73894   0.00000  Uiso   1.00
C190   C     0.87141   0.73956   0.87746   0.00000  Uiso   1.00
C191   C     0.71062   0.78391   0.85259   0.00000  Uiso   1.00
C192   C     0.73176   0.84476   0.83515   0.00000  Uiso   1.00
C193   C     0.69104   0.94979   0.79974   0.00000  Uiso   1.00
C194   C     0.97827   0.63581   0.96721   0.00000  Uiso   1.00
C195   C     0.90732   0.59295   0.01781   0.00000  Uiso   1.00
C196   C     0.01841   0.56646   0.07595   0.00000  Uiso   1.00
C197   C     0.14361   0.51041   0.17989   0.00000  Uiso   1.00
C198   C     0.20387   0.69956   0.91283   0.00000  Uiso   1.00
C199   C     0.18891   0.67159   0.87032   0.00000  Uiso   1.00
C200   C     0.32953   0.66191   0.84085   0.00000  Uiso   1.00
C201   C     0.28819   0.63578   0.80388   0.00000  Uiso   1.00
C202   C     0.04709   0.75542   0.88466   0.00000  Uiso   1.00
C203   C     0.06848   0.81621   0.86726   0.00000  Uiso   1.00
C204   C     0.90776   0.86065   0.84237   0.00000  Uiso   1.00
C205   C     0.15396   0.65167   0.97442   0.00000  Uiso   1.00
C206   C     0.26518   0.62525   0.03248   0.00000  Uiso   1.00
C207   C     0.19441   0.58235   0.08316   0.00000  Uiso   1.00
H208   H     0.74364   0.65802   0.89396   0.00000  Uiso   1.00
H209   H     0.83568   0.61735   0.82062   0.00000  Uiso   1.00
H210   H     0.57468   0.77163   0.84703   0.00000  Uiso   1.00
H211   H     0.77136   0.58069   0.01222   0.00000  Uiso   1.00
H212   H     0.01519   0.57928   0.74246   0.00000  Uiso   1.00
H213   H     0.46484   0.90457   0.79816   0.00000  Uiso   1.00
H214   H     0.87956   0.50194   0.14651   0.00000  Uiso   1.00
H215   H     0.34065   0.71191   0.91844   0.00000  Uiso   1.00
H216   H     0.46547   0.67419   0.84643   0.00000  Uiso   1.00
H217   H     0.20445   0.82847   0.87284   0.00000  Uiso   1.00
H218   H     0.40113   0.63753   0.03804   0.00000  Uiso   1.00
H219   H     0.52634   0.62541   0.76341   0.00000  Uiso   1.00
H220   H     0.97598   0.95070   0.81912   0.00000  Uiso   1.00
H221   H     0.39071   0.54808   0.16747   0.00000  Uiso   1.00
O222   O     0.34208   0.57658   0.70511   0.00000  Uiso   1.00
O223   O     0.62003   0.00335   0.77821   0.00000  Uiso   1.00
O224   O     0.16414   0.47511   0.23523   0.00000  Uiso   1.00
N225   N     0.11837   0.59530   0.75728   0.00000  Uiso   1.00
N226   N     0.60383   0.89943   0.80935   0.00000  Uiso   1.00
N227   N     0.99154   0.52302   0.13503   0.00000  Uiso   1.00
N228   N     0.39342   0.62012   0.76855   0.00000  Uiso   1.00
N229   N     0.87887   0.92425   0.82063   0.00000  Uiso   1.00
N230   N     0.26659   0.54784   0.14631   0.00000  Uiso   1.00
C231   C     0.54777   0.42936   0.67058   0.00000  Uiso   1.00
C232   C     0.66601   0.48047   0.65594   0.00000  Uiso   1.00
C233   C     0.59844   0.54351   0.62982   0.00000  Uiso   1.00
C234   C     0.72929   0.58277   0.62009   0.00000  Uiso   1.00
C235   C     0.88376   0.66563   0.59497   0.00000  Uiso   1.00
C236   C     0.60788   0.38228   0.73978   0.00000  Uiso   1.00
C237   C     0.49142   0.36277   0.78415   0.00000  Uiso   1.00
C238   C     0.57334   0.31936   0.84500   0.00000  Uiso   1.00
C239   C     0.63754   0.24975   0.95004   0.00000  Uiso   1.00
C240   C     0.61101   0.39629   0.63602   0.00000  Uiso   1.00
C241   C     0.49718   0.38853   0.59317   0.00000  Uiso   1.00
C242   C     0.58173   0.35691   0.56667   0.00000  Uiso   1.00
C243   C     0.65079   0.30904   0.51061   0.00000  Uiso   1.00
C244   C     0.90031   0.38697   0.69975   0.00000  Uiso   1.00
C245   C     0.85750   0.45744   0.67178   0.00000  Uiso   1.00
C246   C     0.98849   0.49662   0.66209   0.00000  Uiso   1.00
C247   C     0.92112   0.55971   0.63596   0.00000  Uiso   1.00
C248   C     0.79936   0.35926   0.75563   0.00000  Uiso   1.00
C249   C     0.88147   0.31587   0.81642   0.00000  Uiso   1.00
C250   C     0.76518   0.29630   0.86087   0.00000  Uiso   1.00
C251   C     0.80250   0.37326   0.65186   0.00000  Uiso   1.00
C252   C     0.88724   0.34164   0.62543   0.00000  Uiso   1.00
C253   C     0.77356   0.33384   0.58254   0.00000  Uiso   1.00
H254   H     0.39869   0.44729   0.65825   0.00000  Uiso   1.00
H255   H     0.45024   0.56131   0.61757   0.00000  Uiso   1.00
H256   H     0.34324   0.38059   0.77188   0.00000  Uiso   1.00
H257   H     0.34901   0.40636   0.58092   0.00000  Uiso   1.00
H258   H     0.59184   0.67758   0.57947   0.00000  Uiso   1.00
H259   H     0.36622   0.29650   0.90484   0.00000  Uiso   1.00
H260   H     0.37836   0.35083   0.50216   0.00000  Uiso   1.00
H261   H     0.04940   0.36904   0.71209   0.00000  Uiso   1.00
H262   H     0.13666   0.47878   0.67435   0.00000  Uiso   1.00
H263   H     0.02966   0.29806   0.82866   0.00000  Uiso   1.00
H264   H     0.03542   0.32383   0.63770   0.00000  Uiso   1.00
H265   H     0.14896   0.61060   0.62556   0.00000  Uiso   1.00
H266   H     0.92334   0.22951   0.95092   0.00000  Uiso   1.00
H267   H     0.93549   0.28385   0.54825   0.00000  Uiso   1.00
O268   O     0.91606   0.71769   0.57674   0.00000  Uiso   1.00
O269   O     0.62005   0.21771   0.00360   0.00000  Uiso   1.00
O270   O     0.63599   0.28900   0.47530   0.00000  Uiso   1.00
N271   N     0.71098   0.64676   0.59549   0.00000  Uiso   1.00
N272   N     0.50004   0.29047   0.89968   0.00000  Uiso   1.00
N273   N     0.51139   0.34126   0.52323   0.00000  Uiso   1.00
N274   N     0.01077   0.61071   0.62028   0.00000  Uiso   1.00
N275   N     0.79983   0.25443   0.92448   0.00000  Uiso   1.00
N276   N     0.81118   0.30521   0.54803   0.00000  Uiso   1.00
