data_job_02420
_audit_creation_date              2018-12-19
_audit_creation_method            'Materials Studio'
_symmetry_space_group_name_H-M    'P1'
_symmetry_Int_Tables_number       1
_symmetry_cell_setting            triclinic
loop_
_symmetry_equiv_pos_as_xyz
  x,y,z
_cell_length_a                    43.8385
_cell_length_b                    12.5482
_cell_length_c                    12.3779
_cell_angle_alpha                 90.0000
_cell_angle_beta                  85.9250
_cell_angle_gamma                 90.0000
loop_
_atom_site_label
_atom_site_type_symbol
_atom_site_fract_x
_atom_site_fract_y
_atom_site_fract_z
_atom_site_U_iso_or_equiv
_atom_site_adp_type
_atom_site_occupancy
C1     C     0.34983   0.58215   0.43131   0.00000  Uiso   1.00
C2     C     0.37594   0.59563   0.34420   0.00000  Uiso   1.00
C3     C     0.40677   0.58107   0.35851   0.00000  Uiso   1.00
C4     C     0.42708   0.59730   0.26877   0.00000  Uiso   1.00
C5     C     0.46917   0.61377   0.14880   0.00000  Uiso   1.00
C6     C     0.33256   0.68772   0.43601   0.00000  Uiso   1.00
C7     C     0.32692   0.75058   0.52750   0.00000  Uiso   1.00
C8     C     0.31071   0.84432   0.51504   0.00000  Uiso   1.00
C9     C     0.28544   0.00372   0.53762   0.00000  Uiso   1.00
C10    C     0.32814   0.50059   0.38707   0.00000  Uiso   1.00
C11    C     0.31878   0.40611   0.43744   0.00000  Uiso   1.00
C12    C     0.29885   0.34231   0.38379   0.00000  Uiso   1.00
C13    C     0.26672   0.21116   0.33039   0.00000  Uiso   1.00
C14    C     0.33107   0.63685   0.24650   0.00000  Uiso   1.00
C15    C     0.36575   0.62535   0.24382   0.00000  Uiso   1.00
C16    C     0.38602   0.64159   0.15404   0.00000  Uiso   1.00
C17    C     0.41688   0.62706   0.16821   0.00000  Uiso   1.00
C18    C     0.32237   0.71743   0.33563   0.00000  Uiso   1.00
C19    C     0.30617   0.81110   0.32303   0.00000  Uiso   1.00
C20    C     0.30051   0.87409   0.41448   0.00000  Uiso   1.00
C21    C     0.31795   0.53030   0.28669   0.00000  Uiso   1.00
C22    C     0.29803   0.46663   0.23296   0.00000  Uiso   1.00
C23    C     0.28864   0.37208   0.28323   0.00000  Uiso   1.00
H24    H     0.35776   0.55902   0.50946   0.00000  Uiso   1.00
H25    H     0.41465   0.55809   0.43621   0.00000  Uiso   1.00
H26    H     0.33481   0.72756   0.60518   0.00000  Uiso   1.00
H27    H     0.32667   0.38315   0.51512   0.00000  Uiso   1.00
H28    H     0.47322   0.57020   0.31073   0.00000  Uiso   1.00
H29    H     0.30486   0.92752   0.66702   0.00000  Uiso   1.00
H30    H     0.28771   0.20126   0.47712   0.00000  Uiso   1.00
H31    H     0.32314   0.65998   0.16835   0.00000  Uiso   1.00
H32    H     0.37812   0.66458   0.07637   0.00000  Uiso   1.00
H33    H     0.29828   0.83406   0.24534   0.00000  Uiso   1.00
H34    H     0.29015   0.48965   0.15529   0.00000  Uiso   1.00
H35    H     0.44358   0.65664   0.01868   0.00000  Uiso   1.00
H36    H     0.27522   0.01396   0.37497   0.00000  Uiso   1.00
H37    H     0.25807   0.28770   0.18506   0.00000  Uiso   1.00
O38    O     0.49520   0.61466   0.11036   0.00000  Uiso   1.00
O39    O     0.27431   0.08344   0.57780   0.00000  Uiso   1.00
O40    O     0.25181   0.13060   0.32866   0.00000  Uiso   1.00
N41    N     0.45870   0.58989   0.25461   0.00000  Uiso   1.00
N42    N     0.30130   0.92398   0.58772   0.00000  Uiso   1.00
N43    N     0.28525   0.24499   0.41019   0.00000  Uiso   1.00
N44    N     0.44275   0.63640   0.09746   0.00000  Uiso   1.00
N45    N     0.28535   0.97049   0.43056   0.00000  Uiso   1.00
N46    N     0.26930   0.29150   0.25304   0.00000  Uiso   1.00
C47    C     0.84983   0.08215   0.43131   0.00000  Uiso   1.00
C48    C     0.87594   0.09563   0.34420   0.00000  Uiso   1.00
C49    C     0.90677   0.08107   0.35851   0.00000  Uiso   1.00
C50    C     0.92708   0.09730   0.26877   0.00000  Uiso   1.00
C51    C     0.96917   0.11377   0.14880   0.00000  Uiso   1.00
C52    C     0.83256   0.18772   0.43601   0.00000  Uiso   1.00
C53    C     0.82692   0.25058   0.52750   0.00000  Uiso   1.00
C54    C     0.81071   0.34432   0.51504   0.00000  Uiso   1.00
C55    C     0.78544   0.50372   0.53762   0.00000  Uiso   1.00
C56    C     0.82814   0.00059   0.38707   0.00000  Uiso   1.00
C57    C     0.81878   0.90611   0.43744   0.00000  Uiso   1.00
C58    C     0.79885   0.84231   0.38379   0.00000  Uiso   1.00
C59    C     0.76672   0.71116   0.33039   0.00000  Uiso   1.00
C60    C     0.83107   0.13685   0.24650   0.00000  Uiso   1.00
C61    C     0.86575   0.12535   0.24382   0.00000  Uiso   1.00
C62    C     0.88602   0.14159   0.15404   0.00000  Uiso   1.00
C63    C     0.91688   0.12706   0.16821   0.00000  Uiso   1.00
C64    C     0.82237   0.21743   0.33563   0.00000  Uiso   1.00
C65    C     0.80617   0.31110   0.32303   0.00000  Uiso   1.00
C66    C     0.80051   0.37409   0.41448   0.00000  Uiso   1.00
C67    C     0.81795   0.03030   0.28669   0.00000  Uiso   1.00
C68    C     0.79803   0.96663   0.23296   0.00000  Uiso   1.00
C69    C     0.78864   0.87208   0.28323   0.00000  Uiso   1.00
H70    H     0.85776   0.05902   0.50946   0.00000  Uiso   1.00
H71    H     0.91465   0.05809   0.43621   0.00000  Uiso   1.00
H72    H     0.83481   0.22756   0.60518   0.00000  Uiso   1.00
H73    H     0.82667   0.88315   0.51512   0.00000  Uiso   1.00
H74    H     0.97322   0.07020   0.31073   0.00000  Uiso   1.00
H75    H     0.80486   0.42752   0.66702   0.00000  Uiso   1.00
H76    H     0.78771   0.70126   0.47712   0.00000  Uiso   1.00
H77    H     0.82314   0.15998   0.16835   0.00000  Uiso   1.00
H78    H     0.87812   0.16458   0.07637   0.00000  Uiso   1.00
H79    H     0.79828   0.33406   0.24534   0.00000  Uiso   1.00
H80    H     0.79015   0.98965   0.15529   0.00000  Uiso   1.00
H81    H     0.94358   0.15664   0.01868   0.00000  Uiso   1.00
H82    H     0.77522   0.51396   0.37497   0.00000  Uiso   1.00
H83    H     0.75807   0.78770   0.18506   0.00000  Uiso   1.00
O84    O     0.99520   0.11466   0.11036   0.00000  Uiso   1.00
O85    O     0.77431   0.58344   0.57780   0.00000  Uiso   1.00
O86    O     0.75181   0.63060   0.32866   0.00000  Uiso   1.00
N87    N     0.95870   0.08989   0.25461   0.00000  Uiso   1.00
N88    N     0.80130   0.42398   0.58772   0.00000  Uiso   1.00
N89    N     0.78525   0.74499   0.41019   0.00000  Uiso   1.00
N90    N     0.94275   0.13640   0.09746   0.00000  Uiso   1.00
N91    N     0.78535   0.47049   0.43056   0.00000  Uiso   1.00
N92    N     0.76930   0.79150   0.25304   0.00000  Uiso   1.00
C93    C     0.65017   0.58215   0.06869   0.00000  Uiso   1.00
C94    C     0.62406   0.59563   0.15580   0.00000  Uiso   1.00
C95    C     0.59323   0.58107   0.14149   0.00000  Uiso   1.00
C96    C     0.57292   0.59730   0.23123   0.00000  Uiso   1.00
C97    C     0.53083   0.61377   0.35120   0.00000  Uiso   1.00
C98    C     0.66744   0.68772   0.06399   0.00000  Uiso   1.00
C99    C     0.67308   0.75058   0.97250   0.00000  Uiso   1.00
C100   C     0.68929   0.84432   0.98496   0.00000  Uiso   1.00
C101   C     0.71456   0.00372   0.96238   0.00000  Uiso   1.00
C102   C     0.67186   0.50059   0.11293   0.00000  Uiso   1.00
C103   C     0.68122   0.40611   0.06256   0.00000  Uiso   1.00
C104   C     0.70115   0.34231   0.11621   0.00000  Uiso   1.00
C105   C     0.73328   0.21116   0.16961   0.00000  Uiso   1.00
C106   C     0.66893   0.63685   0.25350   0.00000  Uiso   1.00
C107   C     0.63425   0.62535   0.25618   0.00000  Uiso   1.00
C108   C     0.61398   0.64159   0.34596   0.00000  Uiso   1.00
C109   C     0.58312   0.62706   0.33179   0.00000  Uiso   1.00
C110   C     0.67763   0.71743   0.16437   0.00000  Uiso   1.00
C111   C     0.69383   0.81110   0.17697   0.00000  Uiso   1.00
C112   C     0.69949   0.87409   0.08552   0.00000  Uiso   1.00
C113   C     0.68205   0.53030   0.21331   0.00000  Uiso   1.00
C114   C     0.70197   0.46663   0.26704   0.00000  Uiso   1.00
C115   C     0.71136   0.37208   0.21677   0.00000  Uiso   1.00
H116   H     0.64224   0.55902   0.99054   0.00000  Uiso   1.00
H117   H     0.58535   0.55809   0.06379   0.00000  Uiso   1.00
H118   H     0.66519   0.72756   0.89482   0.00000  Uiso   1.00
H119   H     0.67333   0.38315   0.98488   0.00000  Uiso   1.00
H120   H     0.52678   0.57020   0.18927   0.00000  Uiso   1.00
H121   H     0.69514   0.92752   0.83298   0.00000  Uiso   1.00
H122   H     0.71229   0.20126   0.02288   0.00000  Uiso   1.00
H123   H     0.67686   0.65998   0.33165   0.00000  Uiso   1.00
H124   H     0.62188   0.66458   0.42363   0.00000  Uiso   1.00
H125   H     0.70172   0.83406   0.25466   0.00000  Uiso   1.00
H126   H     0.70985   0.48965   0.34471   0.00000  Uiso   1.00
H127   H     0.55642   0.65664   0.48132   0.00000  Uiso   1.00
H128   H     0.72478   0.01396   0.12503   0.00000  Uiso   1.00
H129   H     0.74193   0.28770   0.31494   0.00000  Uiso   1.00
O130   O     0.50480   0.61466   0.38964   0.00000  Uiso   1.00
O131   O     0.72569   0.08344   0.92220   0.00000  Uiso   1.00
O132   O     0.74819   0.13060   0.17134   0.00000  Uiso   1.00
N133   N     0.54130   0.58989   0.24539   0.00000  Uiso   1.00
N134   N     0.69870   0.92398   0.91228   0.00000  Uiso   1.00
N135   N     0.71475   0.24499   0.08981   0.00000  Uiso   1.00
N136   N     0.55725   0.63640   0.40254   0.00000  Uiso   1.00
N137   N     0.71465   0.97049   0.06944   0.00000  Uiso   1.00
N138   N     0.73070   0.29150   0.24696   0.00000  Uiso   1.00
C139   C     0.15017   0.08215   0.06869   0.00000  Uiso   1.00
C140   C     0.12406   0.09563   0.15580   0.00000  Uiso   1.00
C141   C     0.09323   0.08107   0.14149   0.00000  Uiso   1.00
C142   C     0.07292   0.09730   0.23123   0.00000  Uiso   1.00
C143   C     0.03083   0.11377   0.35120   0.00000  Uiso   1.00
C144   C     0.16744   0.18772   0.06399   0.00000  Uiso   1.00
C145   C     0.17308   0.25058   0.97250   0.00000  Uiso   1.00
C146   C     0.18929   0.34432   0.98496   0.00000  Uiso   1.00
C147   C     0.21456   0.50372   0.96238   0.00000  Uiso   1.00
C148   C     0.17186   0.00059   0.11293   0.00000  Uiso   1.00
C149   C     0.18122   0.90611   0.06256   0.00000  Uiso   1.00
C150   C     0.20115   0.84231   0.11621   0.00000  Uiso   1.00
C151   C     0.23328   0.71116   0.16961   0.00000  Uiso   1.00
C152   C     0.16893   0.13685   0.25350   0.00000  Uiso   1.00
C153   C     0.13425   0.12535   0.25618   0.00000  Uiso   1.00
C154   C     0.11398   0.14159   0.34596   0.00000  Uiso   1.00
C155   C     0.08312   0.12706   0.33179   0.00000  Uiso   1.00
C156   C     0.17763   0.21743   0.16437   0.00000  Uiso   1.00
C157   C     0.19383   0.31110   0.17697   0.00000  Uiso   1.00
C158   C     0.19949   0.37409   0.08552   0.00000  Uiso   1.00
C159   C     0.18205   0.03030   0.21331   0.00000  Uiso   1.00
C160   C     0.20197   0.96663   0.26704   0.00000  Uiso   1.00
C161   C     0.21136   0.87208   0.21677   0.00000  Uiso   1.00
H162   H     0.14224   0.05902   0.99054   0.00000  Uiso   1.00
H163   H     0.08535   0.05809   0.06379   0.00000  Uiso   1.00
H164   H     0.16519   0.22756   0.89482   0.00000  Uiso   1.00
H165   H     0.17333   0.88315   0.98488   0.00000  Uiso   1.00
H166   H     0.02678   0.07020   0.18927   0.00000  Uiso   1.00
H167   H     0.19514   0.42752   0.83298   0.00000  Uiso   1.00
H168   H     0.21229   0.70126   0.02288   0.00000  Uiso   1.00
H169   H     0.17686   0.15998   0.33165   0.00000  Uiso   1.00
H170   H     0.12188   0.16458   0.42363   0.00000  Uiso   1.00
H171   H     0.20172   0.33406   0.25466   0.00000  Uiso   1.00
H172   H     0.20985   0.98965   0.34471   0.00000  Uiso   1.00
H173   H     0.05642   0.15664   0.48132   0.00000  Uiso   1.00
H174   H     0.22478   0.51396   0.12503   0.00000  Uiso   1.00
H175   H     0.24193   0.78770   0.31494   0.00000  Uiso   1.00
O176   O     0.00480   0.11466   0.38964   0.00000  Uiso   1.00
O177   O     0.22569   0.58344   0.92220   0.00000  Uiso   1.00
O178   O     0.24819   0.63060   0.17134   0.00000  Uiso   1.00
N179   N     0.04130   0.08989   0.24539   0.00000  Uiso   1.00
N180   N     0.19870   0.42398   0.91228   0.00000  Uiso   1.00
N181   N     0.21475   0.74499   0.08981   0.00000  Uiso   1.00
N182   N     0.05725   0.13640   0.40254   0.00000  Uiso   1.00
N183   N     0.21465   0.47049   0.06944   0.00000  Uiso   1.00
N184   N     0.23070   0.79150   0.24696   0.00000  Uiso   1.00
C185   C     0.65017   0.41785   0.56869   0.00000  Uiso   1.00
C186   C     0.62406   0.40437   0.65580   0.00000  Uiso   1.00
C187   C     0.59323   0.41893   0.64149   0.00000  Uiso   1.00
C188   C     0.57292   0.40270   0.73123   0.00000  Uiso   1.00
C189   C     0.53083   0.38623   0.85120   0.00000  Uiso   1.00
C190   C     0.66744   0.31228   0.56399   0.00000  Uiso   1.00
C191   C     0.67308   0.24942   0.47250   0.00000  Uiso   1.00
C192   C     0.68929   0.15568   0.48496   0.00000  Uiso   1.00
C193   C     0.71456   0.99628   0.46238   0.00000  Uiso   1.00
C194   C     0.67186   0.49941   0.61293   0.00000  Uiso   1.00
C195   C     0.68122   0.59389   0.56256   0.00000  Uiso   1.00
C196   C     0.70115   0.65769   0.61621   0.00000  Uiso   1.00
C197   C     0.73328   0.78884   0.66961   0.00000  Uiso   1.00
C198   C     0.66893   0.36315   0.75350   0.00000  Uiso   1.00
C199   C     0.63425   0.37465   0.75618   0.00000  Uiso   1.00
C200   C     0.61398   0.35841   0.84596   0.00000  Uiso   1.00
C201   C     0.58312   0.37294   0.83179   0.00000  Uiso   1.00
C202   C     0.67763   0.28257   0.66437   0.00000  Uiso   1.00
C203   C     0.69383   0.18890   0.67697   0.00000  Uiso   1.00
C204   C     0.69949   0.12591   0.58552   0.00000  Uiso   1.00
C205   C     0.68205   0.46970   0.71331   0.00000  Uiso   1.00
C206   C     0.70197   0.53337   0.76704   0.00000  Uiso   1.00
C207   C     0.71136   0.62792   0.71677   0.00000  Uiso   1.00
H208   H     0.64224   0.44098   0.49054   0.00000  Uiso   1.00
H209   H     0.58535   0.44191   0.56379   0.00000  Uiso   1.00
H210   H     0.66519   0.27244   0.39482   0.00000  Uiso   1.00
H211   H     0.67333   0.61685   0.48488   0.00000  Uiso   1.00
H212   H     0.52678   0.42980   0.68927   0.00000  Uiso   1.00
H213   H     0.69514   0.07248   0.33298   0.00000  Uiso   1.00
H214   H     0.71229   0.79874   0.52288   0.00000  Uiso   1.00
H215   H     0.67686   0.34002   0.83165   0.00000  Uiso   1.00
H216   H     0.62188   0.33542   0.92363   0.00000  Uiso   1.00
H217   H     0.70172   0.16594   0.75466   0.00000  Uiso   1.00
H218   H     0.70985   0.51035   0.84471   0.00000  Uiso   1.00
H219   H     0.55642   0.34336   0.98132   0.00000  Uiso   1.00
H220   H     0.72478   0.98604   0.62503   0.00000  Uiso   1.00
H221   H     0.74193   0.71230   0.81494   0.00000  Uiso   1.00
O222   O     0.50480   0.38534   0.88964   0.00000  Uiso   1.00
O223   O     0.72569   0.91656   0.42220   0.00000  Uiso   1.00
O224   O     0.74819   0.86940   0.67134   0.00000  Uiso   1.00
N225   N     0.54130   0.41011   0.74539   0.00000  Uiso   1.00
N226   N     0.69870   0.07602   0.41228   0.00000  Uiso   1.00
N227   N     0.71475   0.75501   0.58981   0.00000  Uiso   1.00
N228   N     0.55725   0.36360   0.90254   0.00000  Uiso   1.00
N229   N     0.71465   0.02951   0.56944   0.00000  Uiso   1.00
N230   N     0.73070   0.70850   0.74696   0.00000  Uiso   1.00
C231   C     0.15017   0.91785   0.56869   0.00000  Uiso   1.00
C232   C     0.12406   0.90437   0.65580   0.00000  Uiso   1.00
C233   C     0.09323   0.91893   0.64149   0.00000  Uiso   1.00
C234   C     0.07292   0.90270   0.73123   0.00000  Uiso   1.00
C235   C     0.03083   0.88623   0.85120   0.00000  Uiso   1.00
C236   C     0.16744   0.81228   0.56399   0.00000  Uiso   1.00
C237   C     0.17308   0.74942   0.47250   0.00000  Uiso   1.00
C238   C     0.18929   0.65568   0.48496   0.00000  Uiso   1.00
C239   C     0.21456   0.49628   0.46238   0.00000  Uiso   1.00
C240   C     0.17186   0.99941   0.61293   0.00000  Uiso   1.00
C241   C     0.18122   0.09389   0.56256   0.00000  Uiso   1.00
C242   C     0.20115   0.15769   0.61621   0.00000  Uiso   1.00
C243   C     0.23328   0.28884   0.66961   0.00000  Uiso   1.00
C244   C     0.16893   0.86315   0.75350   0.00000  Uiso   1.00
C245   C     0.13425   0.87465   0.75618   0.00000  Uiso   1.00
C246   C     0.11398   0.85841   0.84596   0.00000  Uiso   1.00
C247   C     0.08312   0.87294   0.83179   0.00000  Uiso   1.00
C248   C     0.17763   0.78257   0.66437   0.00000  Uiso   1.00
C249   C     0.19383   0.68890   0.67697   0.00000  Uiso   1.00
C250   C     0.19949   0.62591   0.58552   0.00000  Uiso   1.00
C251   C     0.18205   0.96970   0.71331   0.00000  Uiso   1.00
C252   C     0.20197   0.03337   0.76704   0.00000  Uiso   1.00
C253   C     0.21136   0.12792   0.71677   0.00000  Uiso   1.00
H254   H     0.14224   0.94098   0.49054   0.00000  Uiso   1.00
H255   H     0.08535   0.94191   0.56379   0.00000  Uiso   1.00
H256   H     0.16519   0.77244   0.39482   0.00000  Uiso   1.00
H257   H     0.17333   0.11685   0.48488   0.00000  Uiso   1.00
H258   H     0.02678   0.92980   0.68927   0.00000  Uiso   1.00
H259   H     0.19514   0.57248   0.33298   0.00000  Uiso   1.00
H260   H     0.21229   0.29874   0.52288   0.00000  Uiso   1.00
H261   H     0.17686   0.84002   0.83165   0.00000  Uiso   1.00
H262   H     0.12188   0.83542   0.92363   0.00000  Uiso   1.00
H263   H     0.20172   0.66594   0.75466   0.00000  Uiso   1.00
H264   H     0.20985   0.01035   0.84471   0.00000  Uiso   1.00
H265   H     0.05642   0.84336   0.98132   0.00000  Uiso   1.00
H266   H     0.22478   0.48604   0.62503   0.00000  Uiso   1.00
H267   H     0.24193   0.21230   0.81494   0.00000  Uiso   1.00
O268   O     0.00480   0.88534   0.88964   0.00000  Uiso   1.00
O269   O     0.22569   0.41656   0.42220   0.00000  Uiso   1.00
O270   O     0.24819   0.36940   0.67134   0.00000  Uiso   1.00
N271   N     0.04130   0.91011   0.74539   0.00000  Uiso   1.00
N272   N     0.19870   0.57602   0.41228   0.00000  Uiso   1.00
N273   N     0.21475   0.25501   0.58981   0.00000  Uiso   1.00
N274   N     0.05725   0.86360   0.90254   0.00000  Uiso   1.00
N275   N     0.21465   0.52951   0.56944   0.00000  Uiso   1.00
N276   N     0.23070   0.20850   0.74696   0.00000  Uiso   1.00
C277   C     0.34983   0.41785   0.93131   0.00000  Uiso   1.00
C278   C     0.37594   0.40437   0.84420   0.00000  Uiso   1.00
C279   C     0.40677   0.41893   0.85851   0.00000  Uiso   1.00
C280   C     0.42708   0.40270   0.76877   0.00000  Uiso   1.00
C281   C     0.46917   0.38623   0.64880   0.00000  Uiso   1.00
C282   C     0.33256   0.31228   0.93601   0.00000  Uiso   1.00
C283   C     0.32692   0.24942   0.02750   0.00000  Uiso   1.00
C284   C     0.31071   0.15568   0.01504   0.00000  Uiso   1.00
C285   C     0.28544   0.99628   0.03762   0.00000  Uiso   1.00
C286   C     0.32814   0.49941   0.88707   0.00000  Uiso   1.00
C287   C     0.31878   0.59389   0.93744   0.00000  Uiso   1.00
C288   C     0.29885   0.65769   0.88379   0.00000  Uiso   1.00
C289   C     0.26672   0.78884   0.83039   0.00000  Uiso   1.00
C290   C     0.33107   0.36315   0.74650   0.00000  Uiso   1.00
C291   C     0.36575   0.37465   0.74382   0.00000  Uiso   1.00
C292   C     0.38602   0.35841   0.65404   0.00000  Uiso   1.00
C293   C     0.41688   0.37294   0.66821   0.00000  Uiso   1.00
C294   C     0.32237   0.28257   0.83563   0.00000  Uiso   1.00
C295   C     0.30617   0.18890   0.82303   0.00000  Uiso   1.00
C296   C     0.30051   0.12591   0.91448   0.00000  Uiso   1.00
C297   C     0.31795   0.46970   0.78669   0.00000  Uiso   1.00
C298   C     0.29803   0.53337   0.73296   0.00000  Uiso   1.00
C299   C     0.28864   0.62792   0.78323   0.00000  Uiso   1.00
H300   H     0.35776   0.44098   0.00946   0.00000  Uiso   1.00
H301   H     0.41465   0.44191   0.93621   0.00000  Uiso   1.00
H302   H     0.33481   0.27244   0.10518   0.00000  Uiso   1.00
H303   H     0.32667   0.61685   0.01512   0.00000  Uiso   1.00
H304   H     0.47322   0.42980   0.81073   0.00000  Uiso   1.00
H305   H     0.30486   0.07248   0.16702   0.00000  Uiso   1.00
H306   H     0.28771   0.79874   0.97712   0.00000  Uiso   1.00
H307   H     0.32314   0.34002   0.66835   0.00000  Uiso   1.00
H308   H     0.37812   0.33542   0.57637   0.00000  Uiso   1.00
H309   H     0.29828   0.16594   0.74534   0.00000  Uiso   1.00
H310   H     0.29015   0.51035   0.65529   0.00000  Uiso   1.00
H311   H     0.44358   0.34336   0.51868   0.00000  Uiso   1.00
H312   H     0.27522   0.98604   0.87497   0.00000  Uiso   1.00
H313   H     0.25807   0.71230   0.68506   0.00000  Uiso   1.00
O314   O     0.49520   0.38534   0.61036   0.00000  Uiso   1.00
O315   O     0.27431   0.91656   0.07780   0.00000  Uiso   1.00
O316   O     0.25181   0.86940   0.82866   0.00000  Uiso   1.00
N317   N     0.45870   0.41011   0.75461   0.00000  Uiso   1.00
N318   N     0.30130   0.07602   0.08772   0.00000  Uiso   1.00
N319   N     0.28525   0.75501   0.91019   0.00000  Uiso   1.00
N320   N     0.44275   0.36360   0.59746   0.00000  Uiso   1.00
N321   N     0.28535   0.02951   0.93056   0.00000  Uiso   1.00
N322   N     0.26930   0.70850   0.75304   0.00000  Uiso   1.00
C323   C     0.84983   0.91785   0.93131   0.00000  Uiso   1.00
C324   C     0.87594   0.90437   0.84420   0.00000  Uiso   1.00
C325   C     0.90677   0.91893   0.85851   0.00000  Uiso   1.00
C326   C     0.92708   0.90270   0.76877   0.00000  Uiso   1.00
C327   C     0.96917   0.88623   0.64880   0.00000  Uiso   1.00
C328   C     0.83256   0.81228   0.93601   0.00000  Uiso   1.00
C329   C     0.82692   0.74942   0.02750   0.00000  Uiso   1.00
C330   C     0.81071   0.65568   0.01504   0.00000  Uiso   1.00
C331   C     0.78544   0.49628   0.03762   0.00000  Uiso   1.00
C332   C     0.82814   0.99941   0.88707   0.00000  Uiso   1.00
C333   C     0.81878   0.09389   0.93744   0.00000  Uiso   1.00
C334   C     0.79885   0.15769   0.88379   0.00000  Uiso   1.00
C335   C     0.76672   0.28884   0.83039   0.00000  Uiso   1.00
C336   C     0.83107   0.86315   0.74650   0.00000  Uiso   1.00
C337   C     0.86575   0.87465   0.74382   0.00000  Uiso   1.00
C338   C     0.88602   0.85841   0.65404   0.00000  Uiso   1.00
C339   C     0.91688   0.87294   0.66821   0.00000  Uiso   1.00
C340   C     0.82237   0.78257   0.83563   0.00000  Uiso   1.00
C341   C     0.80617   0.68890   0.82303   0.00000  Uiso   1.00
C342   C     0.80051   0.62591   0.91448   0.00000  Uiso   1.00
C343   C     0.81795   0.96970   0.78669   0.00000  Uiso   1.00
C344   C     0.79803   0.03337   0.73296   0.00000  Uiso   1.00
C345   C     0.78864   0.12792   0.78323   0.00000  Uiso   1.00
H346   H     0.85776   0.94098   0.00946   0.00000  Uiso   1.00
H347   H     0.91465   0.94191   0.93621   0.00000  Uiso   1.00
H348   H     0.83481   0.77244   0.10518   0.00000  Uiso   1.00
H349   H     0.82667   0.11685   0.01512   0.00000  Uiso   1.00
H350   H     0.97322   0.92980   0.81073   0.00000  Uiso   1.00
H351   H     0.80486   0.57248   0.16702   0.00000  Uiso   1.00
H352   H     0.78771   0.29874   0.97712   0.00000  Uiso   1.00
H353   H     0.82314   0.84002   0.66835   0.00000  Uiso   1.00
H354   H     0.87812   0.83542   0.57637   0.00000  Uiso   1.00
H355   H     0.79828   0.66594   0.74534   0.00000  Uiso   1.00
H356   H     0.79015   0.01035   0.65529   0.00000  Uiso   1.00
H357   H     0.94358   0.84336   0.51868   0.00000  Uiso   1.00
H358   H     0.77522   0.48604   0.87497   0.00000  Uiso   1.00
H359   H     0.75807   0.21230   0.68506   0.00000  Uiso   1.00
O360   O     0.99520   0.88534   0.61036   0.00000  Uiso   1.00
O361   O     0.77431   0.41656   0.07780   0.00000  Uiso   1.00
O362   O     0.75181   0.36940   0.82866   0.00000  Uiso   1.00
N363   N     0.95870   0.91011   0.75461   0.00000  Uiso   1.00
N364   N     0.80130   0.57602   0.08772   0.00000  Uiso   1.00
N365   N     0.78525   0.25501   0.91019   0.00000  Uiso   1.00
N366   N     0.94275   0.86360   0.59746   0.00000  Uiso   1.00
N367   N     0.78535   0.52951   0.93056   0.00000  Uiso   1.00
N368   N     0.76930   0.20850   0.75304   0.00000  Uiso   1.00
