data_job_01106
_audit_creation_date              2018-12-19
_audit_creation_method            'Materials Studio'
_symmetry_space_group_name_H-M    'P1'
_symmetry_Int_Tables_number       1
_symmetry_cell_setting            triclinic
loop_
_symmetry_equiv_pos_as_xyz
  x,y,z
_cell_length_a                    13.9984
_cell_length_b                    13.6046
_cell_length_c                    12.4289
_cell_angle_alpha                 90.0000
_cell_angle_beta                  83.4855
_cell_angle_gamma                 90.0000
loop_
_atom_site_label
_atom_site_type_symbol
_atom_site_fract_x
_atom_site_fract_y
_atom_site_fract_z
_atom_site_U_iso_or_equiv
_atom_site_adp_type
_atom_site_occupancy
C1     C     0.01375   0.49052   0.47730   0.00000  Uiso   1.00
C2     C     0.90443   0.48285   0.49558   0.00000  Uiso   1.00
C3     C     0.84020   0.55775   0.47969   0.00000  Uiso   1.00
C4     C     0.74297   0.53605   0.50096   0.00000  Uiso   1.00
C5     C     0.57806   0.53836   0.52394   0.00000  Uiso   1.00
C6     C     0.04956   0.46177   0.58433   0.00000  Uiso   1.00
C7     C     0.10738   0.51893   0.64304   0.00000  Uiso   1.00
C8     C     0.13234   0.47948   0.73902   0.00000  Uiso   1.00
C9     C     0.19281   0.44901   0.89975   0.00000  Uiso   1.00
C10    C     0.04720   0.40926   0.39726   0.00000  Uiso   1.00
C11    C     0.10304   0.42227   0.29869   0.00000  Uiso   1.00
C12    C     0.12603   0.33861   0.23717   0.00000  Uiso   1.00
C13    C     0.18282   0.22663   0.10743   0.00000  Uiso   1.00
C14    C     0.95530   0.31881   0.54334   0.00000  Uiso   1.00
C15    C     0.87268   0.38959   0.53146   0.00000  Uiso   1.00
C16    C     0.77553   0.36777   0.55275   0.00000  Uiso   1.00
C17    C     0.71117   0.44262   0.53689   0.00000  Uiso   1.00
C18    C     0.01782   0.36851   0.62021   0.00000  Uiso   1.00
C19    C     0.04271   0.32896   0.71611   0.00000  Uiso   1.00
C20    C     0.10054   0.38604   0.77496   0.00000  Uiso   1.00
C21    C     0.01545   0.31600   0.43313   0.00000  Uiso   1.00
C22    C     0.03837   0.23230   0.37176   0.00000  Uiso   1.00
C23    C     0.09423   0.24518   0.27311   0.00000  Uiso   1.00
H24    H     0.03846   0.56313   0.44938   0.00000  Uiso   1.00
H25    H     0.86479   0.62992   0.45193   0.00000  Uiso   1.00
H26    H     0.13194   0.59109   0.61526   0.00000  Uiso   1.00
H27    H     0.12759   0.49445   0.27095   0.00000  Uiso   1.00
H28    H     0.65824   0.66284   0.47062   0.00000  Uiso   1.00
H29    H     0.22156   0.58098   0.81499   0.00000  Uiso   1.00
H30    H     0.21241   0.37719   0.08895   0.00000  Uiso   1.00
H31    H     0.93059   0.24620   0.57127   0.00000  Uiso   1.00
H32    H     0.75099   0.29559   0.58051   0.00000  Uiso   1.00
H33    H     0.01814   0.25678   0.74384   0.00000  Uiso   1.00
H34    H     0.01379   0.16014   0.39954   0.00000  Uiso   1.00
H35    H     0.56587   0.39150   0.57499   0.00000  Uiso   1.00
H36    H     0.12920   0.30963   0.91935   0.00000  Uiso   1.00
H37    H     0.12004   0.10585   0.19332   0.00000  Uiso   1.00
O38    O     0.49586   0.56539   0.52672   0.00000  Uiso   1.00
O39    O     0.23493   0.45798   0.97850   0.00000  Uiso   1.00
O40    O     0.22291   0.19062   0.02596   0.00000  Uiso   1.00
N41    N     0.66115   0.59220   0.49390   0.00000  Uiso   1.00
N42    N     0.18781   0.51567   0.81587   0.00000  Uiso   1.00
N43    N     0.17927   0.32514   0.13710   0.00000  Uiso   1.00
N44    N     0.61145   0.44619   0.55005   0.00000  Uiso   1.00
N45    N     0.13811   0.36966   0.87202   0.00000  Uiso   1.00
N46    N     0.12957   0.17913   0.19325   0.00000  Uiso   1.00
C47    C     0.45537   0.96999   0.04309   0.00000  Uiso   1.00
C48    C     0.37273   0.89924   0.03119   0.00000  Uiso   1.00
C49    C     0.27559   0.92110   0.05245   0.00000  Uiso   1.00
C50    C     0.21120   0.84629   0.03655   0.00000  Uiso   1.00
C51    C     0.07805   0.75064   0.02348   0.00000  Uiso   1.00
C52    C     0.51552   0.97278   0.93287   0.00000  Uiso   1.00
C53    C     0.53844   0.05647   0.87147   0.00000  Uiso   1.00
C54    C     0.59427   0.04357   0.77281   0.00000  Uiso   1.00
C55    C     0.68287   0.06209   0.60713   0.00000  Uiso   1.00
C56    C     0.51788   0.92028   0.11995   0.00000  Uiso   1.00
C57    C     0.54281   0.95983   0.21584   0.00000  Uiso   1.00
C58    C     0.60064   0.90273   0.27467   0.00000  Uiso   1.00
C59    C     0.69289   0.83974   0.39945   0.00000  Uiso   1.00
C60    C     0.51377   0.79827   0.97706   0.00000  Uiso   1.00
C61    C     0.40445   0.80597   0.99532   0.00000  Uiso   1.00
C62    C     0.34019   0.73111   0.97939   0.00000  Uiso   1.00
C63    C     0.24297   0.75285   0.00062   0.00000  Uiso   1.00
C64    C     0.54724   0.87951   0.89700   0.00000  Uiso   1.00
C65    C     0.60305   0.86648   0.79842   0.00000  Uiso   1.00
C66    C     0.62605   0.95013   0.73688   0.00000  Uiso   1.00
C67    C     0.54959   0.82700   0.08408   0.00000  Uiso   1.00
C68    C     0.60741   0.76984   0.14278   0.00000  Uiso   1.00
C69    C     0.63241   0.80929   0.23874   0.00000  Uiso   1.00
H70    H     0.43068   0.04261   0.07101   0.00000  Uiso   1.00
H71    H     0.25107   0.99330   0.08020   0.00000  Uiso   1.00
H72    H     0.51390   0.12864   0.89926   0.00000  Uiso   1.00
H73    H     0.51825   0.03202   0.24357   0.00000  Uiso   1.00
H74    H     0.06592   0.89750   0.07453   0.00000  Uiso   1.00
H75    H     0.62013   0.18289   0.69302   0.00000  Uiso   1.00
H76    H     0.62932   0.97913   0.41906   0.00000  Uiso   1.00
H77    H     0.53846   0.72565   0.94913   0.00000  Uiso   1.00
H78    H     0.36476   0.65894   0.95163   0.00000  Uiso   1.00
H79    H     0.62759   0.79429   0.77069   0.00000  Uiso   1.00
H80    H     0.63194   0.69766   0.11500   0.00000  Uiso   1.00
H81    H     0.15820   0.62612   0.97017   0.00000  Uiso   1.00
H82    H     0.71242   0.91152   0.58867   0.00000  Uiso   1.00
H83    H     0.72159   0.70776   0.31471   0.00000  Uiso   1.00
O84    O     0.99585   0.72365   0.02616   0.00000  Uiso   1.00
O85    O     0.72297   0.09808   0.52565   0.00000  Uiso   1.00
O86    O     0.73501   0.83076   0.47820   0.00000  Uiso   1.00
N87    N     0.11148   0.84278   0.04964   0.00000  Uiso   1.00
N88    N     0.62962   0.10960   0.69295   0.00000  Uiso   1.00
N89    N     0.63823   0.91912   0.37172   0.00000  Uiso   1.00
N90    N     0.16113   0.69675   0.99349   0.00000  Uiso   1.00
N91    N     0.67927   0.96358   0.63680   0.00000  Uiso   1.00
N92    N     0.68788   0.77309   0.31557   0.00000  Uiso   1.00
C93    C     0.98625   0.99052   0.52270   0.00000  Uiso   1.00
C94    C     0.09557   0.98285   0.50442   0.00000  Uiso   1.00
C95    C     0.15980   0.05775   0.52031   0.00000  Uiso   1.00
C96    C     0.25703   0.03605   0.49904   0.00000  Uiso   1.00
C97    C     0.42194   0.03836   0.47606   0.00000  Uiso   1.00
C98    C     0.95044   0.96177   0.41567   0.00000  Uiso   1.00
C99    C     0.89262   0.01893   0.35696   0.00000  Uiso   1.00
C100   C     0.86766   0.97948   0.26098   0.00000  Uiso   1.00
C101   C     0.80719   0.94901   0.10025   0.00000  Uiso   1.00
C102   C     0.95280   0.90926   0.60274   0.00000  Uiso   1.00
C103   C     0.89696   0.92227   0.70131   0.00000  Uiso   1.00
C104   C     0.87397   0.83861   0.76283   0.00000  Uiso   1.00
C105   C     0.81718   0.72663   0.89257   0.00000  Uiso   1.00
C106   C     0.04470   0.81881   0.45666   0.00000  Uiso   1.00
C107   C     0.12732   0.88959   0.46854   0.00000  Uiso   1.00
C108   C     0.22447   0.86777   0.44725   0.00000  Uiso   1.00
C109   C     0.28883   0.94262   0.46311   0.00000  Uiso   1.00
C110   C     0.98218   0.86851   0.37979   0.00000  Uiso   1.00
C111   C     0.95729   0.82896   0.28389   0.00000  Uiso   1.00
C112   C     0.89946   0.88604   0.22504   0.00000  Uiso   1.00
C113   C     0.98455   0.81600   0.56687   0.00000  Uiso   1.00
C114   C     0.96163   0.73230   0.62824   0.00000  Uiso   1.00
C115   C     0.90577   0.74518   0.72689   0.00000  Uiso   1.00
H116   H     0.96154   0.06313   0.55062   0.00000  Uiso   1.00
H117   H     0.13521   0.12992   0.54807   0.00000  Uiso   1.00
H118   H     0.86806   0.09109   0.38474   0.00000  Uiso   1.00
H119   H     0.87241   0.99445   0.72905   0.00000  Uiso   1.00
H120   H     0.34176   0.16284   0.52938   0.00000  Uiso   1.00
H121   H     0.77844   0.08098   0.18501   0.00000  Uiso   1.00
H122   H     0.78759   0.87719   0.91105   0.00000  Uiso   1.00
H123   H     0.06941   0.74620   0.42873   0.00000  Uiso   1.00
H124   H     0.24901   0.79559   0.41949   0.00000  Uiso   1.00
H125   H     0.98186   0.75678   0.25616   0.00000  Uiso   1.00
H126   H     0.98621   0.66014   0.60046   0.00000  Uiso   1.00
H127   H     0.43413   0.89150   0.42501   0.00000  Uiso   1.00
H128   H     0.87080   0.80963   0.08065   0.00000  Uiso   1.00
H129   H     0.87996   0.60585   0.80668   0.00000  Uiso   1.00
O130   O     0.50414   0.06539   0.47328   0.00000  Uiso   1.00
O131   O     0.76507   0.95798   0.02150   0.00000  Uiso   1.00
O132   O     0.77709   0.69062   0.97404   0.00000  Uiso   1.00
N133   N     0.33885   0.09220   0.50610   0.00000  Uiso   1.00
N134   N     0.81219   0.01567   0.18413   0.00000  Uiso   1.00
N135   N     0.82073   0.82514   0.86290   0.00000  Uiso   1.00
N136   N     0.38855   0.94619   0.44995   0.00000  Uiso   1.00
N137   N     0.86189   0.86966   0.12798   0.00000  Uiso   1.00
N138   N     0.87043   0.67913   0.80675   0.00000  Uiso   1.00
C139   C     0.54463   0.46999   0.95691   0.00000  Uiso   1.00
C140   C     0.62727   0.39924   0.96881   0.00000  Uiso   1.00
C141   C     0.72441   0.42110   0.94755   0.00000  Uiso   1.00
C142   C     0.78880   0.34629   0.96345   0.00000  Uiso   1.00
C143   C     0.92195   0.25064   0.97652   0.00000  Uiso   1.00
C144   C     0.48448   0.47278   0.06713   0.00000  Uiso   1.00
C145   C     0.46156   0.55647   0.12853   0.00000  Uiso   1.00
C146   C     0.40573   0.54357   0.22719   0.00000  Uiso   1.00
C147   C     0.31713   0.56209   0.39287   0.00000  Uiso   1.00
C148   C     0.48212   0.42028   0.88005   0.00000  Uiso   1.00
C149   C     0.45719   0.45983   0.78416   0.00000  Uiso   1.00
C150   C     0.39936   0.40273   0.72533   0.00000  Uiso   1.00
C151   C     0.30711   0.33974   0.60055   0.00000  Uiso   1.00
C152   C     0.48623   0.29827   0.02294   0.00000  Uiso   1.00
C153   C     0.59555   0.30597   0.00468   0.00000  Uiso   1.00
C154   C     0.65981   0.23111   0.02061   0.00000  Uiso   1.00
C155   C     0.75703   0.25285   0.99938   0.00000  Uiso   1.00
C156   C     0.45276   0.37951   0.10300   0.00000  Uiso   1.00
C157   C     0.39695   0.36648   0.20158   0.00000  Uiso   1.00
C158   C     0.37395   0.45013   0.26312   0.00000  Uiso   1.00
C159   C     0.45041   0.32700   0.91592   0.00000  Uiso   1.00
C160   C     0.39259   0.26984   0.85722   0.00000  Uiso   1.00
C161   C     0.36759   0.30929   0.76126   0.00000  Uiso   1.00
H162   H     0.56932   0.54261   0.92899   0.00000  Uiso   1.00
H163   H     0.74893   0.49330   0.91980   0.00000  Uiso   1.00
H164   H     0.48610   0.62864   0.10074   0.00000  Uiso   1.00
H165   H     0.48175   0.53202   0.75643   0.00000  Uiso   1.00
H166   H     0.93408   0.39750   0.92547   0.00000  Uiso   1.00
H167   H     0.37987   0.68289   0.30698   0.00000  Uiso   1.00
H168   H     0.37068   0.47913   0.58094   0.00000  Uiso   1.00
H169   H     0.46154   0.22565   0.05087   0.00000  Uiso   1.00
H170   H     0.63524   0.15894   0.04837   0.00000  Uiso   1.00
H171   H     0.37241   0.29429   0.22931   0.00000  Uiso   1.00
H172   H     0.36806   0.19766   0.88500   0.00000  Uiso   1.00
H173   H     0.84180   0.12612   0.02983   0.00000  Uiso   1.00
H174   H     0.28758   0.41152   0.41133   0.00000  Uiso   1.00
H175   H     0.27841   0.20776   0.68529   0.00000  Uiso   1.00
O176   O     0.00415   0.22365   0.97384   0.00000  Uiso   1.00
O177   O     0.27703   0.59808   0.47435   0.00000  Uiso   1.00
O178   O     0.26499   0.33076   0.52180   0.00000  Uiso   1.00
N179   N     0.88852   0.34278   0.95036   0.00000  Uiso   1.00
N180   N     0.37038   0.60960   0.30705   0.00000  Uiso   1.00
N181   N     0.36177   0.41912   0.62828   0.00000  Uiso   1.00
N182   N     0.83887   0.19675   0.00651   0.00000  Uiso   1.00
N183   N     0.32073   0.46358   0.36320   0.00000  Uiso   1.00
N184   N     0.31212   0.27309   0.68443   0.00000  Uiso   1.00
