data_job_00675
_audit_creation_date              2018-12-19
_audit_creation_method            'Materials Studio'
_symmetry_space_group_name_H-M    'P1'
_symmetry_Int_Tables_number       1
_symmetry_cell_setting            triclinic
loop_
_symmetry_equiv_pos_as_xyz
  x,y,z
_cell_length_a                    15.2282
_cell_length_b                    12.6217
_cell_length_c                    20.8389
_cell_angle_alpha                 90.0000
_cell_angle_beta                  129.6441
_cell_angle_gamma                 90.0000
loop_
_atom_site_label
_atom_site_type_symbol
_atom_site_fract_x
_atom_site_fract_y
_atom_site_fract_z
_atom_site_U_iso_or_equiv
_atom_site_adp_type
_atom_site_occupancy
C1     C     0.27261   0.31651   0.33306   0.00000  Uiso   1.00
C2     C     0.39159   0.28319   0.41011   0.00000  Uiso   1.00
C3     C     0.49360   0.31961   0.43210   0.00000  Uiso   1.00
C4     C     0.59339   0.27947   0.50498   0.00000  Uiso   1.00
C5     C     0.77848   0.23894   0.61714   0.00000  Uiso   1.00
C6     C     0.21066   0.21458   0.28605   0.00000  Uiso   1.00
C7     C     0.16054   0.19333   0.20373   0.00000  Uiso   1.00
C8     C     0.10802   0.09543   0.17218   0.00000  Uiso   1.00
C9     C     0.01214   0.94842   0.09171   0.00000  Uiso   1.00
C10    C     0.21273   0.35851   0.36490   0.00000  Uiso   1.00
C11    C     0.16431   0.45825   0.34887   0.00000  Uiso   1.00
C12    C     0.11350   0.48152   0.38369   0.00000  Uiso   1.00
C13    C     0.02082   0.55797   0.42566   0.00000  Uiso   1.00
C14    C     0.26844   0.18045   0.42337   0.00000  Uiso   1.00
C15    C     0.38932   0.20929   0.45916   0.00000  Uiso   1.00
C16    C     0.48899   0.16908   0.53203   0.00000  Uiso   1.00
C17    C     0.59113   0.20544   0.55413   0.00000  Uiso   1.00
C18    C     0.20840   0.14068   0.33510   0.00000  Uiso   1.00
C19    C     0.15593   0.04280   0.30366   0.00000  Uiso   1.00
C20    C     0.10575   0.02140   0.22132   0.00000  Uiso   1.00
C21    C     0.21047   0.28461   0.41396   0.00000  Uiso   1.00
C22    C     0.15971   0.30772   0.44880   0.00000  Uiso   1.00
C23    C     0.11123   0.40748   0.43284   0.00000  Uiso   1.00
H24    H     0.27437   0.37404   0.29486   0.00000  Uiso   1.00
H25    H     0.49532   0.37680   0.39412   0.00000  Uiso   1.00
H26    H     0.16230   0.25054   0.16579   0.00000  Uiso   1.00
H27    H     0.16608   0.51542   0.31091   0.00000  Uiso   1.00
H28    H     0.73927   0.34724   0.52578   0.00000  Uiso   1.00
H29    H     0.03705   0.08103   0.04432   0.00000  Uiso   1.00
H30    H     0.04502   0.63958   0.35034   0.00000  Uiso   1.00
H31    H     0.26668   0.12291   0.46156   0.00000  Uiso   1.00
H32    H     0.48721   0.11189   0.56997   0.00000  Uiso   1.00
H33    H     0.15419   0.98563   0.34164   0.00000  Uiso   1.00
H34    H     0.15797   0.25051   0.48676   0.00000  Uiso   1.00
H35    H     0.73270   0.13222   0.66851   0.00000  Uiso   1.00
H36    H     0.03047   0.86601   0.18704   0.00000  Uiso   1.00
H37    H     0.03844   0.42457   0.49307   0.00000  Uiso   1.00
O38    O     0.88119   0.23699   0.66544   0.00000  Uiso   1.00
O39    O     0.95989   0.88774   0.03378   0.00000  Uiso   1.00
O40    O     0.97035   0.62055   0.43527   0.00000  Uiso   1.00
N41    N     0.70746   0.29816   0.54451   0.00000  Uiso   1.00
N42    N     0.05094   0.04927   0.09437   0.00000  Uiso   1.00
N43    N     0.05836   0.57146   0.38045   0.00000  Uiso   1.00
N44    N     0.70392   0.18247   0.62131   0.00000  Uiso   1.00
N45    N     0.04740   0.93357   0.17117   0.00000  Uiso   1.00
N46    N     0.05482   0.45576   0.45725   0.00000  Uiso   1.00
C47    C     0.72739   0.31651   0.16694   0.00000  Uiso   1.00
C48    C     0.60841   0.28319   0.08989   0.00000  Uiso   1.00
C49    C     0.50640   0.31961   0.06790   0.00000  Uiso   1.00
C50    C     0.40661   0.27947   0.99502   0.00000  Uiso   1.00
C51    C     0.22152   0.23894   0.88286   0.00000  Uiso   1.00
C52    C     0.78934   0.21458   0.21395   0.00000  Uiso   1.00
C53    C     0.83946   0.19333   0.29627   0.00000  Uiso   1.00
C54    C     0.89198   0.09543   0.32782   0.00000  Uiso   1.00
C55    C     0.98786   0.94842   0.40829   0.00000  Uiso   1.00
C56    C     0.78727   0.35851   0.13510   0.00000  Uiso   1.00
C57    C     0.83569   0.45825   0.15113   0.00000  Uiso   1.00
C58    C     0.88650   0.48152   0.11631   0.00000  Uiso   1.00
C59    C     0.97918   0.55797   0.07434   0.00000  Uiso   1.00
C60    C     0.73156   0.18045   0.07663   0.00000  Uiso   1.00
C61    C     0.61068   0.20929   0.04084   0.00000  Uiso   1.00
C62    C     0.51101   0.16908   0.96797   0.00000  Uiso   1.00
C63    C     0.40887   0.20544   0.94587   0.00000  Uiso   1.00
C64    C     0.79160   0.14068   0.16490   0.00000  Uiso   1.00
C65    C     0.84407   0.04280   0.19634   0.00000  Uiso   1.00
C66    C     0.89425   0.02140   0.27868   0.00000  Uiso   1.00
C67    C     0.78953   0.28461   0.08604   0.00000  Uiso   1.00
C68    C     0.84029   0.30772   0.05120   0.00000  Uiso   1.00
C69    C     0.88877   0.40748   0.06716   0.00000  Uiso   1.00
H70    H     0.72563   0.37404   0.20514   0.00000  Uiso   1.00
H71    H     0.50468   0.37680   0.10588   0.00000  Uiso   1.00
H72    H     0.83770   0.25054   0.33421   0.00000  Uiso   1.00
H73    H     0.83392   0.51542   0.18909   0.00000  Uiso   1.00
H74    H     0.26073   0.34724   0.97422   0.00000  Uiso   1.00
H75    H     0.96295   0.08103   0.45568   0.00000  Uiso   1.00
H76    H     0.95498   0.63958   0.14966   0.00000  Uiso   1.00
H77    H     0.73332   0.12291   0.03844   0.00000  Uiso   1.00
H78    H     0.51279   0.11189   0.93003   0.00000  Uiso   1.00
H79    H     0.84581   0.98563   0.15836   0.00000  Uiso   1.00
H80    H     0.84203   0.25051   0.01324   0.00000  Uiso   1.00
H81    H     0.26730   0.13222   0.83149   0.00000  Uiso   1.00
H82    H     0.96953   0.86601   0.31296   0.00000  Uiso   1.00
H83    H     0.96156   0.42457   0.00693   0.00000  Uiso   1.00
O84    O     0.11881   0.23699   0.83456   0.00000  Uiso   1.00
O85    O     0.04011   0.88774   0.46622   0.00000  Uiso   1.00
O86    O     0.02965   0.62055   0.06473   0.00000  Uiso   1.00
N87    N     0.29254   0.29816   0.95549   0.00000  Uiso   1.00
N88    N     0.94906   0.04927   0.40563   0.00000  Uiso   1.00
N89    N     0.94164   0.57146   0.11955   0.00000  Uiso   1.00
N90    N     0.29608   0.18247   0.87869   0.00000  Uiso   1.00
N91    N     0.95260   0.93357   0.32883   0.00000  Uiso   1.00
N92    N     0.94518   0.45576   0.04275   0.00000  Uiso   1.00
C93    C     0.72739   0.68349   0.66694   0.00000  Uiso   1.00
C94    C     0.60841   0.71681   0.58989   0.00000  Uiso   1.00
C95    C     0.50640   0.68039   0.56790   0.00000  Uiso   1.00
C96    C     0.40661   0.72053   0.49502   0.00000  Uiso   1.00
C97    C     0.22152   0.76106   0.38286   0.00000  Uiso   1.00
C98    C     0.78934   0.78542   0.71395   0.00000  Uiso   1.00
C99    C     0.83946   0.80667   0.79627   0.00000  Uiso   1.00
C100   C     0.89198   0.90457   0.82782   0.00000  Uiso   1.00
C101   C     0.98786   0.05158   0.90829   0.00000  Uiso   1.00
C102   C     0.78727   0.64149   0.63510   0.00000  Uiso   1.00
C103   C     0.83569   0.54175   0.65113   0.00000  Uiso   1.00
C104   C     0.88650   0.51848   0.61631   0.00000  Uiso   1.00
C105   C     0.97918   0.44203   0.57434   0.00000  Uiso   1.00
C106   C     0.73156   0.81955   0.57663   0.00000  Uiso   1.00
C107   C     0.61068   0.79071   0.54084   0.00000  Uiso   1.00
C108   C     0.51101   0.83092   0.46797   0.00000  Uiso   1.00
C109   C     0.40887   0.79456   0.44587   0.00000  Uiso   1.00
C110   C     0.79160   0.85932   0.66490   0.00000  Uiso   1.00
C111   C     0.84407   0.95720   0.69634   0.00000  Uiso   1.00
C112   C     0.89425   0.97860   0.77868   0.00000  Uiso   1.00
C113   C     0.78953   0.71539   0.58604   0.00000  Uiso   1.00
C114   C     0.84029   0.69228   0.55120   0.00000  Uiso   1.00
C115   C     0.88877   0.59252   0.56716   0.00000  Uiso   1.00
H116   H     0.72563   0.62596   0.70514   0.00000  Uiso   1.00
H117   H     0.50468   0.62320   0.60588   0.00000  Uiso   1.00
H118   H     0.83770   0.74946   0.83421   0.00000  Uiso   1.00
H119   H     0.83392   0.48458   0.68909   0.00000  Uiso   1.00
H120   H     0.26073   0.65276   0.47422   0.00000  Uiso   1.00
H121   H     0.96295   0.91897   0.95568   0.00000  Uiso   1.00
H122   H     0.95498   0.36042   0.64966   0.00000  Uiso   1.00
H123   H     0.73332   0.87709   0.53844   0.00000  Uiso   1.00
H124   H     0.51279   0.88811   0.43003   0.00000  Uiso   1.00
H125   H     0.84581   0.01437   0.65836   0.00000  Uiso   1.00
H126   H     0.84203   0.74949   0.51324   0.00000  Uiso   1.00
H127   H     0.26730   0.86778   0.33149   0.00000  Uiso   1.00
H128   H     0.96953   0.13399   0.81296   0.00000  Uiso   1.00
H129   H     0.96156   0.57543   0.50693   0.00000  Uiso   1.00
O130   O     0.11881   0.76301   0.33456   0.00000  Uiso   1.00
O131   O     0.04011   0.11226   0.96622   0.00000  Uiso   1.00
O132   O     0.02965   0.37945   0.56473   0.00000  Uiso   1.00
N133   N     0.29254   0.70184   0.45549   0.00000  Uiso   1.00
N134   N     0.94906   0.95073   0.90563   0.00000  Uiso   1.00
N135   N     0.94164   0.42854   0.61955   0.00000  Uiso   1.00
N136   N     0.29608   0.81753   0.37869   0.00000  Uiso   1.00
N137   N     0.95260   0.06643   0.82883   0.00000  Uiso   1.00
N138   N     0.94518   0.54424   0.54275   0.00000  Uiso   1.00
C139   C     0.27261   0.68349   0.83306   0.00000  Uiso   1.00
C140   C     0.39159   0.71681   0.91011   0.00000  Uiso   1.00
C141   C     0.49360   0.68039   0.93210   0.00000  Uiso   1.00
C142   C     0.59339   0.72053   0.00498   0.00000  Uiso   1.00
C143   C     0.77848   0.76106   0.11714   0.00000  Uiso   1.00
C144   C     0.21066   0.78542   0.78605   0.00000  Uiso   1.00
C145   C     0.16054   0.80667   0.70373   0.00000  Uiso   1.00
C146   C     0.10802   0.90457   0.67218   0.00000  Uiso   1.00
C147   C     0.01214   0.05158   0.59171   0.00000  Uiso   1.00
C148   C     0.21273   0.64149   0.86490   0.00000  Uiso   1.00
C149   C     0.16431   0.54175   0.84887   0.00000  Uiso   1.00
C150   C     0.11350   0.51848   0.88369   0.00000  Uiso   1.00
C151   C     0.02082   0.44203   0.92566   0.00000  Uiso   1.00
C152   C     0.26844   0.81955   0.92337   0.00000  Uiso   1.00
C153   C     0.38932   0.79071   0.95916   0.00000  Uiso   1.00
C154   C     0.48899   0.83092   0.03203   0.00000  Uiso   1.00
C155   C     0.59113   0.79456   0.05413   0.00000  Uiso   1.00
C156   C     0.20840   0.85932   0.83510   0.00000  Uiso   1.00
C157   C     0.15593   0.95720   0.80366   0.00000  Uiso   1.00
C158   C     0.10575   0.97860   0.72132   0.00000  Uiso   1.00
C159   C     0.21047   0.71539   0.91396   0.00000  Uiso   1.00
C160   C     0.15971   0.69228   0.94880   0.00000  Uiso   1.00
C161   C     0.11123   0.59252   0.93284   0.00000  Uiso   1.00
H162   H     0.27437   0.62596   0.79486   0.00000  Uiso   1.00
H163   H     0.49532   0.62320   0.89412   0.00000  Uiso   1.00
H164   H     0.16230   0.74946   0.66579   0.00000  Uiso   1.00
H165   H     0.16608   0.48458   0.81091   0.00000  Uiso   1.00
H166   H     0.73927   0.65276   0.02578   0.00000  Uiso   1.00
H167   H     0.03705   0.91897   0.54432   0.00000  Uiso   1.00
H168   H     0.04502   0.36042   0.85034   0.00000  Uiso   1.00
H169   H     0.26668   0.87709   0.96156   0.00000  Uiso   1.00
H170   H     0.48721   0.88811   0.06997   0.00000  Uiso   1.00
H171   H     0.15419   0.01437   0.84164   0.00000  Uiso   1.00
H172   H     0.15797   0.74949   0.98676   0.00000  Uiso   1.00
H173   H     0.73270   0.86778   0.16851   0.00000  Uiso   1.00
H174   H     0.03047   0.13399   0.68704   0.00000  Uiso   1.00
H175   H     0.03844   0.57543   0.99307   0.00000  Uiso   1.00
O176   O     0.88119   0.76301   0.16544   0.00000  Uiso   1.00
O177   O     0.95989   0.11226   0.53378   0.00000  Uiso   1.00
O178   O     0.97035   0.37945   0.93527   0.00000  Uiso   1.00
N179   N     0.70746   0.70184   0.04451   0.00000  Uiso   1.00
N180   N     0.05094   0.95073   0.59437   0.00000  Uiso   1.00
N181   N     0.05836   0.42854   0.88045   0.00000  Uiso   1.00
N182   N     0.70392   0.81753   0.12131   0.00000  Uiso   1.00
N183   N     0.04740   0.06643   0.67117   0.00000  Uiso   1.00
N184   N     0.05482   0.54424   0.95725   0.00000  Uiso   1.00
