data_job_04665
_audit_creation_date              2018-12-19
_audit_creation_method            'Materials Studio'
_symmetry_space_group_name_H-M    'P1'
_symmetry_Int_Tables_number       1
_symmetry_cell_setting            triclinic
loop_
_symmetry_equiv_pos_as_xyz
  x,y,z
_cell_length_a                    24.7588
_cell_length_b                    24.7588
_cell_length_c                    7.1534
_cell_angle_alpha                 90.0000
_cell_angle_beta                  90.0000
_cell_angle_gamma                 120.0000
loop_
_atom_site_label
_atom_site_type_symbol
_atom_site_fract_x
_atom_site_fract_y
_atom_site_fract_z
_atom_site_U_iso_or_equiv
_atom_site_adp_type
_atom_site_occupancy
C1     C     0.16124   0.80278   0.59965   0.00000  Uiso   1.00
C2     C     0.15093   0.74920   0.72770   0.00000  Uiso   1.00
C3     C     0.13264   0.68884   0.67107   0.00000  Uiso   1.00
C4     C     0.12575   0.64659   0.80968   0.00000  Uiso   1.00
C5     C     0.10802   0.56072   0.97986   0.00000  Uiso   1.00
C6     C     0.11887   0.82625   0.67326   0.00000  Uiso   1.00
C7     C     0.07363   0.83068   0.57083   0.00000  Uiso   1.00
C8     C     0.03975   0.85330   0.66361   0.00000  Uiso   1.00
C9     C     0.97228   0.88709   0.74922   0.00000  Uiso   1.00
C10    C     0.22783   0.85504   0.63571   0.00000  Uiso   1.00
C11    C     0.27420   0.88369   0.50170   0.00000  Uiso   1.00
C12    C     0.33206   0.93057   0.56286   0.00000  Uiso   1.00
C13    C     0.43377   0.00906   0.59018   0.00000  Uiso   1.00
C14    C     0.18152   0.83509   0.94653   0.00000  Uiso   1.00
C15    C     0.16194   0.76675   0.91612   0.00000  Uiso   1.00
C16    C     0.15507   0.72459   0.05485   0.00000  Uiso   1.00
C17    C     0.13678   0.66418   0.99843   0.00000  Uiso   1.00
C18    C     0.12988   0.84380   0.86166   0.00000  Uiso   1.00
C19    C     0.09606   0.86643   0.95461   0.00000  Uiso   1.00
C20    C     0.05078   0.87089   0.85236   0.00000  Uiso   1.00
C21    C     0.23884   0.87259   0.82412   0.00000  Uiso   1.00
C22    C     0.29663   0.91944   0.88550   0.00000  Uiso   1.00
C23    C     0.34309   0.94815   0.75161   0.00000  Uiso   1.00
H24    H     0.15267   0.78912   0.45297   0.00000  Uiso   1.00
H25    H     0.12412   0.67527   0.52524   0.00000  Uiso   1.00
H26    H     0.06512   0.81710   0.42502   0.00000  Uiso   1.00
H27    H     0.26567   0.87009   0.35591   0.00000  Uiso   1.00
H28    H     0.09730   0.55679   0.68848   0.00000  Uiso   1.00
H29    H     0.97292   0.85585   0.47713   0.00000  Uiso   1.00
H30    H     0.39580   0.96761   0.33140   0.00000  Uiso   1.00
H31    H     0.19009   0.84876   0.09323   0.00000  Uiso   1.00
H32    H     0.16360   0.73818   0.20065   0.00000  Uiso   1.00
H33    H     0.10460   0.88001   0.10042   0.00000  Uiso   1.00
H34    H     0.30514   0.93301   0.03131   0.00000  Uiso   1.00
H35    H     0.12934   0.60785   0.23666   0.00000  Uiso   1.00
H36    H     0.00495   0.90692   0.02531   0.00000  Uiso   1.00
H37    H     0.42784   0.01868   0.87958   0.00000  Uiso   1.00
O38    O     0.09519   0.50850   0.02168   0.00000  Uiso   1.00
O39    O     0.93202   0.90087   0.74439   0.00000  Uiso   1.00
O40    O     0.48683   0.04749   0.55320   0.00000  Uiso   1.00
N41    N     0.10849   0.58398   0.80275   0.00000  Uiso   1.00
N42    N     0.99219   0.86358   0.60516   0.00000  Uiso   1.00
N43    N     0.38755   0.96808   0.46890   0.00000  Uiso   1.00
N44    N     0.12573   0.61146   0.09772   0.00000  Uiso   1.00
N45    N     0.00943   0.89106   0.90013   0.00000  Uiso   1.00
N46    N     0.40479   0.99556   0.76387   0.00000  Uiso   1.00
C47    C     0.19722   0.35847   0.59965   0.00000  Uiso   1.00
C48    C     0.25080   0.40173   0.72770   0.00000  Uiso   1.00
C49    C     0.31116   0.44381   0.67107   0.00000  Uiso   1.00
C50    C     0.35341   0.47915   0.80968   0.00000  Uiso   1.00
C51    C     0.43928   0.54731   0.97986   0.00000  Uiso   1.00
C52    C     0.17375   0.29262   0.67326   0.00000  Uiso   1.00
C53    C     0.16932   0.24295   0.57083   0.00000  Uiso   1.00
C54    C     0.14670   0.18645   0.66361   0.00000  Uiso   1.00
C55    C     0.11291   0.08519   0.74922   0.00000  Uiso   1.00
C56    C     0.14496   0.37279   0.63571   0.00000  Uiso   1.00
C57    C     0.11631   0.39051   0.50170   0.00000  Uiso   1.00
C58    C     0.06943   0.40149   0.56286   0.00000  Uiso   1.00
C59    C     0.99094   0.42471   0.59018   0.00000  Uiso   1.00
C60    C     0.16491   0.34642   0.94653   0.00000  Uiso   1.00
C61    C     0.23325   0.39519   0.91612   0.00000  Uiso   1.00
C62    C     0.27541   0.43048   0.05485   0.00000  Uiso   1.00
C63    C     0.33582   0.47260   0.99843   0.00000  Uiso   1.00
C64    C     0.15620   0.28608   0.86166   0.00000  Uiso   1.00
C65    C     0.13357   0.22963   0.95461   0.00000  Uiso   1.00
C66    C     0.12911   0.17989   0.85236   0.00000  Uiso   1.00
C67    C     0.12741   0.36625   0.82412   0.00000  Uiso   1.00
C68    C     0.08056   0.37720   0.88550   0.00000  Uiso   1.00
C69    C     0.05185   0.39494   0.75161   0.00000  Uiso   1.00
H70    H     0.21088   0.36355   0.45297   0.00000  Uiso   1.00
H71    H     0.32473   0.44885   0.52524   0.00000  Uiso   1.00
H72    H     0.18290   0.24803   0.42502   0.00000  Uiso   1.00
H73    H     0.12991   0.39557   0.35591   0.00000  Uiso   1.00
H74    H     0.44321   0.54052   0.68848   0.00000  Uiso   1.00
H75    H     0.14415   0.11707   0.47713   0.00000  Uiso   1.00
H76    H     0.03239   0.42819   0.33140   0.00000  Uiso   1.00
H77    H     0.15124   0.34133   0.09323   0.00000  Uiso   1.00
H78    H     0.26182   0.42541   0.20065   0.00000  Uiso   1.00
H79    H     0.11999   0.22459   0.10042   0.00000  Uiso   1.00
H80    H     0.06699   0.37213   0.03131   0.00000  Uiso   1.00
H81    H     0.39215   0.52149   0.23666   0.00000  Uiso   1.00
H82    H     0.09308   0.09804   0.02531   0.00000  Uiso   1.00
H83    H     0.98132   0.40916   0.87958   0.00000  Uiso   1.00
O84    O     0.49150   0.58670   0.02168   0.00000  Uiso   1.00
O85    O     0.09913   0.03115   0.74439   0.00000  Uiso   1.00
O86    O     0.95251   0.43934   0.55320   0.00000  Uiso   1.00
N87    N     0.41602   0.52451   0.80275   0.00000  Uiso   1.00
N88    N     0.13642   0.12861   0.60516   0.00000  Uiso   1.00
N89    N     0.03192   0.41947   0.46890   0.00000  Uiso   1.00
N90    N     0.38854   0.51427   0.09772   0.00000  Uiso   1.00
N91    N     0.10894   0.11837   0.90013   0.00000  Uiso   1.00
N92    N     0.00444   0.40923   0.76387   0.00000  Uiso   1.00
C93    C     0.64153   0.83876   0.59965   0.00000  Uiso   1.00
C94    C     0.59827   0.84907   0.72770   0.00000  Uiso   1.00
C95    C     0.55619   0.86736   0.67107   0.00000  Uiso   1.00
C96    C     0.52085   0.87425   0.80968   0.00000  Uiso   1.00
C97    C     0.45269   0.89198   0.97986   0.00000  Uiso   1.00
C98    C     0.70738   0.88113   0.67326   0.00000  Uiso   1.00
C99    C     0.75705   0.92637   0.57083   0.00000  Uiso   1.00
C100   C     0.81355   0.96025   0.66361   0.00000  Uiso   1.00
C101   C     0.91481   0.02772   0.74922   0.00000  Uiso   1.00
C102   C     0.62721   0.77217   0.63571   0.00000  Uiso   1.00
C103   C     0.60949   0.72580   0.50170   0.00000  Uiso   1.00
C104   C     0.59851   0.66794   0.56286   0.00000  Uiso   1.00
C105   C     0.57529   0.56623   0.59018   0.00000  Uiso   1.00
C106   C     0.65358   0.81848   0.94653   0.00000  Uiso   1.00
C107   C     0.60481   0.83806   0.91612   0.00000  Uiso   1.00
C108   C     0.56952   0.84493   0.05485   0.00000  Uiso   1.00
C109   C     0.52740   0.86322   0.99843   0.00000  Uiso   1.00
C110   C     0.71392   0.87012   0.86166   0.00000  Uiso   1.00
C111   C     0.77037   0.90394   0.95461   0.00000  Uiso   1.00
C112   C     0.82011   0.94922   0.85236   0.00000  Uiso   1.00
C113   C     0.63375   0.76116   0.82412   0.00000  Uiso   1.00
C114   C     0.62280   0.70337   0.88550   0.00000  Uiso   1.00
C115   C     0.60506   0.65691   0.75161   0.00000  Uiso   1.00
H116   H     0.63645   0.84733   0.45297   0.00000  Uiso   1.00
H117   H     0.55115   0.87588   0.52524   0.00000  Uiso   1.00
H118   H     0.75197   0.93488   0.42502   0.00000  Uiso   1.00
H119   H     0.60443   0.73433   0.35591   0.00000  Uiso   1.00
H120   H     0.45948   0.90270   0.68848   0.00000  Uiso   1.00
H121   H     0.88293   0.02708   0.47713   0.00000  Uiso   1.00
H122   H     0.57181   0.60420   0.33140   0.00000  Uiso   1.00
H123   H     0.65867   0.80991   0.09323   0.00000  Uiso   1.00
H124   H     0.57459   0.83640   0.20065   0.00000  Uiso   1.00
H125   H     0.77541   0.89540   0.10042   0.00000  Uiso   1.00
H126   H     0.62787   0.69486   0.03131   0.00000  Uiso   1.00
H127   H     0.47851   0.87066   0.23666   0.00000  Uiso   1.00
H128   H     0.90196   0.99505   0.02531   0.00000  Uiso   1.00
H129   H     0.59084   0.57216   0.87958   0.00000  Uiso   1.00
O130   O     0.41330   0.90481   0.02168   0.00000  Uiso   1.00
O131   O     0.96885   0.06798   0.74439   0.00000  Uiso   1.00
O132   O     0.56066   0.51317   0.55320   0.00000  Uiso   1.00
N133   N     0.47549   0.89151   0.80275   0.00000  Uiso   1.00
N134   N     0.87139   0.00781   0.60516   0.00000  Uiso   1.00
N135   N     0.58053   0.61245   0.46890   0.00000  Uiso   1.00
N136   N     0.48573   0.87427   0.09772   0.00000  Uiso   1.00
N137   N     0.88163   0.99057   0.90013   0.00000  Uiso   1.00
N138   N     0.59077   0.59521   0.76387   0.00000  Uiso   1.00
C139   C     0.83876   0.19722   0.40035   0.00000  Uiso   1.00
C140   C     0.84907   0.25080   0.27230   0.00000  Uiso   1.00
C141   C     0.86736   0.31116   0.32893   0.00000  Uiso   1.00
C142   C     0.87425   0.35341   0.19032   0.00000  Uiso   1.00
C143   C     0.89198   0.43928   0.02014   0.00000  Uiso   1.00
C144   C     0.88113   0.17375   0.32674   0.00000  Uiso   1.00
C145   C     0.92637   0.16932   0.42917   0.00000  Uiso   1.00
C146   C     0.96025   0.14670   0.33639   0.00000  Uiso   1.00
C147   C     0.02772   0.11291   0.25078   0.00000  Uiso   1.00
C148   C     0.77217   0.14496   0.36429   0.00000  Uiso   1.00
C149   C     0.72580   0.11631   0.49830   0.00000  Uiso   1.00
C150   C     0.66794   0.06943   0.43714   0.00000  Uiso   1.00
C151   C     0.56623   0.99094   0.40982   0.00000  Uiso   1.00
C152   C     0.81848   0.16491   0.05347   0.00000  Uiso   1.00
C153   C     0.83806   0.23325   0.08388   0.00000  Uiso   1.00
C154   C     0.84493   0.27541   0.94515   0.00000  Uiso   1.00
C155   C     0.86322   0.33582   0.00157   0.00000  Uiso   1.00
C156   C     0.87012   0.15620   0.13834   0.00000  Uiso   1.00
C157   C     0.90394   0.13357   0.04539   0.00000  Uiso   1.00
C158   C     0.94922   0.12911   0.14764   0.00000  Uiso   1.00
C159   C     0.76116   0.12741   0.17588   0.00000  Uiso   1.00
C160   C     0.70337   0.08056   0.11450   0.00000  Uiso   1.00
C161   C     0.65691   0.05185   0.24839   0.00000  Uiso   1.00
H162   H     0.84733   0.21088   0.54703   0.00000  Uiso   1.00
H163   H     0.87588   0.32473   0.47476   0.00000  Uiso   1.00
H164   H     0.93488   0.18290   0.57498   0.00000  Uiso   1.00
H165   H     0.73433   0.12991   0.64409   0.00000  Uiso   1.00
H166   H     0.90270   0.44321   0.31152   0.00000  Uiso   1.00
H167   H     0.02708   0.14415   0.52287   0.00000  Uiso   1.00
H168   H     0.60420   0.03239   0.66860   0.00000  Uiso   1.00
H169   H     0.80991   0.15124   0.90677   0.00000  Uiso   1.00
H170   H     0.83640   0.26182   0.79935   0.00000  Uiso   1.00
H171   H     0.89540   0.11999   0.89958   0.00000  Uiso   1.00
H172   H     0.69486   0.06699   0.96869   0.00000  Uiso   1.00
H173   H     0.87066   0.39215   0.76334   0.00000  Uiso   1.00
H174   H     0.99505   0.09308   0.97469   0.00000  Uiso   1.00
H175   H     0.57216   0.98132   0.12042   0.00000  Uiso   1.00
O176   O     0.90481   0.49150   0.97832   0.00000  Uiso   1.00
O177   O     0.06798   0.09913   0.25561   0.00000  Uiso   1.00
O178   O     0.51317   0.95251   0.44680   0.00000  Uiso   1.00
N179   N     0.89151   0.41602   0.19725   0.00000  Uiso   1.00
N180   N     0.00781   0.13642   0.39484   0.00000  Uiso   1.00
N181   N     0.61245   0.03192   0.53110   0.00000  Uiso   1.00
N182   N     0.87427   0.38854   0.90228   0.00000  Uiso   1.00
N183   N     0.99057   0.10894   0.09987   0.00000  Uiso   1.00
N184   N     0.59521   0.00444   0.23613   0.00000  Uiso   1.00
C185   C     0.80278   0.64153   0.40035   0.00000  Uiso   1.00
C186   C     0.74920   0.59827   0.27230   0.00000  Uiso   1.00
C187   C     0.68884   0.55619   0.32893   0.00000  Uiso   1.00
C188   C     0.64659   0.52085   0.19032   0.00000  Uiso   1.00
C189   C     0.56072   0.45269   0.02014   0.00000  Uiso   1.00
C190   C     0.82625   0.70738   0.32674   0.00000  Uiso   1.00
C191   C     0.83068   0.75705   0.42917   0.00000  Uiso   1.00
C192   C     0.85330   0.81355   0.33639   0.00000  Uiso   1.00
C193   C     0.88709   0.91481   0.25078   0.00000  Uiso   1.00
C194   C     0.85504   0.62721   0.36429   0.00000  Uiso   1.00
C195   C     0.88369   0.60949   0.49830   0.00000  Uiso   1.00
C196   C     0.93057   0.59851   0.43714   0.00000  Uiso   1.00
C197   C     0.00906   0.57529   0.40982   0.00000  Uiso   1.00
C198   C     0.83509   0.65358   0.05347   0.00000  Uiso   1.00
C199   C     0.76675   0.60481   0.08388   0.00000  Uiso   1.00
C200   C     0.72459   0.56952   0.94515   0.00000  Uiso   1.00
C201   C     0.66418   0.52740   0.00157   0.00000  Uiso   1.00
C202   C     0.84380   0.71392   0.13834   0.00000  Uiso   1.00
C203   C     0.86643   0.77037   0.04539   0.00000  Uiso   1.00
C204   C     0.87089   0.82011   0.14764   0.00000  Uiso   1.00
C205   C     0.87259   0.63375   0.17588   0.00000  Uiso   1.00
C206   C     0.91944   0.62280   0.11450   0.00000  Uiso   1.00
C207   C     0.94815   0.60506   0.24839   0.00000  Uiso   1.00
H208   H     0.78912   0.63645   0.54703   0.00000  Uiso   1.00
H209   H     0.67527   0.55115   0.47476   0.00000  Uiso   1.00
H210   H     0.81710   0.75197   0.57498   0.00000  Uiso   1.00
H211   H     0.87009   0.60443   0.64409   0.00000  Uiso   1.00
H212   H     0.55679   0.45948   0.31152   0.00000  Uiso   1.00
H213   H     0.85585   0.88293   0.52287   0.00000  Uiso   1.00
H214   H     0.96761   0.57181   0.66860   0.00000  Uiso   1.00
H215   H     0.84876   0.65867   0.90677   0.00000  Uiso   1.00
H216   H     0.73818   0.57459   0.79935   0.00000  Uiso   1.00
H217   H     0.88001   0.77541   0.89958   0.00000  Uiso   1.00
H218   H     0.93301   0.62787   0.96869   0.00000  Uiso   1.00
H219   H     0.60785   0.47851   0.76334   0.00000  Uiso   1.00
H220   H     0.90692   0.90196   0.97469   0.00000  Uiso   1.00
H221   H     0.01868   0.59084   0.12042   0.00000  Uiso   1.00
O222   O     0.50850   0.41330   0.97832   0.00000  Uiso   1.00
O223   O     0.90087   0.96885   0.25561   0.00000  Uiso   1.00
O224   O     0.04749   0.56066   0.44680   0.00000  Uiso   1.00
N225   N     0.58398   0.47549   0.19725   0.00000  Uiso   1.00
N226   N     0.86358   0.87139   0.39484   0.00000  Uiso   1.00
N227   N     0.96808   0.58053   0.53110   0.00000  Uiso   1.00
N228   N     0.61146   0.48573   0.90228   0.00000  Uiso   1.00
N229   N     0.89106   0.88163   0.09987   0.00000  Uiso   1.00
N230   N     0.99556   0.59077   0.23613   0.00000  Uiso   1.00
C231   C     0.35847   0.16124   0.40035   0.00000  Uiso   1.00
C232   C     0.40173   0.15093   0.27230   0.00000  Uiso   1.00
C233   C     0.44381   0.13264   0.32893   0.00000  Uiso   1.00
C234   C     0.47915   0.12575   0.19032   0.00000  Uiso   1.00
C235   C     0.54731   0.10802   0.02014   0.00000  Uiso   1.00
C236   C     0.29262   0.11887   0.32674   0.00000  Uiso   1.00
C237   C     0.24295   0.07363   0.42917   0.00000  Uiso   1.00
C238   C     0.18645   0.03975   0.33639   0.00000  Uiso   1.00
C239   C     0.08519   0.97228   0.25078   0.00000  Uiso   1.00
C240   C     0.37279   0.22783   0.36429   0.00000  Uiso   1.00
C241   C     0.39051   0.27420   0.49830   0.00000  Uiso   1.00
C242   C     0.40149   0.33206   0.43714   0.00000  Uiso   1.00
C243   C     0.42471   0.43377   0.40982   0.00000  Uiso   1.00
C244   C     0.34642   0.18152   0.05347   0.00000  Uiso   1.00
C245   C     0.39519   0.16194   0.08388   0.00000  Uiso   1.00
C246   C     0.43048   0.15507   0.94515   0.00000  Uiso   1.00
C247   C     0.47260   0.13678   0.00157   0.00000  Uiso   1.00
C248   C     0.28608   0.12988   0.13834   0.00000  Uiso   1.00
C249   C     0.22963   0.09606   0.04539   0.00000  Uiso   1.00
C250   C     0.17989   0.05078   0.14764   0.00000  Uiso   1.00
C251   C     0.36625   0.23884   0.17588   0.00000  Uiso   1.00
C252   C     0.37720   0.29663   0.11450   0.00000  Uiso   1.00
C253   C     0.39494   0.34309   0.24839   0.00000  Uiso   1.00
H254   H     0.36355   0.15267   0.54703   0.00000  Uiso   1.00
H255   H     0.44885   0.12412   0.47476   0.00000  Uiso   1.00
H256   H     0.24803   0.06512   0.57498   0.00000  Uiso   1.00
H257   H     0.39557   0.26567   0.64409   0.00000  Uiso   1.00
H258   H     0.54052   0.09730   0.31152   0.00000  Uiso   1.00
H259   H     0.11707   0.97292   0.52287   0.00000  Uiso   1.00
H260   H     0.42819   0.39580   0.66860   0.00000  Uiso   1.00
H261   H     0.34133   0.19009   0.90677   0.00000  Uiso   1.00
H262   H     0.42541   0.16360   0.79935   0.00000  Uiso   1.00
H263   H     0.22459   0.10460   0.89958   0.00000  Uiso   1.00
H264   H     0.37213   0.30514   0.96869   0.00000  Uiso   1.00
H265   H     0.52149   0.12934   0.76334   0.00000  Uiso   1.00
H266   H     0.09804   0.00495   0.97469   0.00000  Uiso   1.00
H267   H     0.40916   0.42784   0.12042   0.00000  Uiso   1.00
O268   O     0.58670   0.09519   0.97832   0.00000  Uiso   1.00
O269   O     0.03115   0.93202   0.25561   0.00000  Uiso   1.00
O270   O     0.43934   0.48683   0.44680   0.00000  Uiso   1.00
N271   N     0.52451   0.10849   0.19725   0.00000  Uiso   1.00
N272   N     0.12861   0.99219   0.39484   0.00000  Uiso   1.00
N273   N     0.41947   0.38755   0.53110   0.00000  Uiso   1.00
N274   N     0.51427   0.12573   0.90228   0.00000  Uiso   1.00
N275   N     0.11837   0.00943   0.09987   0.00000  Uiso   1.00
N276   N     0.40923   0.40479   0.23613   0.00000  Uiso   1.00
