data_job_01911
_audit_creation_date              2018-12-19
_audit_creation_method            'Materials Studio'
_symmetry_space_group_name_H-M    'P1'
_symmetry_Int_Tables_number       1
_symmetry_cell_setting            triclinic
loop_
_symmetry_equiv_pos_as_xyz
  x,y,z
_cell_length_a                    16.3079
_cell_length_b                    16.3079
_cell_length_c                    14.5666
_cell_angle_alpha                 90.0000
_cell_angle_beta                  90.0000
_cell_angle_gamma                 120.0000
loop_
_atom_site_label
_atom_site_type_symbol
_atom_site_fract_x
_atom_site_fract_y
_atom_site_fract_z
_atom_site_U_iso_or_equiv
_atom_site_adp_type
_atom_site_occupancy
C1     C     0.81842   0.17987   0.01757   0.00000  Uiso   1.00
C2     C     0.77508   0.23312   0.06403   0.00000  Uiso   1.00
C3     C     0.68365   0.19275   0.09842   0.00000  Uiso   1.00
C4     C     0.65746   0.25354   0.13839   0.00000  Uiso   1.00
C5     C     0.58056   0.32138   0.20967   0.00000  Uiso   1.00
C6     C     0.85208   0.22561   0.92352   0.00000  Uiso   1.00
C7     C     0.82541   0.17892   0.83976   0.00000  Uiso   1.00
C8     C     0.86406   0.23339   0.76145   0.00000  Uiso   1.00
C9     C     0.90676   0.28955   0.61459   0.00000  Uiso   1.00
C10    C     0.90764   0.20406   0.07191   0.00000  Uiso   1.00
C11    C     0.92770   0.13926   0.11291   0.00000  Uiso   1.00
C12    C     0.01314   0.17559   0.15951   0.00000  Uiso   1.00
C13    C     0.14210   0.19830   0.24305   0.00000  Uiso   1.00
C14    C     0.93450   0.35962   0.02742   0.00000  Uiso   1.00
C15    C     0.83813   0.33075   0.06937   0.00000  Uiso   1.00
C16    C     0.81208   0.39162   0.10931   0.00000  Uiso   1.00
C17    C     0.72062   0.35135   0.14375   0.00000  Uiso   1.00
C18    C     0.91513   0.32323   0.92886   0.00000  Uiso   1.00
C19    C     0.95384   0.37779   0.85065   0.00000  Uiso   1.00
C20    C     0.92722   0.33120   0.76680   0.00000  Uiso   1.00
C21    C     0.97069   0.30169   0.07726   0.00000  Uiso   1.00
C22    C     0.05612   0.33813   0.12380   0.00000  Uiso   1.00
C23    C     0.07630   0.27340   0.16487   0.00000  Uiso   1.00
H24    H     0.76933   0.10386   0.01341   0.00000  Uiso   1.00
H25    H     0.63487   0.11719   0.09426   0.00000  Uiso   1.00
H26    H     0.77662   0.10336   0.83565   0.00000  Uiso   1.00
H27    H     0.87889   0.06371   0.10875   0.00000  Uiso   1.00
H28    H     0.51359   0.17504   0.18623   0.00000  Uiso   1.00
H29    H     0.81250   0.14587   0.64093   0.00000  Uiso   1.00
H30    H     0.02815   0.06226   0.21683   0.00000  Uiso   1.00
H31    H     0.98359   0.43563   0.03158   0.00000  Uiso   1.00
H32    H     0.86089   0.46717   0.11343   0.00000  Uiso   1.00
H33    H     0.00263   0.45334   0.85482   0.00000  Uiso   1.00
H34    H     0.10490   0.41369   0.12792   0.00000  Uiso   1.00
H35    H     0.69703   0.45909   0.20179   0.00000  Uiso   1.00
H36    H     0.99594   0.42992   0.65649   0.00000  Uiso   1.00
H37    H     0.21159   0.34631   0.23239   0.00000  Uiso   1.00
O38    O     0.52071   0.33183   0.24750   0.00000  Uiso   1.00
O39    O     0.91288   0.29355   0.53210   0.00000  Uiso   1.00
O40    O     0.19581   0.18386   0.28766   0.00000  Uiso   1.00
N41    N     0.57361   0.23756   0.17867   0.00000  Uiso   1.00
N42    N     0.85306   0.21029   0.66885   0.00000  Uiso   1.00
N43    N     0.05469   0.13212   0.20725   0.00000  Uiso   1.00
N44    N     0.67232   0.39040   0.18705   0.00000  Uiso   1.00
N45    N     0.95177   0.36313   0.67723   0.00000  Uiso   1.00
N46    N     0.15340   0.28496   0.21562   0.00000  Uiso   1.00
C47    C     0.82013   0.63855   0.35091   0.00000  Uiso   1.00
C48    C     0.76688   0.54196   0.39736   0.00000  Uiso   1.00
C49    C     0.80725   0.49089   0.43175   0.00000  Uiso   1.00
C50    C     0.74646   0.40392   0.47172   0.00000  Uiso   1.00
C51    C     0.67862   0.25917   0.54300   0.00000  Uiso   1.00
C52    C     0.77439   0.62648   0.25685   0.00000  Uiso   1.00
C53    C     0.82108   0.64649   0.17310   0.00000  Uiso   1.00
C54    C     0.76661   0.63067   0.09478   0.00000  Uiso   1.00
C55    C     0.71045   0.61721   0.94792   0.00000  Uiso   1.00
C56    C     0.79594   0.70358   0.40524   0.00000  Uiso   1.00
C57    C     0.86074   0.78844   0.44624   0.00000  Uiso   1.00
C58    C     0.82441   0.83755   0.49285   0.00000  Uiso   1.00
C59    C     0.80170   0.94380   0.57638   0.00000  Uiso   1.00
C60    C     0.64038   0.57489   0.36075   0.00000  Uiso   1.00
C61    C     0.66925   0.50738   0.40271   0.00000  Uiso   1.00
C62    C     0.60838   0.42046   0.44264   0.00000  Uiso   1.00
C63    C     0.64865   0.36927   0.47708   0.00000  Uiso   1.00
C64    C     0.67677   0.59190   0.26219   0.00000  Uiso   1.00
C65    C     0.62221   0.57605   0.18399   0.00000  Uiso   1.00
C66    C     0.66880   0.59603   0.10014   0.00000  Uiso   1.00
C67    C     0.69831   0.66900   0.41059   0.00000  Uiso   1.00
C68    C     0.66187   0.71799   0.45713   0.00000  Uiso   1.00
C69    C     0.72660   0.80290   0.49820   0.00000  Uiso   1.00
H70    H     0.89614   0.66547   0.34674   0.00000  Uiso   1.00
H71    H     0.88281   0.51767   0.42759   0.00000  Uiso   1.00
H72    H     0.89664   0.67325   0.16898   0.00000  Uiso   1.00
H73    H     0.93629   0.81517   0.44209   0.00000  Uiso   1.00
H74    H     0.82496   0.33855   0.51956   0.00000  Uiso   1.00
H75    H     0.85413   0.66663   0.97427   0.00000  Uiso   1.00
H76    H     0.93774   0.96590   0.55016   0.00000  Uiso   1.00
H77    H     0.56437   0.54796   0.36491   0.00000  Uiso   1.00
H78    H     0.53283   0.39372   0.44677   0.00000  Uiso   1.00
H79    H     0.54666   0.54930   0.18815   0.00000  Uiso   1.00
H80    H     0.58631   0.69121   0.46126   0.00000  Uiso   1.00
H81    H     0.54091   0.23794   0.53512   0.00000  Uiso   1.00
H82    H     0.57008   0.56603   0.98982   0.00000  Uiso   1.00
H83    H     0.65369   0.86529   0.56572   0.00000  Uiso   1.00
O84    O     0.66817   0.18888   0.58083   0.00000  Uiso   1.00
O85    O     0.70645   0.61933   0.86543   0.00000  Uiso   1.00
O86    O     0.81614   0.01195   0.62099   0.00000  Uiso   1.00
N87    N     0.76244   0.33605   0.51201   0.00000  Uiso   1.00
N88    N     0.78971   0.64277   0.00219   0.00000  Uiso   1.00
N89    N     0.86788   0.92257   0.54058   0.00000  Uiso   1.00
N90    N     0.60960   0.28191   0.52038   0.00000  Uiso   1.00
N91    N     0.63687   0.58863   0.01056   0.00000  Uiso   1.00
N92    N     0.71504   0.86843   0.54895   0.00000  Uiso   1.00
C93    C     0.36145   0.18158   0.68424   0.00000  Uiso   1.00
C94    C     0.45804   0.22492   0.73070   0.00000  Uiso   1.00
C95    C     0.50911   0.31635   0.76508   0.00000  Uiso   1.00
C96    C     0.59608   0.34254   0.80506   0.00000  Uiso   1.00
C97    C     0.74083   0.41944   0.87634   0.00000  Uiso   1.00
C98    C     0.37352   0.14792   0.59018   0.00000  Uiso   1.00
C99    C     0.35351   0.17459   0.50643   0.00000  Uiso   1.00
C100   C     0.36933   0.13594   0.42812   0.00000  Uiso   1.00
C101   C     0.38279   0.09324   0.28125   0.00000  Uiso   1.00
C102   C     0.29642   0.09236   0.73858   0.00000  Uiso   1.00
C103   C     0.21156   0.07230   0.77957   0.00000  Uiso   1.00
C104   C     0.16245   0.98686   0.82618   0.00000  Uiso   1.00
C105   C     0.05620   0.85790   0.90972   0.00000  Uiso   1.00
C106   C     0.42511   0.06550   0.69408   0.00000  Uiso   1.00
C107   C     0.49262   0.16187   0.73604   0.00000  Uiso   1.00
C108   C     0.57954   0.18792   0.77598   0.00000  Uiso   1.00
C109   C     0.63073   0.27938   0.81042   0.00000  Uiso   1.00
C110   C     0.40810   0.08487   0.59553   0.00000  Uiso   1.00
C111   C     0.42395   0.04616   0.51732   0.00000  Uiso   1.00
C112   C     0.40397   0.07278   0.43347   0.00000  Uiso   1.00
C113   C     0.33100   0.02931   0.74392   0.00000  Uiso   1.00
C114   C     0.28201   0.94388   0.79047   0.00000  Uiso   1.00
C115   C     0.19710   0.92370   0.83153   0.00000  Uiso   1.00
H116   H     0.33453   0.23067   0.68007   0.00000  Uiso   1.00
H117   H     0.48233   0.36513   0.76093   0.00000  Uiso   1.00
H118   H     0.32675   0.22338   0.50232   0.00000  Uiso   1.00
H119   H     0.18483   0.12111   0.77542   0.00000  Uiso   1.00
H120   H     0.66145   0.48641   0.85290   0.00000  Uiso   1.00
H121   H     0.33337   0.18750   0.30760   0.00000  Uiso   1.00
H122   H     0.03410   0.97185   0.88350   0.00000  Uiso   1.00
H123   H     0.45204   0.01641   0.69824   0.00000  Uiso   1.00
H124   H     0.60628   0.13911   0.78010   0.00000  Uiso   1.00
H125   H     0.45070   0.99737   0.52149   0.00000  Uiso   1.00
H126   H     0.30879   0.89510   0.79459   0.00000  Uiso   1.00
H127   H     0.76206   0.30297   0.86845   0.00000  Uiso   1.00
H128   H     0.43397   0.00406   0.32316   0.00000  Uiso   1.00
H129   H     0.13471   0.78841   0.89905   0.00000  Uiso   1.00
O130   O     0.81112   0.47929   0.91417   0.00000  Uiso   1.00
O131   O     0.38067   0.08712   0.19876   0.00000  Uiso   1.00
O132   O     0.98805   0.80419   0.95433   0.00000  Uiso   1.00
N133   N     0.66395   0.42639   0.84534   0.00000  Uiso   1.00
N134   N     0.35723   0.14694   0.33552   0.00000  Uiso   1.00
N135   N     0.07743   0.94531   0.87391   0.00000  Uiso   1.00
N136   N     0.71809   0.32768   0.85371   0.00000  Uiso   1.00
N137   N     0.41137   0.04823   0.34389   0.00000  Uiso   1.00
N138   N     0.13157   0.84660   0.88229   0.00000  Uiso   1.00
C139   C     0.18158   0.82013   0.51757   0.00000  Uiso   1.00
C140   C     0.22492   0.76688   0.56403   0.00000  Uiso   1.00
C141   C     0.31635   0.80725   0.59842   0.00000  Uiso   1.00
C142   C     0.34254   0.74646   0.63839   0.00000  Uiso   1.00
C143   C     0.41944   0.67862   0.70967   0.00000  Uiso   1.00
C144   C     0.14792   0.77439   0.42352   0.00000  Uiso   1.00
C145   C     0.17459   0.82108   0.33976   0.00000  Uiso   1.00
C146   C     0.13594   0.76661   0.26145   0.00000  Uiso   1.00
C147   C     0.09324   0.71045   0.11459   0.00000  Uiso   1.00
C148   C     0.09236   0.79594   0.57191   0.00000  Uiso   1.00
C149   C     0.07230   0.86074   0.61291   0.00000  Uiso   1.00
C150   C     0.98686   0.82441   0.65951   0.00000  Uiso   1.00
C151   C     0.85790   0.80170   0.74305   0.00000  Uiso   1.00
C152   C     0.06550   0.64038   0.52742   0.00000  Uiso   1.00
C153   C     0.16187   0.66925   0.56937   0.00000  Uiso   1.00
C154   C     0.18792   0.60838   0.60931   0.00000  Uiso   1.00
C155   C     0.27938   0.64865   0.64375   0.00000  Uiso   1.00
C156   C     0.08487   0.67677   0.42886   0.00000  Uiso   1.00
C157   C     0.04616   0.62221   0.35065   0.00000  Uiso   1.00
C158   C     0.07278   0.66880   0.26680   0.00000  Uiso   1.00
C159   C     0.02931   0.69831   0.57726   0.00000  Uiso   1.00
C160   C     0.94388   0.66187   0.62380   0.00000  Uiso   1.00
C161   C     0.92370   0.72660   0.66487   0.00000  Uiso   1.00
H162   H     0.23067   0.89614   0.51341   0.00000  Uiso   1.00
H163   H     0.36513   0.88281   0.59426   0.00000  Uiso   1.00
H164   H     0.22338   0.89664   0.33565   0.00000  Uiso   1.00
H165   H     0.12111   0.93629   0.60875   0.00000  Uiso   1.00
H166   H     0.48641   0.82496   0.68623   0.00000  Uiso   1.00
H167   H     0.18750   0.85413   0.14093   0.00000  Uiso   1.00
H168   H     0.97185   0.93774   0.71683   0.00000  Uiso   1.00
H169   H     0.01641   0.56437   0.53158   0.00000  Uiso   1.00
H170   H     0.13911   0.53283   0.61343   0.00000  Uiso   1.00
H171   H     0.99737   0.54666   0.35482   0.00000  Uiso   1.00
H172   H     0.89510   0.58631   0.62792   0.00000  Uiso   1.00
H173   H     0.30297   0.54091   0.70179   0.00000  Uiso   1.00
H174   H     0.00406   0.57008   0.15649   0.00000  Uiso   1.00
H175   H     0.78841   0.65369   0.73239   0.00000  Uiso   1.00
O176   O     0.47929   0.66817   0.74750   0.00000  Uiso   1.00
O177   O     0.08712   0.70645   0.03210   0.00000  Uiso   1.00
O178   O     0.80419   0.81614   0.78766   0.00000  Uiso   1.00
N179   N     0.42639   0.76244   0.67867   0.00000  Uiso   1.00
N180   N     0.14694   0.78971   0.16885   0.00000  Uiso   1.00
N181   N     0.94531   0.86788   0.70725   0.00000  Uiso   1.00
N182   N     0.32768   0.60960   0.68705   0.00000  Uiso   1.00
N183   N     0.04823   0.63687   0.17723   0.00000  Uiso   1.00
N184   N     0.84660   0.71504   0.71562   0.00000  Uiso   1.00
C185   C     0.17987   0.36145   0.85091   0.00000  Uiso   1.00
C186   C     0.23312   0.45804   0.89736   0.00000  Uiso   1.00
C187   C     0.19275   0.50911   0.93175   0.00000  Uiso   1.00
C188   C     0.25354   0.59608   0.97172   0.00000  Uiso   1.00
C189   C     0.32138   0.74083   0.04300   0.00000  Uiso   1.00
C190   C     0.22561   0.37352   0.75685   0.00000  Uiso   1.00
C191   C     0.17892   0.35351   0.67310   0.00000  Uiso   1.00
C192   C     0.23339   0.36933   0.59478   0.00000  Uiso   1.00
C193   C     0.28955   0.38279   0.44792   0.00000  Uiso   1.00
C194   C     0.20406   0.29642   0.90524   0.00000  Uiso   1.00
C195   C     0.13926   0.21156   0.94624   0.00000  Uiso   1.00
C196   C     0.17559   0.16245   0.99285   0.00000  Uiso   1.00
C197   C     0.19830   0.05620   0.07638   0.00000  Uiso   1.00
C198   C     0.35962   0.42511   0.86075   0.00000  Uiso   1.00
C199   C     0.33075   0.49262   0.90271   0.00000  Uiso   1.00
C200   C     0.39162   0.57954   0.94264   0.00000  Uiso   1.00
C201   C     0.35135   0.63073   0.97708   0.00000  Uiso   1.00
C202   C     0.32323   0.40810   0.76219   0.00000  Uiso   1.00
C203   C     0.37779   0.42395   0.68399   0.00000  Uiso   1.00
C204   C     0.33120   0.40397   0.60014   0.00000  Uiso   1.00
C205   C     0.30169   0.33100   0.91059   0.00000  Uiso   1.00
C206   C     0.33813   0.28201   0.95713   0.00000  Uiso   1.00
C207   C     0.27340   0.19710   0.99820   0.00000  Uiso   1.00
H208   H     0.10386   0.33453   0.84674   0.00000  Uiso   1.00
H209   H     0.11719   0.48233   0.92759   0.00000  Uiso   1.00
H210   H     0.10336   0.32675   0.66898   0.00000  Uiso   1.00
H211   H     0.06371   0.18483   0.94209   0.00000  Uiso   1.00
H212   H     0.17504   0.66145   0.01956   0.00000  Uiso   1.00
H213   H     0.14587   0.33337   0.47427   0.00000  Uiso   1.00
H214   H     0.06226   0.03410   0.05016   0.00000  Uiso   1.00
H215   H     0.43563   0.45204   0.86491   0.00000  Uiso   1.00
H216   H     0.46717   0.60628   0.94677   0.00000  Uiso   1.00
H217   H     0.45334   0.45070   0.68815   0.00000  Uiso   1.00
H218   H     0.41369   0.30879   0.96126   0.00000  Uiso   1.00
H219   H     0.45909   0.76206   0.03512   0.00000  Uiso   1.00
H220   H     0.42992   0.43397   0.48982   0.00000  Uiso   1.00
H221   H     0.34631   0.13471   0.06572   0.00000  Uiso   1.00
O222   O     0.33183   0.81112   0.08083   0.00000  Uiso   1.00
O223   O     0.29355   0.38067   0.36543   0.00000  Uiso   1.00
O224   O     0.18386   0.98805   0.12099   0.00000  Uiso   1.00
N225   N     0.23756   0.66395   0.01201   0.00000  Uiso   1.00
N226   N     0.21029   0.35723   0.50219   0.00000  Uiso   1.00
N227   N     0.13212   0.07743   0.04058   0.00000  Uiso   1.00
N228   N     0.39040   0.71809   0.02038   0.00000  Uiso   1.00
N229   N     0.36313   0.41137   0.51056   0.00000  Uiso   1.00
N230   N     0.28496   0.13157   0.04895   0.00000  Uiso   1.00
C231   C     0.63855   0.81842   0.18424   0.00000  Uiso   1.00
C232   C     0.54196   0.77508   0.23070   0.00000  Uiso   1.00
C233   C     0.49089   0.68365   0.26508   0.00000  Uiso   1.00
C234   C     0.40392   0.65746   0.30506   0.00000  Uiso   1.00
C235   C     0.25917   0.58056   0.37634   0.00000  Uiso   1.00
C236   C     0.62648   0.85208   0.09018   0.00000  Uiso   1.00
C237   C     0.64649   0.82541   0.00643   0.00000  Uiso   1.00
C238   C     0.63067   0.86406   0.92812   0.00000  Uiso   1.00
C239   C     0.61721   0.90676   0.78125   0.00000  Uiso   1.00
C240   C     0.70358   0.90764   0.23858   0.00000  Uiso   1.00
C241   C     0.78844   0.92770   0.27957   0.00000  Uiso   1.00
C242   C     0.83755   0.01314   0.32618   0.00000  Uiso   1.00
C243   C     0.94380   0.14210   0.40972   0.00000  Uiso   1.00
C244   C     0.57489   0.93450   0.19408   0.00000  Uiso   1.00
C245   C     0.50738   0.83813   0.23604   0.00000  Uiso   1.00
C246   C     0.42046   0.81208   0.27598   0.00000  Uiso   1.00
C247   C     0.36927   0.72062   0.31042   0.00000  Uiso   1.00
C248   C     0.59190   0.91513   0.09553   0.00000  Uiso   1.00
C249   C     0.57605   0.95384   0.01732   0.00000  Uiso   1.00
C250   C     0.59603   0.92722   0.93347   0.00000  Uiso   1.00
C251   C     0.66900   0.97069   0.24392   0.00000  Uiso   1.00
C252   C     0.71799   0.05612   0.29047   0.00000  Uiso   1.00
C253   C     0.80290   0.07630   0.33153   0.00000  Uiso   1.00
H254   H     0.66547   0.76933   0.18007   0.00000  Uiso   1.00
H255   H     0.51767   0.63487   0.26093   0.00000  Uiso   1.00
H256   H     0.67325   0.77662   0.00232   0.00000  Uiso   1.00
H257   H     0.81517   0.87889   0.27542   0.00000  Uiso   1.00
H258   H     0.33855   0.51359   0.35290   0.00000  Uiso   1.00
H259   H     0.66663   0.81250   0.80760   0.00000  Uiso   1.00
H260   H     0.96590   0.02815   0.38350   0.00000  Uiso   1.00
H261   H     0.54796   0.98359   0.19824   0.00000  Uiso   1.00
H262   H     0.39372   0.86089   0.28010   0.00000  Uiso   1.00
H263   H     0.54930   0.00263   0.02149   0.00000  Uiso   1.00
H264   H     0.69121   0.10490   0.29459   0.00000  Uiso   1.00
H265   H     0.23794   0.69703   0.36845   0.00000  Uiso   1.00
H266   H     0.56603   0.99594   0.82316   0.00000  Uiso   1.00
H267   H     0.86529   0.21159   0.39905   0.00000  Uiso   1.00
O268   O     0.18888   0.52071   0.41417   0.00000  Uiso   1.00
O269   O     0.61933   0.91288   0.69876   0.00000  Uiso   1.00
O270   O     0.01195   0.19581   0.45433   0.00000  Uiso   1.00
N271   N     0.33605   0.57361   0.34534   0.00000  Uiso   1.00
N272   N     0.64277   0.85306   0.83552   0.00000  Uiso   1.00
N273   N     0.92257   0.05469   0.37391   0.00000  Uiso   1.00
N274   N     0.28191   0.67232   0.35371   0.00000  Uiso   1.00
N275   N     0.58863   0.95177   0.84389   0.00000  Uiso   1.00
N276   N     0.86843   0.15340   0.38229   0.00000  Uiso   1.00
