data_job_05907
_audit_creation_date              2018-12-19
_audit_creation_method            'Materials Studio'
_symmetry_space_group_name_H-M    'P1'
_symmetry_Int_Tables_number       1
_symmetry_cell_setting            triclinic
loop_
_symmetry_equiv_pos_as_xyz
  x,y,z
_cell_length_a                    19.3770
_cell_length_b                    12.3948
_cell_length_c                    23.7192
_cell_angle_alpha                 90.0000
_cell_angle_beta                  148.3030
_cell_angle_gamma                 90.0000
loop_
_atom_site_label
_atom_site_type_symbol
_atom_site_fract_x
_atom_site_fract_y
_atom_site_fract_z
_atom_site_U_iso_or_equiv
_atom_site_adp_type
_atom_site_occupancy
C1     C     0.49152   0.10601   0.70311   0.00000  Uiso   1.00
C2     C     0.55784   0.11068   0.80680   0.00000  Uiso   1.00
C3     C     0.49850   0.08742   0.81681   0.00000  Uiso   1.00
C4     C     0.57591   0.09647   0.91857   0.00000  Uiso   1.00
C5     C     0.65879   0.09903   0.06610   0.00000  Uiso   1.00
C6     C     0.50926   0.21753   0.68938   0.00000  Uiso   1.00
C7     C     0.40907   0.28409   0.60066   0.00000  Uiso   1.00
C8     C     0.44559   0.38309   0.60357   0.00000  Uiso   1.00
C9     C     0.45306   0.55150   0.56878   0.00000  Uiso   1.00
C10    C     0.57397   0.02919   0.72480   0.00000  Uiso   1.00
C11    C     0.52819   0.93741   0.66583   0.00000  Uiso   1.00
C12    C     0.61919   0.87785   0.69855   0.00000  Uiso   1.00
C13    C     0.72713   0.75384   0.71874   0.00000  Uiso   1.00
C14    C     0.73451   0.16346   0.86604   0.00000  Uiso   1.00
C15    C     0.68982   0.14189   0.89530   0.00000  Uiso   1.00
C16    C     0.76734   0.15097   0.99707   0.00000  Uiso   1.00
C17    C     0.70813   0.12772   0.00723   0.00000  Uiso   1.00
C18    C     0.64124   0.24874   0.77788   0.00000  Uiso   1.00
C19    C     0.67791   0.34765   0.78092   0.00000  Uiso   1.00
C20    C     0.57781   0.41435   0.69223   0.00000  Uiso   1.00
C21    C     0.70596   0.06039   0.81330   0.00000  Uiso   1.00
C22    C     0.79704   0.00097   0.84610   0.00000  Uiso   1.00
C23    C     0.75141   0.90911   0.78721   0.00000  Uiso   1.00
H24    H     0.38877   0.08172   0.63421   0.00000  Uiso   1.00
H25    H     0.39635   0.06328   0.74830   0.00000  Uiso   1.00
H26    H     0.30695   0.25992   0.53218   0.00000  Uiso   1.00
H27    H     0.42605   0.91329   0.59735   0.00000  Uiso   1.00
H28    H     0.46296   0.05663   0.91381   0.00000  Uiso   1.00
H29    H     0.27444   0.47124   0.45809   0.00000  Uiso   1.00
H30    H     0.52560   0.74030   0.59552   0.00000  Uiso   1.00
H31    H     0.83727   0.18775   0.93494   0.00000  Uiso   1.00
H32    H     0.86947   0.17513   0.06554   0.00000  Uiso   1.00
H33    H     0.78006   0.37177   0.84942   0.00000  Uiso   1.00
H34    H     0.89917   0.02514   0.91459   0.00000  Uiso   1.00
H35    H     0.84696   0.14742   0.17129   0.00000  Uiso   1.00
H36    H     0.65844   0.56202   0.71557   0.00000  Uiso   1.00
H37    H     0.90959   0.83109   0.85301   0.00000  Uiso   1.00
O38    O     0.66804   0.09184   0.12303   0.00000  Uiso   1.00
O39    O     0.42071   0.63578   0.52514   0.00000  Uiso   1.00
O40    O     0.75022   0.67681   0.70544   0.00000  Uiso   1.00
N41    N     0.54892   0.07971   0.95649   0.00000  Uiso   1.00
N42    N     0.37267   0.46735   0.53043   0.00000  Uiso   1.00
N43    N     0.60747   0.78400   0.65889   0.00000  Uiso   1.00
N44    N     0.75555   0.12856   0.09504   0.00000  Uiso   1.00
N45    N     0.57929   0.51620   0.66898   0.00000  Uiso   1.00
N46    N     0.81409   0.83285   0.79745   0.00000  Uiso   1.00
C47    C     0.99152   0.60601   0.70311   0.00000  Uiso   1.00
C48    C     0.05784   0.61068   0.80680   0.00000  Uiso   1.00
C49    C     0.99850   0.58742   0.81681   0.00000  Uiso   1.00
C50    C     0.07591   0.59647   0.91857   0.00000  Uiso   1.00
C51    C     0.15879   0.59903   0.06610   0.00000  Uiso   1.00
C52    C     0.00926   0.71753   0.68938   0.00000  Uiso   1.00
C53    C     0.90907   0.78409   0.60066   0.00000  Uiso   1.00
C54    C     0.94559   0.88309   0.60357   0.00000  Uiso   1.00
C55    C     0.95306   0.05150   0.56878   0.00000  Uiso   1.00
C56    C     0.07397   0.52919   0.72480   0.00000  Uiso   1.00
C57    C     0.02819   0.43741   0.66583   0.00000  Uiso   1.00
C58    C     0.11919   0.37785   0.69855   0.00000  Uiso   1.00
C59    C     0.22713   0.25384   0.71874   0.00000  Uiso   1.00
C60    C     0.23451   0.66346   0.86604   0.00000  Uiso   1.00
C61    C     0.18982   0.64189   0.89530   0.00000  Uiso   1.00
C62    C     0.26734   0.65097   0.99707   0.00000  Uiso   1.00
C63    C     0.20813   0.62772   0.00723   0.00000  Uiso   1.00
C64    C     0.14124   0.74874   0.77788   0.00000  Uiso   1.00
C65    C     0.17791   0.84765   0.78092   0.00000  Uiso   1.00
C66    C     0.07781   0.91435   0.69223   0.00000  Uiso   1.00
C67    C     0.20596   0.56039   0.81330   0.00000  Uiso   1.00
C68    C     0.29704   0.50097   0.84610   0.00000  Uiso   1.00
C69    C     0.25141   0.40911   0.78721   0.00000  Uiso   1.00
H70    H     0.88877   0.58172   0.63421   0.00000  Uiso   1.00
H71    H     0.89635   0.56328   0.74830   0.00000  Uiso   1.00
H72    H     0.80695   0.75992   0.53218   0.00000  Uiso   1.00
H73    H     0.92605   0.41329   0.59735   0.00000  Uiso   1.00
H74    H     0.96296   0.55663   0.91381   0.00000  Uiso   1.00
H75    H     0.77444   0.97124   0.45809   0.00000  Uiso   1.00
H76    H     0.02560   0.24030   0.59552   0.00000  Uiso   1.00
H77    H     0.33727   0.68775   0.93494   0.00000  Uiso   1.00
H78    H     0.36947   0.67513   0.06554   0.00000  Uiso   1.00
H79    H     0.28006   0.87177   0.84942   0.00000  Uiso   1.00
H80    H     0.39917   0.52514   0.91459   0.00000  Uiso   1.00
H81    H     0.34696   0.64742   0.17129   0.00000  Uiso   1.00
H82    H     0.15844   0.06202   0.71557   0.00000  Uiso   1.00
H83    H     0.40959   0.33109   0.85301   0.00000  Uiso   1.00
O84    O     0.16804   0.59184   0.12303   0.00000  Uiso   1.00
O85    O     0.92071   0.13578   0.52514   0.00000  Uiso   1.00
O86    O     0.25022   0.17681   0.70544   0.00000  Uiso   1.00
N87    N     0.04892   0.57971   0.95649   0.00000  Uiso   1.00
N88    N     0.87267   0.96735   0.53043   0.00000  Uiso   1.00
N89    N     0.10747   0.28400   0.65889   0.00000  Uiso   1.00
N90    N     0.25555   0.62856   0.09504   0.00000  Uiso   1.00
N91    N     0.07929   0.01620   0.66898   0.00000  Uiso   1.00
N92    N     0.31409   0.33285   0.79745   0.00000  Uiso   1.00
C93    C     0.50848   0.10601   0.29689   0.00000  Uiso   1.00
C94    C     0.44216   0.11068   0.19320   0.00000  Uiso   1.00
C95    C     0.50150   0.08742   0.18319   0.00000  Uiso   1.00
C96    C     0.42409   0.09647   0.08143   0.00000  Uiso   1.00
C97    C     0.34121   0.09903   0.93390   0.00000  Uiso   1.00
C98    C     0.49074   0.21753   0.31062   0.00000  Uiso   1.00
C99    C     0.59093   0.28409   0.39934   0.00000  Uiso   1.00
C100   C     0.55441   0.38309   0.39643   0.00000  Uiso   1.00
C101   C     0.54694   0.55150   0.43122   0.00000  Uiso   1.00
C102   C     0.42603   0.02919   0.27520   0.00000  Uiso   1.00
C103   C     0.47181   0.93741   0.33417   0.00000  Uiso   1.00
C104   C     0.38081   0.87785   0.30145   0.00000  Uiso   1.00
C105   C     0.27287   0.75384   0.28126   0.00000  Uiso   1.00
C106   C     0.26549   0.16346   0.13396   0.00000  Uiso   1.00
C107   C     0.31018   0.14189   0.10470   0.00000  Uiso   1.00
C108   C     0.23266   0.15097   0.00293   0.00000  Uiso   1.00
C109   C     0.29187   0.12772   0.99277   0.00000  Uiso   1.00
C110   C     0.35876   0.24874   0.22212   0.00000  Uiso   1.00
C111   C     0.32209   0.34765   0.21908   0.00000  Uiso   1.00
C112   C     0.42219   0.41435   0.30777   0.00000  Uiso   1.00
C113   C     0.29404   0.06039   0.18670   0.00000  Uiso   1.00
C114   C     0.20296   0.00097   0.15390   0.00000  Uiso   1.00
C115   C     0.24859   0.90911   0.21279   0.00000  Uiso   1.00
H116   H     0.61123   0.08172   0.36579   0.00000  Uiso   1.00
H117   H     0.60365   0.06328   0.25170   0.00000  Uiso   1.00
H118   H     0.69305   0.25992   0.46782   0.00000  Uiso   1.00
H119   H     0.57395   0.91329   0.40265   0.00000  Uiso   1.00
H120   H     0.53704   0.05663   0.08619   0.00000  Uiso   1.00
H121   H     0.72556   0.47124   0.54191   0.00000  Uiso   1.00
H122   H     0.47440   0.74030   0.40448   0.00000  Uiso   1.00
H123   H     0.16273   0.18775   0.06506   0.00000  Uiso   1.00
H124   H     0.13053   0.17513   0.93446   0.00000  Uiso   1.00
H125   H     0.21994   0.37177   0.15058   0.00000  Uiso   1.00
H126   H     0.10083   0.02514   0.08541   0.00000  Uiso   1.00
H127   H     0.15304   0.14742   0.82871   0.00000  Uiso   1.00
H128   H     0.34156   0.56202   0.28443   0.00000  Uiso   1.00
H129   H     0.09041   0.83109   0.14699   0.00000  Uiso   1.00
O130   O     0.33196   0.09184   0.87697   0.00000  Uiso   1.00
O131   O     0.57929   0.63578   0.47486   0.00000  Uiso   1.00
O132   O     0.24978   0.67681   0.29456   0.00000  Uiso   1.00
N133   N     0.45108   0.07971   0.04351   0.00000  Uiso   1.00
N134   N     0.62733   0.46735   0.46957   0.00000  Uiso   1.00
N135   N     0.39253   0.78400   0.34111   0.00000  Uiso   1.00
N136   N     0.24445   0.12856   0.90496   0.00000  Uiso   1.00
N137   N     0.42071   0.51620   0.33102   0.00000  Uiso   1.00
N138   N     0.18591   0.83285   0.20255   0.00000  Uiso   1.00
C139   C     0.00848   0.60601   0.29689   0.00000  Uiso   1.00
C140   C     0.94216   0.61068   0.19320   0.00000  Uiso   1.00
C141   C     0.00150   0.58742   0.18319   0.00000  Uiso   1.00
C142   C     0.92409   0.59647   0.08143   0.00000  Uiso   1.00
C143   C     0.84121   0.59903   0.93390   0.00000  Uiso   1.00
C144   C     0.99074   0.71753   0.31062   0.00000  Uiso   1.00
C145   C     0.09093   0.78409   0.39934   0.00000  Uiso   1.00
C146   C     0.05441   0.88309   0.39643   0.00000  Uiso   1.00
C147   C     0.04694   0.05150   0.43122   0.00000  Uiso   1.00
C148   C     0.92603   0.52919   0.27520   0.00000  Uiso   1.00
C149   C     0.97181   0.43741   0.33417   0.00000  Uiso   1.00
C150   C     0.88081   0.37785   0.30145   0.00000  Uiso   1.00
C151   C     0.77287   0.25384   0.28126   0.00000  Uiso   1.00
C152   C     0.76549   0.66346   0.13396   0.00000  Uiso   1.00
C153   C     0.81018   0.64189   0.10470   0.00000  Uiso   1.00
C154   C     0.73266   0.65097   0.00293   0.00000  Uiso   1.00
C155   C     0.79187   0.62772   0.99277   0.00000  Uiso   1.00
C156   C     0.85876   0.74874   0.22212   0.00000  Uiso   1.00
C157   C     0.82209   0.84765   0.21908   0.00000  Uiso   1.00
C158   C     0.92219   0.91435   0.30777   0.00000  Uiso   1.00
C159   C     0.79404   0.56039   0.18670   0.00000  Uiso   1.00
C160   C     0.70296   0.50097   0.15390   0.00000  Uiso   1.00
C161   C     0.74859   0.40911   0.21279   0.00000  Uiso   1.00
H162   H     0.11123   0.58172   0.36579   0.00000  Uiso   1.00
H163   H     0.10365   0.56328   0.25170   0.00000  Uiso   1.00
H164   H     0.19305   0.75992   0.46782   0.00000  Uiso   1.00
H165   H     0.07395   0.41329   0.40265   0.00000  Uiso   1.00
H166   H     0.03704   0.55663   0.08619   0.00000  Uiso   1.00
H167   H     0.22556   0.97124   0.54191   0.00000  Uiso   1.00
H168   H     0.97440   0.24030   0.40448   0.00000  Uiso   1.00
H169   H     0.66273   0.68775   0.06506   0.00000  Uiso   1.00
H170   H     0.63053   0.67513   0.93446   0.00000  Uiso   1.00
H171   H     0.71994   0.87177   0.15058   0.00000  Uiso   1.00
H172   H     0.60083   0.52514   0.08541   0.00000  Uiso   1.00
H173   H     0.65304   0.64742   0.82871   0.00000  Uiso   1.00
H174   H     0.84156   0.06202   0.28443   0.00000  Uiso   1.00
H175   H     0.59041   0.33109   0.14699   0.00000  Uiso   1.00
O176   O     0.83196   0.59184   0.87697   0.00000  Uiso   1.00
O177   O     0.07929   0.13578   0.47486   0.00000  Uiso   1.00
O178   O     0.74978   0.17681   0.29456   0.00000  Uiso   1.00
N179   N     0.95108   0.57971   0.04351   0.00000  Uiso   1.00
N180   N     0.12733   0.96735   0.46957   0.00000  Uiso   1.00
N181   N     0.89253   0.28400   0.34111   0.00000  Uiso   1.00
N182   N     0.74445   0.62856   0.90496   0.00000  Uiso   1.00
N183   N     0.92071   0.01620   0.33102   0.00000  Uiso   1.00
N184   N     0.68591   0.33285   0.20255   0.00000  Uiso   1.00
