data_job_04187
_audit_creation_date              2018-12-19
_audit_creation_method            'Materials Studio'
_symmetry_space_group_name_H-M    'P1'
_symmetry_Int_Tables_number       1
_symmetry_cell_setting            triclinic
loop_
_symmetry_equiv_pos_as_xyz
  x,y,z
_cell_length_a                    12.2339
_cell_length_b                    12.2339
_cell_length_c                    36.6777
_cell_angle_alpha                 90.0000
_cell_angle_beta                  90.0000
_cell_angle_gamma                 120.0000
loop_
_atom_site_label
_atom_site_type_symbol
_atom_site_fract_x
_atom_site_fract_y
_atom_site_fract_z
_atom_site_U_iso_or_equiv
_atom_site_adp_type
_atom_site_occupancy
C1     C     0.45883   0.60114   0.09472   0.00000  Uiso   1.00
C2     C     0.57044   0.61491   0.07252   0.00000  Uiso   1.00
C3     C     0.68499   0.72548   0.06797   0.00000  Uiso   1.00
C4     C     0.77506   0.71852   0.04663   0.00000  Uiso   1.00
C5     C     0.95195   0.75719   0.01461   0.00000  Uiso   1.00
C6     C     0.34678   0.54784   0.06864   0.00000  Uiso   1.00
C7     C     0.27327   0.60201   0.06082   0.00000  Uiso   1.00
C8     C     0.17505   0.53858   0.03622   0.00000  Uiso   1.00
C9     C     0.00465   0.47308   0.99819   0.00000  Uiso   1.00
C10    C     0.42930   0.49746   0.12258   0.00000  Uiso   1.00
C11    C     0.42513   0.50925   0.16011   0.00000  Uiso   1.00
C12    C     0.39635   0.40340   0.18093   0.00000  Uiso   1.00
C13    C     0.35407   0.25967   0.22665   0.00000  Uiso   1.00
C14    C     0.41509   0.39217   0.06493   0.00000  Uiso   1.00
C15    C     0.54668   0.50141   0.05635   0.00000  Uiso   1.00
C16    C     0.63660   0.49428   0.03501   0.00000  Uiso   1.00
C17    C     0.75127   0.60481   0.03042   0.00000  Uiso   1.00
C18    C     0.32302   0.43434   0.05246   0.00000  Uiso   1.00
C19    C     0.22488   0.37081   0.02787   0.00000  Uiso   1.00
C20    C     0.15125   0.42487   0.02001   0.00000  Uiso   1.00
C21    C     0.40554   0.38396   0.10640   0.00000  Uiso   1.00
C22    C     0.37675   0.27806   0.12716   0.00000  Uiso   1.00
C23    C     0.37255   0.28969   0.16472   0.00000  Uiso   1.00
H24    H     0.47732   0.68951   0.10731   0.00000  Uiso   1.00
H25    H     0.70333   0.81330   0.08049   0.00000  Uiso   1.00
H26    H     0.29167   0.68984   0.07335   0.00000  Uiso   1.00
H27    H     0.44352   0.59710   0.17262   0.00000  Uiso   1.00
H28    H     0.94342   0.90051   0.04360   0.00000  Uiso   1.00
H29    H     0.07538   0.64017   0.02856   0.00000  Uiso   1.00
H30    H     0.39557   0.44461   0.23790   0.00000  Uiso   1.00
H31    H     0.39660   0.30380   0.05234   0.00000  Uiso   1.00
H32    H     0.61819   0.40643   0.02250   0.00000  Uiso   1.00
H33    H     0.20653   0.28298   0.01536   0.00000  Uiso   1.00
H34    H     0.35837   0.19024   0.11463   0.00000  Uiso   1.00
H35    H     0.87431   0.57028   0.99653   0.00000  Uiso   1.00
H36    H     0.00627   0.30994   0.98149   0.00000  Uiso   1.00
H37    H     0.32647   0.11438   0.19083   0.00000  Uiso   1.00
O38    O     0.05607   0.80987   0.00142   0.00000  Uiso   1.00
O39    O     0.91723   0.46831   0.98169   0.00000  Uiso   1.00
O40    O     0.33733   0.21174   0.25634   0.00000  Uiso   1.00
N41    N     0.89675   0.80870   0.03662   0.00000  Uiso   1.00
N42    N     0.08520   0.56531   0.02255   0.00000  Uiso   1.00
N43    N     0.38452   0.38246   0.21827   0.00000  Uiso   1.00
N44    N     0.85957   0.63100   0.01130   0.00000  Uiso   1.00
N45    N     0.04802   0.38761   0.99723   0.00000  Uiso   1.00
N46    N     0.34734   0.20477   0.19294   0.00000  Uiso   1.00
C47    C     0.64657   0.48217   0.90383   0.00000  Uiso   1.00
C48    C     0.66146   0.59414   0.92607   0.00000  Uiso   1.00
C49    C     0.77239   0.70852   0.93038   0.00000  Uiso   1.00
C50    C     0.76649   0.79898   0.95181   0.00000  Uiso   1.00
C51    C     0.80679   0.97635   0.98384   0.00000  Uiso   1.00
C52    C     0.59377   0.37034   0.92999   0.00000  Uiso   1.00
C53    C     0.64779   0.29654   0.93758   0.00000  Uiso   1.00
C54    C     0.58488   0.19860   0.96230   0.00000  Uiso   1.00
C55    C     0.52005   0.02846   0.00039   0.00000  Uiso   1.00
C56    C     0.54210   0.45273   0.87627   0.00000  Uiso   1.00
C57    C     0.55265   0.44818   0.83870   0.00000  Uiso   1.00
C58    C     0.44623   0.41958   0.81818   0.00000  Uiso   1.00
C59    C     0.30117   0.37737   0.77287   0.00000  Uiso   1.00
C60    C     0.43879   0.43943   0.93422   0.00000  Uiso   1.00
C61    C     0.54860   0.57092   0.94258   0.00000  Uiso   1.00
C62    C     0.54252   0.66124   0.96400   0.00000  Uiso   1.00
C63    C     0.65343   0.77573   0.96834   0.00000  Uiso   1.00
C64    C     0.48092   0.34712   0.94649   0.00000  Uiso   1.00
C65    C     0.41791   0.24926   0.97120   0.00000  Uiso   1.00
C66    C     0.47182   0.17534   0.97884   0.00000  Uiso   1.00
C67    C     0.42924   0.42952   0.89277   0.00000  Uiso   1.00
C68    C     0.32278   0.40091   0.87231   0.00000  Uiso   1.00
C69    C     0.33317   0.39632   0.83472   0.00000  Uiso   1.00
H70    H     0.73443   0.50023   0.89099   0.00000  Uiso   1.00
H71    H     0.85972   0.72644   0.91761   0.00000  Uiso   1.00
H72    H     0.73511   0.31452   0.92481   0.00000  Uiso   1.00
H73    H     0.64000   0.46615   0.82593   0.00000  Uiso   1.00
H74    H     0.94886   0.96698   0.95441   0.00000  Uiso   1.00
H75    H     0.68611   0.09840   0.96958   0.00000  Uiso   1.00
H76    H     0.48555   0.41813   0.76109   0.00000  Uiso   1.00
H77    H     0.35093   0.42136   0.94707   0.00000  Uiso   1.00
H78    H     0.45517   0.64325   0.97677   0.00000  Uiso   1.00
H79    H     0.33058   0.23133   0.98397   0.00000  Uiso   1.00
H80    H     0.23546   0.38295   0.88510   0.00000  Uiso   1.00
H81    H     0.62052   0.89946   0.00243   0.00000  Uiso   1.00
H82    H     0.35777   0.03087   0.01760   0.00000  Uiso   1.00
H83    H     0.15721   0.35060   0.80911   0.00000  Uiso   1.00
O84    O     0.86020   0.08059   0.99696   0.00000  Uiso   1.00
O85    O     0.51547   0.94103   0.01685   0.00000  Uiso   1.00
O86    O     0.25234   0.36052   0.74331   0.00000  Uiso   1.00
N87    N     0.85728   0.92065   0.96163   0.00000  Uiso   1.00
N88    N     0.61163   0.10859   0.97582   0.00000  Uiso   1.00
N89    N     0.42411   0.40747   0.78090   0.00000  Uiso   1.00
N90    N     0.68060   0.88431   0.98747   0.00000  Uiso   1.00
N91    N     0.43496   0.07225   0.00166   0.00000  Uiso   1.00
N92    N     0.24743   0.37114   0.80673   0.00000  Uiso   1.00
C93    C     0.39886   0.85769   0.76139   0.00000  Uiso   1.00
C94    C     0.38509   0.95553   0.73919   0.00000  Uiso   1.00
C95    C     0.27452   0.95951   0.73463   0.00000  Uiso   1.00
C96    C     0.28148   0.05654   0.71330   0.00000  Uiso   1.00
C97    C     0.24281   0.19476   0.68128   0.00000  Uiso   1.00
C98    C     0.45216   0.79894   0.73531   0.00000  Uiso   1.00
C99    C     0.39799   0.67126   0.72749   0.00000  Uiso   1.00
C100   C     0.46142   0.63647   0.70289   0.00000  Uiso   1.00
C101   C     0.52692   0.53157   0.66486   0.00000  Uiso   1.00
C102   C     0.50254   0.93183   0.78925   0.00000  Uiso   1.00
C103   C     0.49075   0.91587   0.82678   0.00000  Uiso   1.00
C104   C     0.59660   0.99296   0.84759   0.00000  Uiso   1.00
C105   C     0.74033   0.09440   0.89331   0.00000  Uiso   1.00
C106   C     0.60783   0.02293   0.73160   0.00000  Uiso   1.00
C107   C     0.49859   0.04527   0.72301   0.00000  Uiso   1.00
C108   C     0.50572   0.14232   0.70168   0.00000  Uiso   1.00
C109   C     0.39519   0.14645   0.69709   0.00000  Uiso   1.00
C110   C     0.56566   0.88868   0.71913   0.00000  Uiso   1.00
C111   C     0.62919   0.85407   0.69454   0.00000  Uiso   1.00
C112   C     0.57513   0.72638   0.68668   0.00000  Uiso   1.00
C113   C     0.61604   0.02159   0.77307   0.00000  Uiso   1.00
C114   C     0.72194   0.09870   0.79383   0.00000  Uiso   1.00
C115   C     0.71031   0.08287   0.83139   0.00000  Uiso   1.00
H116   H     0.31049   0.78781   0.77398   0.00000  Uiso   1.00
H117   H     0.18670   0.89003   0.74715   0.00000  Uiso   1.00
H118   H     0.31016   0.60183   0.74001   0.00000  Uiso   1.00
H119   H     0.40290   0.84641   0.83929   0.00000  Uiso   1.00
H120   H     0.09949   0.04291   0.71027   0.00000  Uiso   1.00
H121   H     0.35983   0.43521   0.69522   0.00000  Uiso   1.00
H122   H     0.55539   0.95097   0.90457   0.00000  Uiso   1.00
H123   H     0.69620   0.09280   0.71901   0.00000  Uiso   1.00
H124   H     0.59357   0.21176   0.68916   0.00000  Uiso   1.00
H125   H     0.71702   0.92355   0.68202   0.00000  Uiso   1.00
H126   H     0.80976   0.16814   0.78130   0.00000  Uiso   1.00
H127   H     0.42972   0.30404   0.66320   0.00000  Uiso   1.00
H128   H     0.69006   0.69633   0.64815   0.00000  Uiso   1.00
H129   H     0.88562   0.21209   0.85750   0.00000  Uiso   1.00
O130   O     0.19013   0.24620   0.66808   0.00000  Uiso   1.00
O131   O     0.53169   0.44892   0.64835   0.00000  Uiso   1.00
O132   O     0.78826   0.12558   0.92300   0.00000  Uiso   1.00
N133   N     0.19130   0.08806   0.70329   0.00000  Uiso   1.00
N134   N     0.43469   0.51989   0.68922   0.00000  Uiso   1.00
N135   N     0.61754   0.00206   0.88494   0.00000  Uiso   1.00
N136   N     0.36900   0.22857   0.67796   0.00000  Uiso   1.00
N137   N     0.61239   0.66040   0.66389   0.00000  Uiso   1.00
N138   N     0.79523   0.14257   0.85961   0.00000  Uiso   1.00
C139   C     0.51783   0.16440   0.57050   0.00000  Uiso   1.00
C140   C     0.40586   0.06732   0.59274   0.00000  Uiso   1.00
C141   C     0.29148   0.06388   0.59705   0.00000  Uiso   1.00
C142   C     0.20102   0.96751   0.61847   0.00000  Uiso   1.00
C143   C     0.02365   0.83044   0.65051   0.00000  Uiso   1.00
C144   C     0.62966   0.22343   0.59665   0.00000  Uiso   1.00
C145   C     0.70346   0.35125   0.60425   0.00000  Uiso   1.00
C146   C     0.80140   0.38628   0.62897   0.00000  Uiso   1.00
C147   C     0.97154   0.49159   0.66706   0.00000  Uiso   1.00
C148   C     0.54727   0.08936   0.54293   0.00000  Uiso   1.00
C149   C     0.55182   0.10447   0.50536   0.00000  Uiso   1.00
C150   C     0.58042   0.02665   0.48485   0.00000  Uiso   1.00
C151   C     0.62263   0.92380   0.43954   0.00000  Uiso   1.00
C152   C     0.56057   0.99936   0.60089   0.00000  Uiso   1.00
C153   C     0.42908   0.97768   0.60924   0.00000  Uiso   1.00
C154   C     0.33876   0.88128   0.63067   0.00000  Uiso   1.00
C155   C     0.22427   0.87770   0.63501   0.00000  Uiso   1.00
C156   C     0.65288   0.13379   0.61316   0.00000  Uiso   1.00
C157   C     0.75074   0.16865   0.63787   0.00000  Uiso   1.00
C158   C     0.82466   0.29648   0.64550   0.00000  Uiso   1.00
C159   C     0.57048   0.99972   0.55944   0.00000  Uiso   1.00
C160   C     0.59909   0.92187   0.53898   0.00000  Uiso   1.00
C161   C     0.60368   0.93685   0.50139   0.00000  Uiso   1.00
H162   H     0.49977   0.23420   0.55765   0.00000  Uiso   1.00
H163   H     0.27356   0.13328   0.58427   0.00000  Uiso   1.00
H164   H     0.68548   0.42059   0.59147   0.00000  Uiso   1.00
H165   H     0.53385   0.17385   0.49260   0.00000  Uiso   1.00
H166   H     0.03302   0.98188   0.62108   0.00000  Uiso   1.00
H167   H     0.90160   0.58771   0.63625   0.00000  Uiso   1.00
H168   H     0.58187   0.06742   0.42775   0.00000  Uiso   1.00
H169   H     0.57864   0.92957   0.61374   0.00000  Uiso   1.00
H170   H     0.35675   0.81192   0.64344   0.00000  Uiso   1.00
H171   H     0.76867   0.09925   0.65063   0.00000  Uiso   1.00
H172   H     0.61705   0.85251   0.55176   0.00000  Uiso   1.00
H173   H     0.10054   0.72107   0.66910   0.00000  Uiso   1.00
H174   H     0.96913   0.32690   0.68426   0.00000  Uiso   1.00
H175   H     0.64940   0.80660   0.47577   0.00000  Uiso   1.00
O176   O     0.91941   0.77961   0.66362   0.00000  Uiso   1.00
O177   O     0.05897   0.57444   0.68352   0.00000  Uiso   1.00
O178   O     0.63948   0.89182   0.40998   0.00000  Uiso   1.00
N179   N     0.07935   0.93663   0.62830   0.00000  Uiso   1.00
N180   N     0.89141   0.50305   0.64248   0.00000  Uiso   1.00
N181   N     0.59253   0.01663   0.44756   0.00000  Uiso   1.00
N182   N     0.11569   0.79629   0.65414   0.00000  Uiso   1.00
N183   N     0.92775   0.36270   0.66832   0.00000  Uiso   1.00
N184   N     0.62886   0.87629   0.47340   0.00000  Uiso   1.00
C185   C     0.14231   0.54117   0.42805   0.00000  Uiso   1.00
C186   C     0.04447   0.42956   0.40586   0.00000  Uiso   1.00
C187   C     0.04049   0.31501   0.40130   0.00000  Uiso   1.00
C188   C     0.94346   0.22494   0.37996   0.00000  Uiso   1.00
C189   C     0.80524   0.04805   0.34795   0.00000  Uiso   1.00
C190   C     0.20106   0.65322   0.40197   0.00000  Uiso   1.00
C191   C     0.32874   0.72673   0.39416   0.00000  Uiso   1.00
C192   C     0.36353   0.82495   0.36955   0.00000  Uiso   1.00
C193   C     0.46843   0.99535   0.33153   0.00000  Uiso   1.00
C194   C     0.06817   0.57070   0.45591   0.00000  Uiso   1.00
C195   C     0.08413   0.57487   0.49345   0.00000  Uiso   1.00
C196   C     0.00704   0.60365   0.51426   0.00000  Uiso   1.00
C197   C     0.90560   0.64593   0.55998   0.00000  Uiso   1.00
C198   C     0.97707   0.58491   0.39827   0.00000  Uiso   1.00
C199   C     0.95473   0.45332   0.38968   0.00000  Uiso   1.00
C200   C     0.85768   0.36340   0.36835   0.00000  Uiso   1.00
C201   C     0.85355   0.24873   0.36376   0.00000  Uiso   1.00
C202   C     0.11132   0.67698   0.38580   0.00000  Uiso   1.00
C203   C     0.14593   0.77512   0.36120   0.00000  Uiso   1.00
C204   C     0.27362   0.84875   0.35335   0.00000  Uiso   1.00
C205   C     0.97841   0.59446   0.43974   0.00000  Uiso   1.00
C206   C     0.90130   0.62325   0.46049   0.00000  Uiso   1.00
C207   C     0.91713   0.62745   0.49805   0.00000  Uiso   1.00
H208   H     0.21219   0.52268   0.44065   0.00000  Uiso   1.00
H209   H     0.10997   0.29667   0.41382   0.00000  Uiso   1.00
H210   H     0.39817   0.70833   0.40668   0.00000  Uiso   1.00
H211   H     0.15359   0.55648   0.50596   0.00000  Uiso   1.00
H212   H     0.95709   0.05658   0.37693   0.00000  Uiso   1.00
H213   H     0.56479   0.92462   0.36189   0.00000  Uiso   1.00
H214   H     0.04903   0.60443   0.57123   0.00000  Uiso   1.00
H215   H     0.90720   0.60340   0.38567   0.00000  Uiso   1.00
H216   H     0.78824   0.38181   0.35583   0.00000  Uiso   1.00
H217   H     0.07645   0.79347   0.34869   0.00000  Uiso   1.00
H218   H     0.83186   0.64163   0.44797   0.00000  Uiso   1.00
H219   H     0.69596   0.12569   0.32986   0.00000  Uiso   1.00
H220   H     0.30367   0.99373   0.31482   0.00000  Uiso   1.00
H221   H     0.78791   0.67353   0.52416   0.00000  Uiso   1.00
O222   O     0.75380   0.94393   0.33475   0.00000  Uiso   1.00
O223   O     0.55108   0.08277   0.31502   0.00000  Uiso   1.00
O224   O     0.87442   0.66267   0.58967   0.00000  Uiso   1.00
N225   N     0.91194   0.10325   0.36996   0.00000  Uiso   1.00
N226   N     0.48011   0.91480   0.35589   0.00000  Uiso   1.00
N227   N     0.99794   0.61548   0.55161   0.00000  Uiso   1.00
N228   N     0.77143   0.14043   0.34463   0.00000  Uiso   1.00
N229   N     0.33960   0.95198   0.33056   0.00000  Uiso   1.00
N230   N     0.85743   0.65266   0.52628   0.00000  Uiso   1.00
C231   C     0.83560   0.35343   0.23717   0.00000  Uiso   1.00
C232   C     0.93268   0.33854   0.25941   0.00000  Uiso   1.00
C233   C     0.93612   0.22761   0.26372   0.00000  Uiso   1.00
C234   C     0.03249   0.23351   0.28514   0.00000  Uiso   1.00
C235   C     0.16956   0.19321   0.31718   0.00000  Uiso   1.00
C236   C     0.77657   0.40623   0.26332   0.00000  Uiso   1.00
C237   C     0.64875   0.35221   0.27092   0.00000  Uiso   1.00
C238   C     0.61372   0.41512   0.29564   0.00000  Uiso   1.00
C239   C     0.50841   0.47995   0.33373   0.00000  Uiso   1.00
C240   C     0.91064   0.45790   0.20960   0.00000  Uiso   1.00
C241   C     0.89553   0.44735   0.17203   0.00000  Uiso   1.00
C242   C     0.97335   0.55377   0.15152   0.00000  Uiso   1.00
C243   C     0.07620   0.69883   0.10620   0.00000  Uiso   1.00
C244   C     0.00064   0.56121   0.26755   0.00000  Uiso   1.00
C245   C     0.02232   0.45140   0.27591   0.00000  Uiso   1.00
C246   C     0.11872   0.45748   0.29733   0.00000  Uiso   1.00
C247   C     0.12230   0.34657   0.30167   0.00000  Uiso   1.00
C248   C     0.86621   0.51908   0.27983   0.00000  Uiso   1.00
C249   C     0.83135   0.58209   0.30454   0.00000  Uiso   1.00
C250   C     0.70352   0.52818   0.31217   0.00000  Uiso   1.00
C251   C     0.00028   0.57076   0.22610   0.00000  Uiso   1.00
C252   C     0.07813   0.67722   0.20565   0.00000  Uiso   1.00
C253   C     0.06315   0.66683   0.16805   0.00000  Uiso   1.00
H254   H     0.76580   0.26557   0.22432   0.00000  Uiso   1.00
H255   H     0.86672   0.14028   0.25094   0.00000  Uiso   1.00
H256   H     0.57941   0.26489   0.25814   0.00000  Uiso   1.00
H257   H     0.82615   0.36000   0.15927   0.00000  Uiso   1.00
H258   H     0.01812   0.05114   0.28775   0.00000  Uiso   1.00
H259   H     0.41229   0.31389   0.30291   0.00000  Uiso   1.00
H260   H     0.93258   0.51446   0.09442   0.00000  Uiso   1.00
H261   H     0.07043   0.64907   0.28040   0.00000  Uiso   1.00
H262   H     0.18808   0.54483   0.31010   0.00000  Uiso   1.00
H263   H     0.90075   0.66942   0.31730   0.00000  Uiso   1.00
H264   H     0.14749   0.76454   0.21843   0.00000  Uiso   1.00
H265   H     0.27893   0.37948   0.33577   0.00000  Uiso   1.00
H266   H     0.67310   0.64223   0.35093   0.00000  Uiso   1.00
H267   H     0.19340   0.84279   0.14244   0.00000  Uiso   1.00
O268   O     0.22039   0.13980   0.33029   0.00000  Uiso   1.00
O269   O     0.42556   0.48453   0.35018   0.00000  Uiso   1.00
O270   O     0.10818   0.74766   0.07665   0.00000  Uiso   1.00
N271   N     0.06337   0.14272   0.29497   0.00000  Uiso   1.00
N272   N     0.49695   0.38837   0.30915   0.00000  Uiso   1.00
N273   N     0.98337   0.57589   0.11423   0.00000  Uiso   1.00
N274   N     0.20371   0.31940   0.32080   0.00000  Uiso   1.00
N275   N     0.63730   0.56504   0.33499   0.00000  Uiso   1.00
N276   N     0.12371   0.75257   0.14007   0.00000  Uiso   1.00
