data_job_05160
_audit_creation_date              2018-12-19
_audit_creation_method            'Materials Studio'
_symmetry_space_group_name_H-M    'P1'
_symmetry_Int_Tables_number       1
_symmetry_cell_setting            triclinic
loop_
_symmetry_equiv_pos_as_xyz
  x,y,z
_cell_length_a                    9.4374
_cell_length_b                    15.0263
_cell_length_c                    39.7170
_cell_angle_alpha                 90.0000
_cell_angle_beta                  90.0000
_cell_angle_gamma                 90.0000
loop_
_atom_site_label
_atom_site_type_symbol
_atom_site_fract_x
_atom_site_fract_y
_atom_site_fract_z
_atom_site_U_iso_or_equiv
_atom_site_adp_type
_atom_site_occupancy
C1     C     0.72202   0.51909   0.83604   0.00000  Uiso   1.00
C2     C     0.75185   0.56572   0.86940   0.00000  Uiso   1.00
C3     C     0.87873   0.60577   0.87847   0.00000  Uiso   1.00
C4     C     0.88476   0.64486   0.91011   0.00000  Uiso   1.00
C5     C     0.94885   0.71739   0.95860   0.00000  Uiso   1.00
C6     C     0.67444   0.42507   0.84505   0.00000  Uiso   1.00
C7     C     0.73623   0.34687   0.83365   0.00000  Uiso   1.00
C8     C     0.67708   0.26756   0.84479   0.00000  Uiso   1.00
C9     C     0.62093   0.12172   0.85546   0.00000  Uiso   1.00
C10    C     0.59250   0.56522   0.82114   0.00000  Uiso   1.00
C11    C     0.58538   0.60484   0.78962   0.00000  Uiso   1.00
C12    C     0.45723   0.64350   0.78062   0.00000  Uiso   1.00
C13    C     0.27386   0.71527   0.75416   0.00000  Uiso   1.00
C14    C     0.50709   0.51728   0.87611   0.00000  Uiso   1.00
C15    C     0.63510   0.56474   0.89116   0.00000  Uiso   1.00
C16    C     0.64094   0.60378   0.92280   0.00000  Uiso   1.00
C17    C     0.76781   0.64389   0.93191   0.00000  Uiso   1.00
C18    C     0.55770   0.42409   0.86682   0.00000  Uiso   1.00
C19    C     0.49844   0.34488   0.87798   0.00000  Uiso   1.00
C20    C     0.56013   0.26658   0.86659   0.00000  Uiso   1.00
C21    C     0.47575   0.56424   0.84290   0.00000  Uiso   1.00
C22    C     0.34759   0.60285   0.83395   0.00000  Uiso   1.00
C23    C     0.34028   0.64252   0.80243   0.00000  Uiso   1.00
H24    H     0.81291   0.51984   0.81910   0.00000  Uiso   1.00
H25    H     0.96906   0.60651   0.86162   0.00000  Uiso   1.00
H26    H     0.82656   0.34765   0.81680   0.00000  Uiso   1.00
H27    H     0.67574   0.60558   0.77278   0.00000  Uiso   1.00
H28    H     0.09071   0.70214   0.91836   0.00000  Uiso   1.00
H29    H     0.79023   0.15632   0.82386   0.00000  Uiso   1.00
H30    H     0.47218   0.70021   0.73103   0.00000  Uiso   1.00
H31    H     0.41620   0.51652   0.89306   0.00000  Uiso   1.00
H32    H     0.55058   0.60301   0.93964   0.00000  Uiso   1.00
H33    H     0.40809   0.34414   0.89482   0.00000  Uiso   1.00
H34    H     0.25727   0.60208   0.85080   0.00000  Uiso   1.00
H35    H     0.75106   0.69929   0.98169   0.00000  Uiso   1.00
H36    H     0.45058   0.15347   0.88718   0.00000  Uiso   1.00
H37    H     0.13253   0.69737   0.79435   0.00000  Uiso   1.00
O38    O     0.01646   0.75765   0.97934   0.00000  Uiso   1.00
O39    O     0.62223   0.04155   0.85534   0.00000  Uiso   1.00
O40    O     0.20496   0.75513   0.73356   0.00000  Uiso   1.00
N41    N     0.99232   0.68962   0.92687   0.00000  Uiso   1.00
N42    N     0.71141   0.17930   0.83852   0.00000  Uiso   1.00
N43    N     0.41405   0.68778   0.75173   0.00000  Uiso   1.00
N44    N     0.80956   0.68809   0.96094   0.00000  Uiso   1.00
N45    N     0.52864   0.17777   0.87259   0.00000  Uiso   1.00
N46    N     0.23129   0.68625   0.78580   0.00000  Uiso   1.00
C47    C     0.95164   0.48434   0.67016   0.00000  Uiso   1.00
C48    C     0.98288   0.43665   0.63710   0.00000  Uiso   1.00
C49    C     0.11014   0.39630   0.62852   0.00000  Uiso   1.00
C50    C     0.11751   0.35621   0.59707   0.00000  Uiso   1.00
C51    C     0.18366   0.28215   0.54907   0.00000  Uiso   1.00
C52    C     0.90449   0.57806   0.66061   0.00000  Uiso   1.00
C53    C     0.96582   0.65662   0.67182   0.00000  Uiso   1.00
C54    C     0.90719   0.73557   0.66017   0.00000  Uiso   1.00
C55    C     0.85156   0.88107   0.64870   0.00000  Uiso   1.00
C56    C     0.82146   0.43869   0.68496   0.00000  Uiso   1.00
C57    C     0.81297   0.40007   0.71664   0.00000  Uiso   1.00
C58    C     0.68442   0.36171   0.72550   0.00000  Uiso   1.00
C59    C     0.49988   0.29080   0.75183   0.00000  Uiso   1.00
C60    C     0.73845   0.48489   0.62957   0.00000  Uiso   1.00
C61    C     0.86708   0.43695   0.61505   0.00000  Uiso   1.00
C62    C     0.87427   0.39691   0.58361   0.00000  Uiso   1.00
C63    C     0.00151   0.35651   0.57498   0.00000  Uiso   1.00
C64    C     0.78869   0.57837   0.63856   0.00000  Uiso   1.00
C65    C     0.72995   0.65723   0.62690   0.00000  Uiso   1.00
C66    C     0.79118   0.73588   0.63808   0.00000  Uiso   1.00
C67    C     0.70566   0.43899   0.66291   0.00000  Uiso   1.00
C68    C     0.57710   0.40068   0.67172   0.00000  Uiso   1.00
C69    C     0.56841   0.36201   0.70341   0.00000  Uiso   1.00
H70    H     0.04179   0.48411   0.68733   0.00000  Uiso   1.00
H71    H     0.19973   0.39609   0.64559   0.00000  Uiso   1.00
H72    H     0.05542   0.65636   0.68888   0.00000  Uiso   1.00
H73    H     0.90260   0.39985   0.73370   0.00000  Uiso   1.00
H74    H     0.32378   0.29866   0.58958   0.00000  Uiso   1.00
H75    H     0.01947   0.84746   0.68087   0.00000  Uiso   1.00
H76    H     0.69721   0.30657   0.77538   0.00000  Uiso   1.00
H77    H     0.64829   0.48513   0.61240   0.00000  Uiso   1.00
H78    H     0.78464   0.39715   0.56655   0.00000  Uiso   1.00
H79    H     0.64034   0.65743   0.60984   0.00000  Uiso   1.00
H80    H     0.48751   0.40093   0.65465   0.00000  Uiso   1.00
H81    H     0.98688   0.29953   0.52543   0.00000  Uiso   1.00
H82    H     0.68257   0.84834   0.61672   0.00000  Uiso   1.00
H83    H     0.36031   0.30744   0.71122   0.00000  Uiso   1.00
O84    O     0.25214   0.24123   0.52869   0.00000  Uiso   1.00
O85    O     0.85288   0.96124   0.64847   0.00000  Uiso   1.00
O86    O     0.43009   0.25160   0.77245   0.00000  Uiso   1.00
N87    N     0.22577   0.31092   0.58078   0.00000  Uiso   1.00
N88    N     0.94128   0.82402   0.66613   0.00000  Uiso   1.00
N89    N     0.63998   0.31835   0.75448   0.00000  Uiso   1.00
N90    N     0.04449   0.31139   0.54626   0.00000  Uiso   1.00
N91    N     0.75999   0.82449   0.63161   0.00000  Uiso   1.00
N92    N     0.45869   0.31882   0.71996   0.00000  Uiso   1.00
C93    C     0.27798   0.48091   0.33604   0.00000  Uiso   1.00
C94    C     0.24815   0.43428   0.36940   0.00000  Uiso   1.00
C95    C     0.12127   0.39423   0.37847   0.00000  Uiso   1.00
C96    C     0.11524   0.35514   0.41011   0.00000  Uiso   1.00
C97    C     0.05115   0.28261   0.45860   0.00000  Uiso   1.00
C98    C     0.32556   0.57493   0.34505   0.00000  Uiso   1.00
C99    C     0.26377   0.65313   0.33365   0.00000  Uiso   1.00
C100   C     0.32292   0.73244   0.34479   0.00000  Uiso   1.00
C101   C     0.37907   0.87828   0.35546   0.00000  Uiso   1.00
C102   C     0.40750   0.43478   0.32114   0.00000  Uiso   1.00
C103   C     0.41462   0.39516   0.28962   0.00000  Uiso   1.00
C104   C     0.54277   0.35650   0.28062   0.00000  Uiso   1.00
C105   C     0.72614   0.28473   0.25416   0.00000  Uiso   1.00
C106   C     0.49291   0.48272   0.37611   0.00000  Uiso   1.00
C107   C     0.36490   0.43526   0.39116   0.00000  Uiso   1.00
C108   C     0.35906   0.39622   0.42280   0.00000  Uiso   1.00
C109   C     0.23219   0.35611   0.43191   0.00000  Uiso   1.00
C110   C     0.44230   0.57591   0.36682   0.00000  Uiso   1.00
C111   C     0.50156   0.65512   0.37798   0.00000  Uiso   1.00
C112   C     0.43987   0.73342   0.36659   0.00000  Uiso   1.00
C113   C     0.52425   0.43576   0.34290   0.00000  Uiso   1.00
C114   C     0.65241   0.39715   0.33395   0.00000  Uiso   1.00
C115   C     0.65972   0.35748   0.30243   0.00000  Uiso   1.00
H116   H     0.18709   0.48016   0.31910   0.00000  Uiso   1.00
H117   H     0.03094   0.39349   0.36162   0.00000  Uiso   1.00
H118   H     0.17344   0.65235   0.31680   0.00000  Uiso   1.00
H119   H     0.32426   0.39442   0.27278   0.00000  Uiso   1.00
H120   H     0.90929   0.29786   0.41836   0.00000  Uiso   1.00
H121   H     0.20977   0.84368   0.32386   0.00000  Uiso   1.00
H122   H     0.52782   0.29979   0.23103   0.00000  Uiso   1.00
H123   H     0.58380   0.48348   0.39306   0.00000  Uiso   1.00
H124   H     0.44942   0.39699   0.43964   0.00000  Uiso   1.00
H125   H     0.59191   0.65586   0.39482   0.00000  Uiso   1.00
H126   H     0.74273   0.39792   0.35080   0.00000  Uiso   1.00
H127   H     0.24894   0.30071   0.48169   0.00000  Uiso   1.00
H128   H     0.54942   0.84653   0.38718   0.00000  Uiso   1.00
H129   H     0.86747   0.30263   0.29435   0.00000  Uiso   1.00
O130   O     0.98354   0.24235   0.47934   0.00000  Uiso   1.00
O131   O     0.37777   0.95845   0.35534   0.00000  Uiso   1.00
O132   O     0.79504   0.24487   0.23356   0.00000  Uiso   1.00
N133   N     0.00768   0.31038   0.42687   0.00000  Uiso   1.00
N134   N     0.28859   0.82070   0.33852   0.00000  Uiso   1.00
N135   N     0.58595   0.31222   0.25173   0.00000  Uiso   1.00
N136   N     0.19044   0.31191   0.46094   0.00000  Uiso   1.00
N137   N     0.47136   0.82223   0.37259   0.00000  Uiso   1.00
N138   N     0.76871   0.31375   0.28580   0.00000  Uiso   1.00
C139   C     0.04836   0.51566   0.17016   0.00000  Uiso   1.00
C140   C     0.01712   0.56335   0.13710   0.00000  Uiso   1.00
C141   C     0.88986   0.60370   0.12852   0.00000  Uiso   1.00
C142   C     0.88249   0.64379   0.09707   0.00000  Uiso   1.00
C143   C     0.81634   0.71785   0.04907   0.00000  Uiso   1.00
C144   C     0.09551   0.42194   0.16061   0.00000  Uiso   1.00
C145   C     0.03418   0.34338   0.17182   0.00000  Uiso   1.00
C146   C     0.09281   0.26443   0.16017   0.00000  Uiso   1.00
C147   C     0.14844   0.11893   0.14870   0.00000  Uiso   1.00
C148   C     0.17854   0.56131   0.18496   0.00000  Uiso   1.00
C149   C     0.18703   0.59993   0.21664   0.00000  Uiso   1.00
C150   C     0.31558   0.63829   0.22550   0.00000  Uiso   1.00
C151   C     0.50012   0.70920   0.25183   0.00000  Uiso   1.00
C152   C     0.26155   0.51511   0.12957   0.00000  Uiso   1.00
C153   C     0.13292   0.56305   0.11505   0.00000  Uiso   1.00
C154   C     0.12573   0.60309   0.08361   0.00000  Uiso   1.00
C155   C     0.99849   0.64349   0.07498   0.00000  Uiso   1.00
C156   C     0.21131   0.42163   0.13856   0.00000  Uiso   1.00
C157   C     0.27005   0.34277   0.12690   0.00000  Uiso   1.00
C158   C     0.20882   0.26412   0.13808   0.00000  Uiso   1.00
C159   C     0.29434   0.56101   0.16291   0.00000  Uiso   1.00
C160   C     0.42290   0.59932   0.17172   0.00000  Uiso   1.00
C161   C     0.43159   0.63799   0.20341   0.00000  Uiso   1.00
H162   H     0.95821   0.51589   0.18733   0.00000  Uiso   1.00
H163   H     0.80027   0.60391   0.14559   0.00000  Uiso   1.00
H164   H     0.94458   0.34364   0.18888   0.00000  Uiso   1.00
H165   H     0.09740   0.60015   0.23370   0.00000  Uiso   1.00
H166   H     0.67622   0.70134   0.08958   0.00000  Uiso   1.00
H167   H     0.98053   0.15254   0.18087   0.00000  Uiso   1.00
H168   H     0.30279   0.69343   0.27538   0.00000  Uiso   1.00
H169   H     0.35171   0.51487   0.11240   0.00000  Uiso   1.00
H170   H     0.21536   0.60285   0.06655   0.00000  Uiso   1.00
H171   H     0.35966   0.34257   0.10984   0.00000  Uiso   1.00
H172   H     0.51249   0.59907   0.15465   0.00000  Uiso   1.00
H173   H     0.01312   0.70047   0.02543   0.00000  Uiso   1.00
H174   H     0.31743   0.15166   0.11672   0.00000  Uiso   1.00
H175   H     0.63969   0.69256   0.21122   0.00000  Uiso   1.00
O176   O     0.74786   0.75877   0.02869   0.00000  Uiso   1.00
O177   O     0.14712   0.03876   0.14847   0.00000  Uiso   1.00
O178   O     0.56991   0.74840   0.27245   0.00000  Uiso   1.00
N179   N     0.77423   0.68908   0.08078   0.00000  Uiso   1.00
N180   N     0.05872   0.17598   0.16613   0.00000  Uiso   1.00
N181   N     0.36002   0.68165   0.25448   0.00000  Uiso   1.00
N182   N     0.95551   0.68861   0.04626   0.00000  Uiso   1.00
N183   N     0.24001   0.17551   0.13161   0.00000  Uiso   1.00
N184   N     0.54131   0.68118   0.21996   0.00000  Uiso   1.00
C185   C     0.22202   0.98091   0.83604   0.00000  Uiso   1.00
C186   C     0.25185   0.93428   0.86940   0.00000  Uiso   1.00
C187   C     0.37873   0.89423   0.87847   0.00000  Uiso   1.00
C188   C     0.38476   0.85514   0.91011   0.00000  Uiso   1.00
C189   C     0.44885   0.78261   0.95860   0.00000  Uiso   1.00
C190   C     0.17444   0.07493   0.84505   0.00000  Uiso   1.00
C191   C     0.23623   0.15313   0.83365   0.00000  Uiso   1.00
C192   C     0.17708   0.23244   0.84479   0.00000  Uiso   1.00
C193   C     0.12093   0.37828   0.85546   0.00000  Uiso   1.00
C194   C     0.09250   0.93478   0.82114   0.00000  Uiso   1.00
C195   C     0.08538   0.89516   0.78962   0.00000  Uiso   1.00
C196   C     0.95723   0.85650   0.78062   0.00000  Uiso   1.00
C197   C     0.77386   0.78473   0.75416   0.00000  Uiso   1.00
C198   C     0.00709   0.98272   0.87611   0.00000  Uiso   1.00
C199   C     0.13510   0.93526   0.89116   0.00000  Uiso   1.00
C200   C     0.14094   0.89622   0.92280   0.00000  Uiso   1.00
C201   C     0.26781   0.85611   0.93191   0.00000  Uiso   1.00
C202   C     0.05770   0.07591   0.86682   0.00000  Uiso   1.00
C203   C     0.99844   0.15512   0.87798   0.00000  Uiso   1.00
C204   C     0.06013   0.23342   0.86659   0.00000  Uiso   1.00
C205   C     0.97575   0.93576   0.84290   0.00000  Uiso   1.00
C206   C     0.84759   0.89715   0.83395   0.00000  Uiso   1.00
C207   C     0.84028   0.85748   0.80243   0.00000  Uiso   1.00
H208   H     0.31291   0.98016   0.81910   0.00000  Uiso   1.00
H209   H     0.46906   0.89349   0.86162   0.00000  Uiso   1.00
H210   H     0.32656   0.15235   0.81680   0.00000  Uiso   1.00
H211   H     0.17574   0.89442   0.77278   0.00000  Uiso   1.00
H212   H     0.59071   0.79786   0.91836   0.00000  Uiso   1.00
H213   H     0.29023   0.34368   0.82386   0.00000  Uiso   1.00
H214   H     0.97218   0.79979   0.73103   0.00000  Uiso   1.00
H215   H     0.91620   0.98348   0.89306   0.00000  Uiso   1.00
H216   H     0.05058   0.89699   0.93964   0.00000  Uiso   1.00
H217   H     0.90809   0.15586   0.89482   0.00000  Uiso   1.00
H218   H     0.75727   0.89792   0.85080   0.00000  Uiso   1.00
H219   H     0.25106   0.80071   0.98169   0.00000  Uiso   1.00
H220   H     0.95058   0.34653   0.88718   0.00000  Uiso   1.00
H221   H     0.63253   0.80263   0.79435   0.00000  Uiso   1.00
O222   O     0.51646   0.74235   0.97934   0.00000  Uiso   1.00
O223   O     0.12223   0.45845   0.85534   0.00000  Uiso   1.00
O224   O     0.70496   0.74487   0.73356   0.00000  Uiso   1.00
N225   N     0.49232   0.81038   0.92687   0.00000  Uiso   1.00
N226   N     0.21141   0.32070   0.83852   0.00000  Uiso   1.00
N227   N     0.91405   0.81222   0.75173   0.00000  Uiso   1.00
N228   N     0.30956   0.81191   0.96094   0.00000  Uiso   1.00
N229   N     0.02864   0.32223   0.87259   0.00000  Uiso   1.00
N230   N     0.73129   0.81375   0.78580   0.00000  Uiso   1.00
C231   C     0.45164   0.01566   0.67016   0.00000  Uiso   1.00
C232   C     0.48288   0.06335   0.63710   0.00000  Uiso   1.00
C233   C     0.61014   0.10370   0.62852   0.00000  Uiso   1.00
C234   C     0.61751   0.14379   0.59707   0.00000  Uiso   1.00
C235   C     0.68366   0.21785   0.54907   0.00000  Uiso   1.00
C236   C     0.40449   0.92194   0.66061   0.00000  Uiso   1.00
C237   C     0.46582   0.84338   0.67182   0.00000  Uiso   1.00
C238   C     0.40719   0.76443   0.66017   0.00000  Uiso   1.00
C239   C     0.35156   0.61893   0.64870   0.00000  Uiso   1.00
C240   C     0.32146   0.06131   0.68496   0.00000  Uiso   1.00
C241   C     0.31297   0.09993   0.71664   0.00000  Uiso   1.00
C242   C     0.18442   0.13829   0.72550   0.00000  Uiso   1.00
C243   C     0.99988   0.20920   0.75183   0.00000  Uiso   1.00
C244   C     0.23845   0.01511   0.62957   0.00000  Uiso   1.00
C245   C     0.36708   0.06305   0.61505   0.00000  Uiso   1.00
C246   C     0.37427   0.10309   0.58361   0.00000  Uiso   1.00
C247   C     0.50151   0.14349   0.57498   0.00000  Uiso   1.00
C248   C     0.28869   0.92163   0.63856   0.00000  Uiso   1.00
C249   C     0.22995   0.84277   0.62690   0.00000  Uiso   1.00
C250   C     0.29118   0.76412   0.63808   0.00000  Uiso   1.00
C251   C     0.20566   0.06101   0.66291   0.00000  Uiso   1.00
C252   C     0.07710   0.09932   0.67172   0.00000  Uiso   1.00
C253   C     0.06841   0.13799   0.70341   0.00000  Uiso   1.00
H254   H     0.54179   0.01589   0.68733   0.00000  Uiso   1.00
H255   H     0.69973   0.10391   0.64559   0.00000  Uiso   1.00
H256   H     0.55542   0.84364   0.68888   0.00000  Uiso   1.00
H257   H     0.40260   0.10015   0.73370   0.00000  Uiso   1.00
H258   H     0.82378   0.20134   0.58958   0.00000  Uiso   1.00
H259   H     0.51947   0.65254   0.68087   0.00000  Uiso   1.00
H260   H     0.19721   0.19343   0.77538   0.00000  Uiso   1.00
H261   H     0.14829   0.01487   0.61240   0.00000  Uiso   1.00
H262   H     0.28464   0.10285   0.56655   0.00000  Uiso   1.00
H263   H     0.14034   0.84257   0.60984   0.00000  Uiso   1.00
H264   H     0.98751   0.09907   0.65465   0.00000  Uiso   1.00
H265   H     0.48688   0.20047   0.52543   0.00000  Uiso   1.00
H266   H     0.18257   0.65166   0.61672   0.00000  Uiso   1.00
H267   H     0.86031   0.19256   0.71122   0.00000  Uiso   1.00
O268   O     0.75214   0.25877   0.52869   0.00000  Uiso   1.00
O269   O     0.35288   0.53876   0.64847   0.00000  Uiso   1.00
O270   O     0.93009   0.24840   0.77245   0.00000  Uiso   1.00
N271   N     0.72577   0.18908   0.58078   0.00000  Uiso   1.00
N272   N     0.44128   0.67598   0.66613   0.00000  Uiso   1.00
N273   N     0.13998   0.18165   0.75448   0.00000  Uiso   1.00
N274   N     0.54449   0.18861   0.54626   0.00000  Uiso   1.00
N275   N     0.25999   0.67551   0.63161   0.00000  Uiso   1.00
N276   N     0.95869   0.18118   0.71996   0.00000  Uiso   1.00
C277   C     0.77798   0.01909   0.33604   0.00000  Uiso   1.00
C278   C     0.74815   0.06572   0.36940   0.00000  Uiso   1.00
C279   C     0.62127   0.10577   0.37847   0.00000  Uiso   1.00
C280   C     0.61524   0.14486   0.41011   0.00000  Uiso   1.00
C281   C     0.55115   0.21739   0.45860   0.00000  Uiso   1.00
C282   C     0.82556   0.92507   0.34505   0.00000  Uiso   1.00
C283   C     0.76377   0.84687   0.33365   0.00000  Uiso   1.00
C284   C     0.82292   0.76756   0.34479   0.00000  Uiso   1.00
C285   C     0.87907   0.62172   0.35546   0.00000  Uiso   1.00
C286   C     0.90750   0.06522   0.32114   0.00000  Uiso   1.00
C287   C     0.91462   0.10484   0.28962   0.00000  Uiso   1.00
C288   C     0.04277   0.14350   0.28062   0.00000  Uiso   1.00
C289   C     0.22614   0.21527   0.25416   0.00000  Uiso   1.00
C290   C     0.99291   0.01728   0.37611   0.00000  Uiso   1.00
C291   C     0.86490   0.06474   0.39116   0.00000  Uiso   1.00
C292   C     0.85906   0.10378   0.42280   0.00000  Uiso   1.00
C293   C     0.73219   0.14389   0.43191   0.00000  Uiso   1.00
C294   C     0.94230   0.92409   0.36682   0.00000  Uiso   1.00
C295   C     0.00156   0.84488   0.37798   0.00000  Uiso   1.00
C296   C     0.93987   0.76658   0.36659   0.00000  Uiso   1.00
C297   C     0.02425   0.06424   0.34290   0.00000  Uiso   1.00
C298   C     0.15241   0.10285   0.33395   0.00000  Uiso   1.00
C299   C     0.15972   0.14252   0.30243   0.00000  Uiso   1.00
H300   H     0.68709   0.01984   0.31910   0.00000  Uiso   1.00
H301   H     0.53094   0.10651   0.36162   0.00000  Uiso   1.00
H302   H     0.67344   0.84765   0.31680   0.00000  Uiso   1.00
H303   H     0.82426   0.10558   0.27278   0.00000  Uiso   1.00
H304   H     0.40929   0.20214   0.41836   0.00000  Uiso   1.00
H305   H     0.70977   0.65632   0.32386   0.00000  Uiso   1.00
H306   H     0.02782   0.20021   0.23103   0.00000  Uiso   1.00
H307   H     0.08380   0.01652   0.39306   0.00000  Uiso   1.00
H308   H     0.94942   0.10301   0.43964   0.00000  Uiso   1.00
H309   H     0.09191   0.84414   0.39482   0.00000  Uiso   1.00
H310   H     0.24273   0.10208   0.35080   0.00000  Uiso   1.00
H311   H     0.74894   0.19929   0.48169   0.00000  Uiso   1.00
H312   H     0.04942   0.65347   0.38718   0.00000  Uiso   1.00
H313   H     0.36747   0.19737   0.29435   0.00000  Uiso   1.00
O314   O     0.48354   0.25765   0.47934   0.00000  Uiso   1.00
O315   O     0.87777   0.54155   0.35534   0.00000  Uiso   1.00
O316   O     0.29504   0.25513   0.23356   0.00000  Uiso   1.00
N317   N     0.50768   0.18962   0.42687   0.00000  Uiso   1.00
N318   N     0.78859   0.67930   0.33852   0.00000  Uiso   1.00
N319   N     0.08595   0.18778   0.25173   0.00000  Uiso   1.00
N320   N     0.69044   0.18809   0.46094   0.00000  Uiso   1.00
N321   N     0.97136   0.67777   0.37259   0.00000  Uiso   1.00
N322   N     0.26871   0.18625   0.28580   0.00000  Uiso   1.00
C323   C     0.54836   0.98434   0.17016   0.00000  Uiso   1.00
C324   C     0.51712   0.93665   0.13710   0.00000  Uiso   1.00
C325   C     0.38986   0.89630   0.12852   0.00000  Uiso   1.00
C326   C     0.38249   0.85621   0.09707   0.00000  Uiso   1.00
C327   C     0.31634   0.78215   0.04907   0.00000  Uiso   1.00
C328   C     0.59551   0.07806   0.16061   0.00000  Uiso   1.00
C329   C     0.53418   0.15662   0.17182   0.00000  Uiso   1.00
C330   C     0.59281   0.23557   0.16017   0.00000  Uiso   1.00
C331   C     0.64844   0.38107   0.14870   0.00000  Uiso   1.00
C332   C     0.67854   0.93869   0.18496   0.00000  Uiso   1.00
C333   C     0.68703   0.90007   0.21664   0.00000  Uiso   1.00
C334   C     0.81558   0.86171   0.22550   0.00000  Uiso   1.00
C335   C     0.00012   0.79080   0.25183   0.00000  Uiso   1.00
C336   C     0.76155   0.98489   0.12957   0.00000  Uiso   1.00
C337   C     0.63292   0.93695   0.11505   0.00000  Uiso   1.00
C338   C     0.62573   0.89691   0.08361   0.00000  Uiso   1.00
C339   C     0.49849   0.85651   0.07498   0.00000  Uiso   1.00
C340   C     0.71131   0.07837   0.13856   0.00000  Uiso   1.00
C341   C     0.77005   0.15723   0.12690   0.00000  Uiso   1.00
C342   C     0.70882   0.23588   0.13808   0.00000  Uiso   1.00
C343   C     0.79434   0.93899   0.16291   0.00000  Uiso   1.00
C344   C     0.92290   0.90068   0.17172   0.00000  Uiso   1.00
C345   C     0.93159   0.86201   0.20341   0.00000  Uiso   1.00
H346   H     0.45821   0.98411   0.18733   0.00000  Uiso   1.00
H347   H     0.30027   0.89609   0.14559   0.00000  Uiso   1.00
H348   H     0.44458   0.15636   0.18888   0.00000  Uiso   1.00
H349   H     0.59740   0.89985   0.23370   0.00000  Uiso   1.00
H350   H     0.17622   0.79866   0.08958   0.00000  Uiso   1.00
H351   H     0.48053   0.34746   0.18087   0.00000  Uiso   1.00
H352   H     0.80279   0.80657   0.27538   0.00000  Uiso   1.00
H353   H     0.85171   0.98513   0.11240   0.00000  Uiso   1.00
H354   H     0.71536   0.89715   0.06655   0.00000  Uiso   1.00
H355   H     0.85966   0.15743   0.10984   0.00000  Uiso   1.00
H356   H     0.01249   0.90093   0.15465   0.00000  Uiso   1.00
H357   H     0.51312   0.79953   0.02543   0.00000  Uiso   1.00
H358   H     0.81743   0.34834   0.11672   0.00000  Uiso   1.00
H359   H     0.13969   0.80744   0.21122   0.00000  Uiso   1.00
O360   O     0.24786   0.74123   0.02869   0.00000  Uiso   1.00
O361   O     0.64712   0.46124   0.14847   0.00000  Uiso   1.00
O362   O     0.06991   0.75160   0.27245   0.00000  Uiso   1.00
N363   N     0.27423   0.81092   0.08078   0.00000  Uiso   1.00
N364   N     0.55872   0.32402   0.16613   0.00000  Uiso   1.00
N365   N     0.86002   0.81835   0.25448   0.00000  Uiso   1.00
N366   N     0.45551   0.81139   0.04626   0.00000  Uiso   1.00
N367   N     0.74001   0.32449   0.13161   0.00000  Uiso   1.00
N368   N     0.04131   0.81882   0.21996   0.00000  Uiso   1.00
