data_job_05738
_audit_creation_date              2018-12-19
_audit_creation_method            'Materials Studio'
_symmetry_space_group_name_H-M    'P1'
_symmetry_Int_Tables_number       1
_symmetry_cell_setting            triclinic
loop_
_symmetry_equiv_pos_as_xyz
  x,y,z
_cell_length_a                    12.6830
_cell_length_b                    12.6830
_cell_length_c                    31.4288
_cell_angle_alpha                 90.0000
_cell_angle_beta                  90.0000
_cell_angle_gamma                 120.0000
loop_
_atom_site_label
_atom_site_type_symbol
_atom_site_fract_x
_atom_site_fract_y
_atom_site_fract_z
_atom_site_U_iso_or_equiv
_atom_site_adp_type
_atom_site_occupancy
C1     C     0.13884   0.44836   0.68822   0.00000  Uiso   1.00
C2     C     0.01044   0.37111   0.70590   0.00000  Uiso   1.00
C3     C     0.97523   0.28148   0.73678   0.00000  Uiso   1.00
C4     C     0.85349   0.22105   0.74866   0.00000  Uiso   1.00
C5     C     0.66679   0.09676   0.77890   0.00000  Uiso   1.00
C6     C     0.12800   0.42909   0.64017   0.00000  Uiso   1.00
C7     C     0.19165   0.38823   0.61578   0.00000  Uiso   1.00
C8     C     0.16888   0.37664   0.57233   0.00000  Uiso   1.00
C9     C     0.16477   0.34246   0.50051   0.00000  Uiso   1.00
C10    C     0.17282   0.58055   0.69541   0.00000  Uiso   1.00
C11    C     0.27418   0.66705   0.71746   0.00000  Uiso   1.00
C12    C     0.28916   0.78298   0.72050   0.00000  Uiso   1.00
C13    C     0.35464   0.98396   0.73445   0.00000  Uiso   1.00
C14    C     0.98524   0.50044   0.65441   0.00000  Uiso   1.00
C15    C     0.92701   0.39939   0.68753   0.00000  Uiso   1.00
C16    C     0.80529   0.33909   0.69937   0.00000  Uiso   1.00
C17    C     0.76991   0.24939   0.73026   0.00000  Uiso   1.00
C18    C     0.04457   0.45738   0.62180   0.00000  Uiso   1.00
C19    C     0.02171   0.44585   0.57837   0.00000  Uiso   1.00
C20    C     0.08530   0.40498   0.55393   0.00000  Uiso   1.00
C21    C     0.08939   0.60884   0.67704   0.00000  Uiso   1.00
C22    C     0.10423   0.72466   0.68005   0.00000  Uiso   1.00
C23    C     0.20558   0.81132   0.70210   0.00000  Uiso   1.00
H24    H     0.20380   0.42633   0.70251   0.00000  Uiso   1.00
H25    H     0.03983   0.25960   0.75098   0.00000  Uiso   1.00
H26    H     0.25622   0.36636   0.63000   0.00000  Uiso   1.00
H27    H     0.33873   0.64513   0.73166   0.00000  Uiso   1.00
H28    H     0.82123   0.08720   0.79661   0.00000  Uiso   1.00
H29    H     0.27754   0.31234   0.54151   0.00000  Uiso   1.00
H30    H     0.45153   0.90018   0.75589   0.00000  Uiso   1.00
H31    H     0.92028   0.52246   0.64011   0.00000  Uiso   1.00
H32    H     0.74074   0.36100   0.68516   0.00000  Uiso   1.00
H33    H     0.95714   0.46776   0.56417   0.00000  Uiso   1.00
H34    H     0.03964   0.74652   0.66584   0.00000  Uiso   1.00
H35    H     0.57848   0.16949   0.74318   0.00000  Uiso   1.00
H36    H     0.03480   0.39464   0.48808   0.00000  Uiso   1.00
H37    H     0.20878   0.98247   0.70246   0.00000  Uiso   1.00
O38    O     0.58685   0.02037   0.80064   0.00000  Uiso   1.00
O39    O     0.18554   0.31577   0.46597   0.00000  Uiso   1.00
O40    O     0.41380   0.08699   0.74722   0.00000  Uiso   1.00
N41    N     0.78874   0.12874   0.77786   0.00000  Uiso   1.00
N42    N     0.21535   0.33921   0.53936   0.00000  Uiso   1.00
N43    N     0.37803   0.88880   0.73977   0.00000  Uiso   1.00
N44    N     0.65812   0.17302   0.74911   0.00000  Uiso   1.00
N45    N     0.08473   0.38350   0.51061   0.00000  Uiso   1.00
N46    N     0.24741   0.93308   0.71102   0.00000  Uiso   1.00
C47    C     0.55164   0.69049   0.35488   0.00000  Uiso   1.00
C48    C     0.62889   0.63933   0.37257   0.00000  Uiso   1.00
C49    C     0.71852   0.69376   0.40345   0.00000  Uiso   1.00
C50    C     0.77895   0.63244   0.41533   0.00000  Uiso   1.00
C51    C     0.90324   0.57003   0.44556   0.00000  Uiso   1.00
C52    C     0.57091   0.69891   0.30683   0.00000  Uiso   1.00
C53    C     0.61177   0.80342   0.28245   0.00000  Uiso   1.00
C54    C     0.62336   0.79224   0.23899   0.00000  Uiso   1.00
C55    C     0.65754   0.82231   0.16717   0.00000  Uiso   1.00
C56    C     0.41945   0.59228   0.36207   0.00000  Uiso   1.00
C57    C     0.33295   0.60713   0.38412   0.00000  Uiso   1.00
C58    C     0.21702   0.50618   0.38717   0.00000  Uiso   1.00
C59    C     0.01604   0.37069   0.40112   0.00000  Uiso   1.00
C60    C     0.49956   0.48480   0.32107   0.00000  Uiso   1.00
C61    C     0.60061   0.52761   0.35420   0.00000  Uiso   1.00
C62    C     0.66091   0.46619   0.36604   0.00000  Uiso   1.00
C63    C     0.75061   0.52051   0.39693   0.00000  Uiso   1.00
C64    C     0.54262   0.58719   0.28847   0.00000  Uiso   1.00
C65    C     0.55415   0.57586   0.24504   0.00000  Uiso   1.00
C66    C     0.59502   0.68032   0.22059   0.00000  Uiso   1.00
C67    C     0.39116   0.48055   0.34371   0.00000  Uiso   1.00
C68    C     0.27534   0.37956   0.34672   0.00000  Uiso   1.00
C69    C     0.18868   0.39426   0.36877   0.00000  Uiso   1.00
H70    H     0.57367   0.77747   0.36918   0.00000  Uiso   1.00
H71    H     0.74040   0.78022   0.41765   0.00000  Uiso   1.00
H72    H     0.63364   0.88986   0.29667   0.00000  Uiso   1.00
H73    H     0.35487   0.69360   0.39833   0.00000  Uiso   1.00
H74    H     0.91280   0.73403   0.46328   0.00000  Uiso   1.00
H75    H     0.68766   0.96520   0.20818   0.00000  Uiso   1.00
H76    H     0.09982   0.55135   0.42255   0.00000  Uiso   1.00
H77    H     0.47754   0.39782   0.30677   0.00000  Uiso   1.00
H78    H     0.63900   0.37974   0.35182   0.00000  Uiso   1.00
H79    H     0.53224   0.48938   0.23084   0.00000  Uiso   1.00
H80    H     0.25348   0.29312   0.33250   0.00000  Uiso   1.00
H81    H     0.83051   0.40898   0.40985   0.00000  Uiso   1.00
H82    H     0.60536   0.64016   0.15475   0.00000  Uiso   1.00
H83    H     0.01753   0.22631   0.36912   0.00000  Uiso   1.00
O84    O     0.97963   0.56648   0.46731   0.00000  Uiso   1.00
O85    O     0.68423   0.86977   0.13264   0.00000  Uiso   1.00
O86    O     0.91301   0.32680   0.41389   0.00000  Uiso   1.00
N87    N     0.87126   0.66000   0.44453   0.00000  Uiso   1.00
N88    N     0.66079   0.87614   0.20603   0.00000  Uiso   1.00
N89    N     0.11120   0.48923   0.40644   0.00000  Uiso   1.00
N90    N     0.82698   0.48509   0.41578   0.00000  Uiso   1.00
N91    N     0.61650   0.70123   0.17728   0.00000  Uiso   1.00
N92    N     0.06692   0.31433   0.37769   0.00000  Uiso   1.00
C93    C     0.30951   0.86116   0.02155   0.00000  Uiso   1.00
C94    C     0.36067   0.98956   0.03923   0.00000  Uiso   1.00
C95    C     0.30624   0.02477   0.07011   0.00000  Uiso   1.00
C96    C     0.36756   0.14651   0.08199   0.00000  Uiso   1.00
C97    C     0.42997   0.33321   0.11223   0.00000  Uiso   1.00
C98    C     0.30109   0.87200   0.97350   0.00000  Uiso   1.00
C99    C     0.19658   0.80835   0.94911   0.00000  Uiso   1.00
C100   C     0.20776   0.83112   0.90566   0.00000  Uiso   1.00
C101   C     0.17769   0.83523   0.83384   0.00000  Uiso   1.00
C102   C     0.40772   0.82718   0.02874   0.00000  Uiso   1.00
C103   C     0.39287   0.72582   0.05079   0.00000  Uiso   1.00
C104   C     0.49382   0.71084   0.05383   0.00000  Uiso   1.00
C105   C     0.62931   0.64536   0.06778   0.00000  Uiso   1.00
C106   C     0.51520   0.01476   0.98774   0.00000  Uiso   1.00
C107   C     0.47239   0.07299   0.02087   0.00000  Uiso   1.00
C108   C     0.53381   0.19471   0.03271   0.00000  Uiso   1.00
C109   C     0.47949   0.23009   0.06360   0.00000  Uiso   1.00
C110   C     0.41281   0.95543   0.95514   0.00000  Uiso   1.00
C111   C     0.42414   0.97829   0.91171   0.00000  Uiso   1.00
C112   C     0.31968   0.91470   0.88726   0.00000  Uiso   1.00
C113   C     0.51945   0.91061   0.01038   0.00000  Uiso   1.00
C114   C     0.62044   0.89577   0.01338   0.00000  Uiso   1.00
C115   C     0.60574   0.79442   0.03543   0.00000  Uiso   1.00
H116   H     0.22253   0.79620   0.03584   0.00000  Uiso   1.00
H117   H     0.21978   0.96017   0.08431   0.00000  Uiso   1.00
H118   H     0.11014   0.74378   0.96333   0.00000  Uiso   1.00
H119   H     0.30640   0.66127   0.06500   0.00000  Uiso   1.00
H120   H     0.26597   0.17877   0.12994   0.00000  Uiso   1.00
H121   H     0.03480   0.72246   0.87485   0.00000  Uiso   1.00
H122   H     0.44865   0.54847   0.08922   0.00000  Uiso   1.00
H123   H     0.60218   0.07972   0.97344   0.00000  Uiso   1.00
H124   H     0.62026   0.25926   0.01849   0.00000  Uiso   1.00
H125   H     0.51062   0.04286   0.89751   0.00000  Uiso   1.00
H126   H     0.70688   0.96036   0.99917   0.00000  Uiso   1.00
H127   H     0.59102   0.42152   0.07651   0.00000  Uiso   1.00
H128   H     0.35984   0.96520   0.82142   0.00000  Uiso   1.00
H129   H     0.77369   0.79122   0.03579   0.00000  Uiso   1.00
O130   O     0.43352   0.41315   0.13398   0.00000  Uiso   1.00
O131   O     0.13023   0.81446   0.79930   0.00000  Uiso   1.00
O132   O     0.67320   0.58620   0.08056   0.00000  Uiso   1.00
N133   N     0.34000   0.21126   0.11119   0.00000  Uiso   1.00
N134   N     0.12386   0.78465   0.87269   0.00000  Uiso   1.00
N135   N     0.51077   0.62197   0.07310   0.00000  Uiso   1.00
N136   N     0.51491   0.34188   0.08244   0.00000  Uiso   1.00
N137   N     0.29877   0.91527   0.84394   0.00000  Uiso   1.00
N138   N     0.68567   0.75259   0.04436   0.00000  Uiso   1.00
C139   C     0.44836   0.13884   0.31178   0.00000  Uiso   1.00
C140   C     0.37111   0.01044   0.29410   0.00000  Uiso   1.00
C141   C     0.28148   0.97523   0.26322   0.00000  Uiso   1.00
C142   C     0.22105   0.85349   0.25134   0.00000  Uiso   1.00
C143   C     0.09676   0.66679   0.22110   0.00000  Uiso   1.00
C144   C     0.42909   0.12800   0.35983   0.00000  Uiso   1.00
C145   C     0.38823   0.19165   0.38422   0.00000  Uiso   1.00
C146   C     0.37664   0.16888   0.42767   0.00000  Uiso   1.00
C147   C     0.34246   0.16477   0.49949   0.00000  Uiso   1.00
C148   C     0.58055   0.17282   0.30459   0.00000  Uiso   1.00
C149   C     0.66705   0.27418   0.28254   0.00000  Uiso   1.00
C150   C     0.78298   0.28916   0.27950   0.00000  Uiso   1.00
C151   C     0.98396   0.35464   0.26555   0.00000  Uiso   1.00
C152   C     0.50044   0.98524   0.34559   0.00000  Uiso   1.00
C153   C     0.39939   0.92701   0.31247   0.00000  Uiso   1.00
C154   C     0.33909   0.80529   0.30063   0.00000  Uiso   1.00
C155   C     0.24939   0.76991   0.26974   0.00000  Uiso   1.00
C156   C     0.45738   0.04457   0.37820   0.00000  Uiso   1.00
C157   C     0.44585   0.02171   0.42163   0.00000  Uiso   1.00
C158   C     0.40498   0.08530   0.44607   0.00000  Uiso   1.00
C159   C     0.60884   0.08939   0.32296   0.00000  Uiso   1.00
C160   C     0.72466   0.10423   0.31995   0.00000  Uiso   1.00
C161   C     0.81132   0.20558   0.29790   0.00000  Uiso   1.00
H162   H     0.42633   0.20380   0.29749   0.00000  Uiso   1.00
H163   H     0.25960   0.03983   0.24902   0.00000  Uiso   1.00
H164   H     0.36636   0.25622   0.37000   0.00000  Uiso   1.00
H165   H     0.64513   0.33873   0.26834   0.00000  Uiso   1.00
H166   H     0.08720   0.82123   0.20339   0.00000  Uiso   1.00
H167   H     0.31234   0.27754   0.45849   0.00000  Uiso   1.00
H168   H     0.90018   0.45153   0.24411   0.00000  Uiso   1.00
H169   H     0.52246   0.92028   0.35989   0.00000  Uiso   1.00
H170   H     0.36100   0.74074   0.31484   0.00000  Uiso   1.00
H171   H     0.46776   0.95714   0.43583   0.00000  Uiso   1.00
H172   H     0.74652   0.03964   0.33416   0.00000  Uiso   1.00
H173   H     0.16949   0.57848   0.25682   0.00000  Uiso   1.00
H174   H     0.39464   0.03480   0.51192   0.00000  Uiso   1.00
H175   H     0.98247   0.20878   0.29754   0.00000  Uiso   1.00
O176   O     0.02037   0.58685   0.19936   0.00000  Uiso   1.00
O177   O     0.31577   0.18554   0.53403   0.00000  Uiso   1.00
O178   O     0.08699   0.41380   0.25278   0.00000  Uiso   1.00
N179   N     0.12874   0.78874   0.22214   0.00000  Uiso   1.00
N180   N     0.33921   0.21535   0.46064   0.00000  Uiso   1.00
N181   N     0.88880   0.37803   0.26023   0.00000  Uiso   1.00
N182   N     0.17302   0.65812   0.25089   0.00000  Uiso   1.00
N183   N     0.38350   0.08473   0.48939   0.00000  Uiso   1.00
N184   N     0.93308   0.24741   0.28898   0.00000  Uiso   1.00
C185   C     0.69049   0.55164   0.64512   0.00000  Uiso   1.00
C186   C     0.63933   0.62889   0.62743   0.00000  Uiso   1.00
C187   C     0.69376   0.71852   0.59655   0.00000  Uiso   1.00
C188   C     0.63244   0.77895   0.58467   0.00000  Uiso   1.00
C189   C     0.57003   0.90324   0.55444   0.00000  Uiso   1.00
C190   C     0.69891   0.57091   0.69317   0.00000  Uiso   1.00
C191   C     0.80342   0.61177   0.71755   0.00000  Uiso   1.00
C192   C     0.79224   0.62336   0.76101   0.00000  Uiso   1.00
C193   C     0.82231   0.65754   0.83283   0.00000  Uiso   1.00
C194   C     0.59228   0.41945   0.63793   0.00000  Uiso   1.00
C195   C     0.60713   0.33295   0.61588   0.00000  Uiso   1.00
C196   C     0.50618   0.21702   0.61283   0.00000  Uiso   1.00
C197   C     0.37069   0.01604   0.59888   0.00000  Uiso   1.00
C198   C     0.48480   0.49956   0.67893   0.00000  Uiso   1.00
C199   C     0.52761   0.60061   0.64580   0.00000  Uiso   1.00
C200   C     0.46619   0.66091   0.63396   0.00000  Uiso   1.00
C201   C     0.52051   0.75061   0.60307   0.00000  Uiso   1.00
C202   C     0.58719   0.54262   0.71153   0.00000  Uiso   1.00
C203   C     0.57586   0.55415   0.75496   0.00000  Uiso   1.00
C204   C     0.68032   0.59502   0.77941   0.00000  Uiso   1.00
C205   C     0.48055   0.39116   0.65629   0.00000  Uiso   1.00
C206   C     0.37956   0.27534   0.65328   0.00000  Uiso   1.00
C207   C     0.39426   0.18868   0.63123   0.00000  Uiso   1.00
H208   H     0.77747   0.57367   0.63082   0.00000  Uiso   1.00
H209   H     0.78022   0.74040   0.58235   0.00000  Uiso   1.00
H210   H     0.88986   0.63364   0.70333   0.00000  Uiso   1.00
H211   H     0.69360   0.35487   0.60167   0.00000  Uiso   1.00
H212   H     0.73403   0.91280   0.53672   0.00000  Uiso   1.00
H213   H     0.96520   0.68766   0.79182   0.00000  Uiso   1.00
H214   H     0.55135   0.09982   0.57745   0.00000  Uiso   1.00
H215   H     0.39782   0.47754   0.69323   0.00000  Uiso   1.00
H216   H     0.37974   0.63900   0.64818   0.00000  Uiso   1.00
H217   H     0.48938   0.53224   0.76916   0.00000  Uiso   1.00
H218   H     0.29312   0.25348   0.66750   0.00000  Uiso   1.00
H219   H     0.40898   0.83051   0.59015   0.00000  Uiso   1.00
H220   H     0.64016   0.60536   0.84525   0.00000  Uiso   1.00
H221   H     0.22631   0.01753   0.63088   0.00000  Uiso   1.00
O222   O     0.56648   0.97963   0.53269   0.00000  Uiso   1.00
O223   O     0.86977   0.68423   0.86736   0.00000  Uiso   1.00
O224   O     0.32680   0.91301   0.58611   0.00000  Uiso   1.00
N225   N     0.66000   0.87126   0.55547   0.00000  Uiso   1.00
N226   N     0.87614   0.66079   0.79397   0.00000  Uiso   1.00
N227   N     0.48923   0.11120   0.59356   0.00000  Uiso   1.00
N228   N     0.48509   0.82698   0.58422   0.00000  Uiso   1.00
N229   N     0.70123   0.61650   0.82272   0.00000  Uiso   1.00
N230   N     0.31433   0.06692   0.62231   0.00000  Uiso   1.00
C231   C     0.86116   0.30951   0.97845   0.00000  Uiso   1.00
C232   C     0.98956   0.36067   0.96077   0.00000  Uiso   1.00
C233   C     0.02477   0.30624   0.92989   0.00000  Uiso   1.00
C234   C     0.14651   0.36756   0.91801   0.00000  Uiso   1.00
C235   C     0.33321   0.42997   0.88777   0.00000  Uiso   1.00
C236   C     0.87200   0.30109   0.02650   0.00000  Uiso   1.00
C237   C     0.80835   0.19658   0.05089   0.00000  Uiso   1.00
C238   C     0.83112   0.20776   0.09434   0.00000  Uiso   1.00
C239   C     0.83523   0.17769   0.16616   0.00000  Uiso   1.00
C240   C     0.82718   0.40772   0.97126   0.00000  Uiso   1.00
C241   C     0.72582   0.39287   0.94921   0.00000  Uiso   1.00
C242   C     0.71084   0.49382   0.94617   0.00000  Uiso   1.00
C243   C     0.64536   0.62931   0.93222   0.00000  Uiso   1.00
C244   C     0.01476   0.51520   0.01226   0.00000  Uiso   1.00
C245   C     0.07299   0.47239   0.97913   0.00000  Uiso   1.00
C246   C     0.19471   0.53381   0.96729   0.00000  Uiso   1.00
C247   C     0.23009   0.47949   0.93640   0.00000  Uiso   1.00
C248   C     0.95543   0.41281   0.04486   0.00000  Uiso   1.00
C249   C     0.97829   0.42414   0.08829   0.00000  Uiso   1.00
C250   C     0.91470   0.31968   0.11274   0.00000  Uiso   1.00
C251   C     0.91061   0.51945   0.98962   0.00000  Uiso   1.00
C252   C     0.89577   0.62044   0.98662   0.00000  Uiso   1.00
C253   C     0.79442   0.60574   0.96457   0.00000  Uiso   1.00
H254   H     0.79620   0.22253   0.96416   0.00000  Uiso   1.00
H255   H     0.96017   0.21978   0.91569   0.00000  Uiso   1.00
H256   H     0.74378   0.11014   0.03667   0.00000  Uiso   1.00
H257   H     0.66127   0.30640   0.93500   0.00000  Uiso   1.00
H258   H     0.17877   0.26597   0.87006   0.00000  Uiso   1.00
H259   H     0.72246   0.03480   0.12515   0.00000  Uiso   1.00
H260   H     0.54847   0.44865   0.91078   0.00000  Uiso   1.00
H261   H     0.07972   0.60218   0.02656   0.00000  Uiso   1.00
H262   H     0.25926   0.62026   0.98151   0.00000  Uiso   1.00
H263   H     0.04286   0.51062   0.10249   0.00000  Uiso   1.00
H264   H     0.96036   0.70688   0.00083   0.00000  Uiso   1.00
H265   H     0.42152   0.59102   0.92349   0.00000  Uiso   1.00
H266   H     0.96520   0.35984   0.17858   0.00000  Uiso   1.00
H267   H     0.79122   0.77369   0.96421   0.00000  Uiso   1.00
O268   O     0.41315   0.43352   0.86602   0.00000  Uiso   1.00
O269   O     0.81446   0.13023   0.20070   0.00000  Uiso   1.00
O270   O     0.58620   0.67320   0.91944   0.00000  Uiso   1.00
N271   N     0.21126   0.34000   0.88881   0.00000  Uiso   1.00
N272   N     0.78465   0.12386   0.12731   0.00000  Uiso   1.00
N273   N     0.62197   0.51077   0.92690   0.00000  Uiso   1.00
N274   N     0.34188   0.51491   0.91756   0.00000  Uiso   1.00
N275   N     0.91527   0.29877   0.15606   0.00000  Uiso   1.00
N276   N     0.75259   0.68567   0.95564   0.00000  Uiso   1.00
