data_job_06329
_audit_creation_date              2018-12-19
_audit_creation_method            'Materials Studio'
_symmetry_space_group_name_H-M    'P1'
_symmetry_Int_Tables_number       1
_symmetry_cell_setting            triclinic
loop_
_symmetry_equiv_pos_as_xyz
  x,y,z
_cell_length_a                    15.6921
_cell_length_b                    15.7063
_cell_length_c                    15.7172
_cell_angle_alpha                 95.6677
_cell_angle_beta                  95.7009
_cell_angle_gamma                 95.7239
loop_
_atom_site_label
_atom_site_type_symbol
_atom_site_fract_x
_atom_site_fract_y
_atom_site_fract_z
_atom_site_U_iso_or_equiv
_atom_site_adp_type
_atom_site_occupancy
C1     C     0.66456   0.81380   0.28520   0.00000  Uiso   1.00
C2     C     0.65666   0.87460   0.36520   0.00000  Uiso   1.00
C3     C     0.70479   0.87686   0.44455   0.00000  Uiso   1.00
C4     C     0.68786   0.93720   0.50963   0.00000  Uiso   1.00
C5     C     0.68513   0.02305   0.63597   0.00000  Uiso   1.00
C6     C     0.57485   0.76643   0.25817   0.00000  Uiso   1.00
C7     C     0.55421   0.67775   0.24752   0.00000  Uiso   1.00
C8     C     0.46841   0.64703   0.22250   0.00000  Uiso   1.00
C9     C     0.33868   0.56495   0.18261   0.00000  Uiso   1.00
C10    C     0.68290   0.87104   0.21475   0.00000  Uiso   1.00
C11    C     0.75309   0.87029   0.16758   0.00000  Uiso   1.00
C12    C     0.75825   0.92763   0.10598   0.00000  Uiso   1.00
C13    C     0.79627   0.00796   0.99868   0.00000  Uiso   1.00
C14    C     0.54890   0.91692   0.25968   0.00000  Uiso   1.00
C15    C     0.59384   0.93061   0.35133   0.00000  Uiso   1.00
C16    C     0.57684   0.99095   0.41631   0.00000  Uiso   1.00
C17    C     0.62494   0.99331   0.49575   0.00000  Uiso   1.00
C18    C     0.51204   0.82244   0.24431   0.00000  Uiso   1.00
C19    C     0.42625   0.79184   0.21929   0.00000  Uiso   1.00
C20    C     0.40548   0.70314   0.20861   0.00000  Uiso   1.00
C21    C     0.62008   0.92705   0.20089   0.00000  Uiso   1.00
C22    C     0.62513   0.98438   0.13935   0.00000  Uiso   1.00
C23    C     0.69531   0.98373   0.09209   0.00000  Uiso   1.00
H24    H     0.71346   0.77019   0.29599   0.00000  Uiso   1.00
H25    H     0.75340   0.83350   0.45525   0.00000  Uiso   1.00
H26    H     0.60284   0.63443   0.25824   0.00000  Uiso   1.00
H27    H     0.80168   0.82694   0.17832   0.00000  Uiso   1.00
H28    H     0.76995   0.92837   0.62572   0.00000  Uiso   1.00
H29    H     0.45249   0.50861   0.21029   0.00000  Uiso   1.00
H30    H     0.87180   0.91456   0.04175   0.00000  Uiso   1.00
H31    H     0.49999   0.96053   0.24889   0.00000  Uiso   1.00
H32    H     0.52822   0.03429   0.40557   0.00000  Uiso   1.00
H33    H     0.37766   0.83520   0.20856   0.00000  Uiso   1.00
H34    H     0.57651   0.02772   0.12864   0.00000  Uiso   1.00
H35    H     0.58718   0.09133   0.58539   0.00000  Uiso   1.00
H36    H     0.26973   0.67156   0.16997   0.00000  Uiso   1.00
H37    H     0.68903   0.07752   0.00143   0.00000  Uiso   1.00
O38    O     0.70096   0.05492   0.70948   0.00000  Uiso   1.00
O39    O     0.28448   0.50420   0.16445   0.00000  Uiso   1.00
O40    O     0.83460   0.03680   0.94333   0.00000  Uiso   1.00
N41    N     0.72307   0.95662   0.59472   0.00000  Uiso   1.00
N42    N     0.42627   0.56416   0.20634   0.00000  Uiso   1.00
N43    N     0.81827   0.94367   0.04875   0.00000  Uiso   1.00
N44    N     0.62473   0.04430   0.57302   0.00000  Uiso   1.00
N45    N     0.32792   0.65184   0.18464   0.00000  Uiso   1.00
N46    N     0.71993   0.03136   0.02705   0.00000  Uiso   1.00
C47    C     0.28434   0.66463   0.81367   0.00000  Uiso   1.00
C48    C     0.36448   0.65674   0.87446   0.00000  Uiso   1.00
C49    C     0.44396   0.70486   0.87673   0.00000  Uiso   1.00
C50    C     0.50916   0.68794   0.93705   0.00000  Uiso   1.00
C51    C     0.63572   0.68521   0.02290   0.00000  Uiso   1.00
C52    C     0.25725   0.57503   0.76636   0.00000  Uiso   1.00
C53    C     0.24657   0.55444   0.67775   0.00000  Uiso   1.00
C54    C     0.22149   0.46873   0.64709   0.00000  Uiso   1.00
C55    C     0.18152   0.33915   0.56511   0.00000  Uiso   1.00
C56    C     0.21378   0.68291   0.87082   0.00000  Uiso   1.00
C57    C     0.16653   0.75301   0.87002   0.00000  Uiso   1.00
C58    C     0.10484   0.75812   0.92729   0.00000  Uiso   1.00
C59    C     0.99737   0.79603   0.00750   0.00000  Uiso   1.00
C60    C     0.25878   0.54903   0.91676   0.00000  Uiso   1.00
C61    C     0.35059   0.59395   0.93045   0.00000  Uiso   1.00
C62    C     0.41569   0.57696   0.99079   0.00000  Uiso   1.00
C63    C     0.49526   0.62504   0.99315   0.00000  Uiso   1.00
C64    C     0.24337   0.51224   0.82235   0.00000  Uiso   1.00
C65    C     0.21830   0.42654   0.79181   0.00000  Uiso   1.00
C66    C     0.20759   0.40583   0.70318   0.00000  Uiso   1.00
C67    C     0.19990   0.62012   0.92682   0.00000  Uiso   1.00
C68    C     0.13826   0.62511   0.98408   0.00000  Uiso   1.00
C69    C     0.09093   0.69522   0.98338   0.00000  Uiso   1.00
H70    H     0.29514   0.71351   0.77007   0.00000  Uiso   1.00
H71    H     0.45468   0.75344   0.83338   0.00000  Uiso   1.00
H72    H     0.25730   0.60305   0.63444   0.00000  Uiso   1.00
H73    H     0.17729   0.80159   0.82668   0.00000  Uiso   1.00
H74    H     0.62544   0.76999   0.92824   0.00000  Uiso   1.00
H75    H     0.20925   0.45288   0.50876   0.00000  Uiso   1.00
H76    H     0.04051   0.87155   0.91415   0.00000  Uiso   1.00
H77    H     0.24798   0.50015   0.96035   0.00000  Uiso   1.00
H78    H     0.40493   0.52836   0.03411   0.00000  Uiso   1.00
H79    H     0.20756   0.37797   0.83516   0.00000  Uiso   1.00
H80    H     0.12754   0.57651   0.02741   0.00000  Uiso   1.00
H81    H     0.58507   0.58730   0.09116   0.00000  Uiso   1.00
H82    H     0.16886   0.27020   0.67168   0.00000  Uiso   1.00
H83    H     0.00013   0.68887   0.07706   0.00000  Uiso   1.00
O84    O     0.70937   0.70104   0.05477   0.00000  Uiso   1.00
O85    O     0.16331   0.28502   0.50443   0.00000  Uiso   1.00
O86    O     0.94194   0.83430   0.03628   0.00000  Uiso   1.00
N87    N     0.59440   0.72313   0.95648   0.00000  Uiso   1.00
N88    N     0.20529   0.42666   0.56429   0.00000  Uiso   1.00
N89    N     0.04752   0.81806   0.94327   0.00000  Uiso   1.00
N90    N     0.57267   0.62483   0.04414   0.00000  Uiso   1.00
N91    N     0.18356   0.32836   0.65195   0.00000  Uiso   1.00
N92    N     0.02579   0.71976   0.03093   0.00000  Uiso   1.00
C93    C     0.81395   0.28475   0.66458   0.00000  Uiso   1.00
C94    C     0.87484   0.36483   0.65668   0.00000  Uiso   1.00
C95    C     0.87713   0.44422   0.70472   0.00000  Uiso   1.00
C96    C     0.93755   0.50939   0.68781   0.00000  Uiso   1.00
C97    C     0.02355   0.63586   0.68505   0.00000  Uiso   1.00
C98    C     0.76655   0.25771   0.57504   0.00000  Uiso   1.00
C99    C     0.67779   0.24702   0.55443   0.00000  Uiso   1.00
C100   C     0.64705   0.22200   0.46879   0.00000  Uiso   1.00
C101   C     0.56492   0.18209   0.33928   0.00000  Uiso   1.00
C102   C     0.87119   0.21427   0.68290   0.00000  Uiso   1.00
C103   C     0.87040   0.16703   0.75298   0.00000  Uiso   1.00
C104   C     0.92776   0.10541   0.75814   0.00000  Uiso   1.00
C105   C     0.00810   0.99806   0.79611   0.00000  Uiso   1.00
C106   C     0.91719   0.25931   0.54912   0.00000  Uiso   1.00
C107   C     0.93092   0.35101   0.59397   0.00000  Uiso   1.00
C108   C     0.99136   0.41608   0.57698   0.00000  Uiso   1.00
C109   C     0.99373   0.49555   0.62499   0.00000  Uiso   1.00
C110   C     0.82262   0.24389   0.51232   0.00000  Uiso   1.00
C111   C     0.79201   0.21887   0.42669   0.00000  Uiso   1.00
C112   C     0.70323   0.20815   0.40596   0.00000  Uiso   1.00
C113   C     0.92727   0.20045   0.62019   0.00000  Uiso   1.00
C114   C     0.98463   0.13889   0.62524   0.00000  Uiso   1.00
C115   C     0.98394   0.09157   0.69531   0.00000  Uiso   1.00
H116   H     0.77028   0.29550   0.71341   0.00000  Uiso   1.00
H117   H     0.83371   0.45489   0.75325   0.00000  Uiso   1.00
H118   H     0.63441   0.25771   0.60298   0.00000  Uiso   1.00
H119   H     0.82700   0.17774   0.80150   0.00000  Uiso   1.00
H120   H     0.92875   0.62552   0.76974   0.00000  Uiso   1.00
H121   H     0.50850   0.20972   0.45290   0.00000  Uiso   1.00
H122   H     0.91461   0.04108   0.87151   0.00000  Uiso   1.00
H123   H     0.96085   0.24855   0.50029   0.00000  Uiso   1.00
H124   H     0.03474   0.40537   0.52844   0.00000  Uiso   1.00
H125   H     0.83543   0.20818   0.37817   0.00000  Uiso   1.00
H126   H     0.02802   0.12821   0.57669   0.00000  Uiso   1.00
H127   H     0.09191   0.58533   0.58728   0.00000  Uiso   1.00
H128   H     0.67165   0.16952   0.27044   0.00000  Uiso   1.00
H129   H     0.07777   0.00089   0.68905   0.00000  Uiso   1.00
O130   O     0.05548   0.70944   0.70085   0.00000  Uiso   1.00
O131   O     0.50412   0.16391   0.28517   0.00000  Uiso   1.00
O132   O     0.03694   0.94267   0.83438   0.00000  Uiso   1.00
N133   N     0.95702   0.59454   0.72295   0.00000  Uiso   1.00
N134   N     0.56411   0.20580   0.42672   0.00000  Uiso   1.00
N135   N     0.94377   0.04812   0.81807   0.00000  Uiso   1.00
N136   N     0.04481   0.57291   0.62476   0.00000  Uiso   1.00
N137   N     0.65190   0.18417   0.32853   0.00000  Uiso   1.00
N138   N     0.03157   0.02649   0.71989   0.00000  Uiso   1.00
C139   C     0.33544   0.18620   0.71480   0.00000  Uiso   1.00
C140   C     0.34334   0.12540   0.63480   0.00000  Uiso   1.00
C141   C     0.29521   0.12314   0.55545   0.00000  Uiso   1.00
C142   C     0.31214   0.06280   0.49037   0.00000  Uiso   1.00
C143   C     0.31487   0.97695   0.36403   0.00000  Uiso   1.00
C144   C     0.42515   0.23357   0.74183   0.00000  Uiso   1.00
C145   C     0.44579   0.32225   0.75248   0.00000  Uiso   1.00
C146   C     0.53159   0.35297   0.77750   0.00000  Uiso   1.00
C147   C     0.66132   0.43505   0.81739   0.00000  Uiso   1.00
C148   C     0.31710   0.12896   0.78525   0.00000  Uiso   1.00
C149   C     0.24691   0.12971   0.83242   0.00000  Uiso   1.00
C150   C     0.24175   0.07238   0.89402   0.00000  Uiso   1.00
C151   C     0.20373   0.99204   0.00132   0.00000  Uiso   1.00
C152   C     0.45110   0.08308   0.74032   0.00000  Uiso   1.00
C153   C     0.40616   0.06939   0.64867   0.00000  Uiso   1.00
C154   C     0.42316   0.00905   0.58369   0.00000  Uiso   1.00
C155   C     0.37506   0.00669   0.50425   0.00000  Uiso   1.00
C156   C     0.48796   0.17756   0.75569   0.00000  Uiso   1.00
C157   C     0.57375   0.20816   0.78071   0.00000  Uiso   1.00
C158   C     0.59452   0.29686   0.79139   0.00000  Uiso   1.00
C159   C     0.37992   0.07295   0.79911   0.00000  Uiso   1.00
C160   C     0.37487   0.01562   0.86065   0.00000  Uiso   1.00
C161   C     0.30469   0.01627   0.90791   0.00000  Uiso   1.00
H162   H     0.28654   0.22981   0.70401   0.00000  Uiso   1.00
H163   H     0.24660   0.16650   0.54475   0.00000  Uiso   1.00
H164   H     0.39716   0.36557   0.74176   0.00000  Uiso   1.00
H165   H     0.19832   0.17306   0.82168   0.00000  Uiso   1.00
H166   H     0.23005   0.07163   0.37428   0.00000  Uiso   1.00
H167   H     0.54751   0.49139   0.78971   0.00000  Uiso   1.00
H168   H     0.12820   0.08544   0.95825   0.00000  Uiso   1.00
H169   H     0.50001   0.03947   0.75111   0.00000  Uiso   1.00
H170   H     0.47178   0.96571   0.59443   0.00000  Uiso   1.00
H171   H     0.62234   0.16480   0.79144   0.00000  Uiso   1.00
H172   H     0.42349   0.97228   0.87136   0.00000  Uiso   1.00
H173   H     0.41282   0.90867   0.41461   0.00000  Uiso   1.00
H174   H     0.73027   0.32844   0.83004   0.00000  Uiso   1.00
H175   H     0.31097   0.92248   0.99857   0.00000  Uiso   1.00
O176   O     0.29904   0.94508   0.29052   0.00000  Uiso   1.00
O177   O     0.71552   0.49580   0.83555   0.00000  Uiso   1.00
O178   O     0.16540   0.96320   0.05667   0.00000  Uiso   1.00
N179   N     0.27693   0.04338   0.40528   0.00000  Uiso   1.00
N180   N     0.57373   0.43584   0.79366   0.00000  Uiso   1.00
N181   N     0.18173   0.05633   0.95125   0.00000  Uiso   1.00
N182   N     0.37527   0.95570   0.42698   0.00000  Uiso   1.00
N183   N     0.67208   0.34816   0.81536   0.00000  Uiso   1.00
N184   N     0.28007   0.96864   0.97295   0.00000  Uiso   1.00
C185   C     0.71566   0.33537   0.18633   0.00000  Uiso   1.00
C186   C     0.63552   0.34326   0.12554   0.00000  Uiso   1.00
C187   C     0.55604   0.29514   0.12327   0.00000  Uiso   1.00
C188   C     0.49084   0.31206   0.06295   0.00000  Uiso   1.00
C189   C     0.36428   0.31479   0.97710   0.00000  Uiso   1.00
C190   C     0.74275   0.42497   0.23364   0.00000  Uiso   1.00
C191   C     0.75343   0.44556   0.32225   0.00000  Uiso   1.00
C192   C     0.77851   0.53127   0.35291   0.00000  Uiso   1.00
C193   C     0.81848   0.66085   0.43489   0.00000  Uiso   1.00
C194   C     0.78622   0.31709   0.12918   0.00000  Uiso   1.00
C195   C     0.83347   0.24699   0.12998   0.00000  Uiso   1.00
C196   C     0.89516   0.24188   0.07271   0.00000  Uiso   1.00
C197   C     0.00263   0.20397   0.99250   0.00000  Uiso   1.00
C198   C     0.74122   0.45097   0.08324   0.00000  Uiso   1.00
C199   C     0.64941   0.40605   0.06955   0.00000  Uiso   1.00
C200   C     0.58431   0.42304   0.00921   0.00000  Uiso   1.00
C201   C     0.50474   0.37496   0.00685   0.00000  Uiso   1.00
C202   C     0.75663   0.48776   0.17765   0.00000  Uiso   1.00
C203   C     0.78170   0.57346   0.20819   0.00000  Uiso   1.00
C204   C     0.79241   0.59417   0.29682   0.00000  Uiso   1.00
C205   C     0.80010   0.37988   0.07318   0.00000  Uiso   1.00
C206   C     0.86174   0.37489   0.01592   0.00000  Uiso   1.00
C207   C     0.90907   0.30478   0.01662   0.00000  Uiso   1.00
H208   H     0.70486   0.28649   0.22993   0.00000  Uiso   1.00
H209   H     0.54532   0.24656   0.16662   0.00000  Uiso   1.00
H210   H     0.74269   0.39695   0.36556   0.00000  Uiso   1.00
H211   H     0.82271   0.19841   0.17332   0.00000  Uiso   1.00
H212   H     0.37456   0.23001   0.07176   0.00000  Uiso   1.00
H213   H     0.79075   0.54712   0.49124   0.00000  Uiso   1.00
H214   H     0.95949   0.12845   0.08585   0.00000  Uiso   1.00
H215   H     0.75202   0.49985   0.03965   0.00000  Uiso   1.00
H216   H     0.59507   0.47164   0.96589   0.00000  Uiso   1.00
H217   H     0.79244   0.62203   0.16484   0.00000  Uiso   1.00
H218   H     0.87246   0.42349   0.97259   0.00000  Uiso   1.00
H219   H     0.41493   0.41270   0.90884   0.00000  Uiso   1.00
H220   H     0.83114   0.72980   0.32832   0.00000  Uiso   1.00
H221   H     0.99987   0.31113   0.92294   0.00000  Uiso   1.00
O222   O     0.29063   0.29896   0.94523   0.00000  Uiso   1.00
O223   O     0.83669   0.71498   0.49557   0.00000  Uiso   1.00
O224   O     0.05806   0.16570   0.96372   0.00000  Uiso   1.00
N225   N     0.40560   0.27687   0.04352   0.00000  Uiso   1.00
N226   N     0.79471   0.57334   0.43571   0.00000  Uiso   1.00
N227   N     0.95248   0.18194   0.05673   0.00000  Uiso   1.00
N228   N     0.42733   0.37517   0.95586   0.00000  Uiso   1.00
N229   N     0.81644   0.67164   0.34805   0.00000  Uiso   1.00
N230   N     0.97421   0.28024   0.96907   0.00000  Uiso   1.00
C231   C     0.18605   0.71525   0.33542   0.00000  Uiso   1.00
C232   C     0.12516   0.63517   0.34332   0.00000  Uiso   1.00
C233   C     0.12287   0.55578   0.29528   0.00000  Uiso   1.00
C234   C     0.06245   0.49061   0.31219   0.00000  Uiso   1.00
C235   C     0.97645   0.36414   0.31495   0.00000  Uiso   1.00
C236   C     0.23345   0.74229   0.42496   0.00000  Uiso   1.00
C237   C     0.32221   0.75298   0.44557   0.00000  Uiso   1.00
C238   C     0.35295   0.77800   0.53121   0.00000  Uiso   1.00
C239   C     0.43508   0.81791   0.66072   0.00000  Uiso   1.00
C240   C     0.12881   0.78573   0.31710   0.00000  Uiso   1.00
C241   C     0.12960   0.83297   0.24702   0.00000  Uiso   1.00
C242   C     0.07224   0.89459   0.24186   0.00000  Uiso   1.00
C243   C     0.99190   0.00194   0.20389   0.00000  Uiso   1.00
C244   C     0.08281   0.74069   0.45088   0.00000  Uiso   1.00
C245   C     0.06908   0.64899   0.40603   0.00000  Uiso   1.00
C246   C     0.00864   0.58392   0.42302   0.00000  Uiso   1.00
C247   C     0.00627   0.50445   0.37501   0.00000  Uiso   1.00
C248   C     0.17738   0.75611   0.48768   0.00000  Uiso   1.00
C249   C     0.20799   0.78113   0.57331   0.00000  Uiso   1.00
C250   C     0.29677   0.79185   0.59404   0.00000  Uiso   1.00
C251   C     0.07273   0.79955   0.37981   0.00000  Uiso   1.00
C252   C     0.01537   0.86111   0.37476   0.00000  Uiso   1.00
C253   C     0.01606   0.90843   0.30469   0.00000  Uiso   1.00
H254   H     0.22972   0.70450   0.28659   0.00000  Uiso   1.00
H255   H     0.16629   0.54511   0.24675   0.00000  Uiso   1.00
H256   H     0.36559   0.74229   0.39702   0.00000  Uiso   1.00
H257   H     0.17300   0.82226   0.19850   0.00000  Uiso   1.00
H258   H     0.07125   0.37448   0.23026   0.00000  Uiso   1.00
H259   H     0.49150   0.79028   0.54710   0.00000  Uiso   1.00
H260   H     0.08539   0.95892   0.12849   0.00000  Uiso   1.00
H261   H     0.03915   0.75145   0.49971   0.00000  Uiso   1.00
H262   H     0.96526   0.59463   0.47156   0.00000  Uiso   1.00
H263   H     0.16457   0.79182   0.62183   0.00000  Uiso   1.00
H264   H     0.97198   0.87179   0.42331   0.00000  Uiso   1.00
H265   H     0.90809   0.41467   0.41272   0.00000  Uiso   1.00
H266   H     0.32835   0.83048   0.72956   0.00000  Uiso   1.00
H267   H     0.92223   0.99911   0.31095   0.00000  Uiso   1.00
O268   O     0.94452   0.29056   0.29915   0.00000  Uiso   1.00
O269   O     0.49588   0.83609   0.71483   0.00000  Uiso   1.00
O270   O     0.96306   0.05733   0.16562   0.00000  Uiso   1.00
N271   N     0.04298   0.40546   0.27706   0.00000  Uiso   1.00
N272   N     0.43589   0.79420   0.57328   0.00000  Uiso   1.00
N273   N     0.05623   0.95188   0.18193   0.00000  Uiso   1.00
N274   N     0.95519   0.42709   0.37524   0.00000  Uiso   1.00
N275   N     0.34810   0.81583   0.67147   0.00000  Uiso   1.00
N276   N     0.96843   0.97351   0.28011   0.00000  Uiso   1.00
