data_job_01433
_audit_creation_date              2018-12-19
_audit_creation_method            'Materials Studio'
_symmetry_space_group_name_H-M    'P1'
_symmetry_Int_Tables_number       1
_symmetry_cell_setting            triclinic
loop_
_symmetry_equiv_pos_as_xyz
  x,y,z
_cell_length_a                    12.3789
_cell_length_b                    7.2401
_cell_length_c                    28.0829
_cell_angle_alpha                 90.0000
_cell_angle_beta                  105.2181
_cell_angle_gamma                 90.0000
loop_
_atom_site_label
_atom_site_type_symbol
_atom_site_fract_x
_atom_site_fract_y
_atom_site_fract_z
_atom_site_U_iso_or_equiv
_atom_site_adp_type
_atom_site_occupancy
C1     C     0.24999   0.92643   0.62866   0.00000  Uiso   1.00
C2     C     0.32580   0.78276   0.61426   0.00000  Uiso   1.00
C3     C     0.40954   0.81891   0.59099   0.00000  Uiso   1.00
C4     C     0.46960   0.66853   0.58095   0.00000  Uiso   1.00
C5     C     0.59077   0.47282   0.55662   0.00000  Uiso   1.00
C6     C     0.13035   0.86641   0.60389   0.00000  Uiso   1.00
C7     C     0.04976   0.97289   0.57190   0.00000  Uiso   1.00
C8     C     0.94528   0.89293   0.55313   0.00000  Uiso   1.00
C9     C     0.76298   0.82712   0.51273   0.00000  Uiso   1.00
C10    C     0.26486   0.90307   0.68397   0.00000  Uiso   1.00
C11    C     0.29733   0.04038   0.71932   0.00000  Uiso   1.00
C12    C     0.30608   0.99129   0.76798   0.00000  Uiso   1.00
C13    C     0.33262   0.98241   0.85192   0.00000  Uiso   1.00
C14    C     0.20774   0.59510   0.65222   0.00000  Uiso   1.00
C15    C     0.30285   0.60280   0.62706   0.00000  Uiso   1.00
C16    C     0.36280   0.45233   0.61705   0.00000  Uiso   1.00
C17    C     0.44662   0.48824   0.59377   0.00000  Uiso   1.00
C18    C     0.10740   0.68645   0.61668   0.00000  Uiso   1.00
C19    C     0.00301   0.60631   0.59796   0.00000  Uiso   1.00
C20    C     0.92229   0.71264   0.56595   0.00000  Uiso   1.00
C21    C     0.24191   0.72310   0.69677   0.00000  Uiso   1.00
C22    C     0.25059   0.67380   0.74539   0.00000  Uiso   1.00
C23    C     0.28308   0.81101   0.78080   0.00000  Uiso   1.00
H24    H     0.26785   0.06654   0.61870   0.00000  Uiso   1.00
H25    H     0.42727   0.95820   0.58109   0.00000  Uiso   1.00
H26    H     0.06754   0.11216   0.56201   0.00000  Uiso   1.00
H27    H     0.31509   0.17963   0.70941   0.00000  Uiso   1.00
H28    H     0.59387   0.75871   0.54502   0.00000  Uiso   1.00
H29    H     0.83535   0.08337   0.50480   0.00000  Uiso   1.00
H30    H     0.35734   0.22566   0.81562   0.00000  Uiso   1.00
H31    H     0.18987   0.45498   0.66218   0.00000  Uiso   1.00
H32    H     0.34502   0.31307   0.62696   0.00000  Uiso   1.00
H33    H     0.98528   0.46704   0.60787   0.00000  Uiso   1.00
H34    H     0.23283   0.53452   0.75527   0.00000  Uiso   1.00
H35    H     0.52711   0.23510   0.58225   0.00000  Uiso   1.00
H36    H     0.76858   0.55977   0.54203   0.00000  Uiso   1.00
H37    H     0.29057   0.70205   0.85285   0.00000  Uiso   1.00
O38    O     0.66393   0.41458   0.53966   0.00000  Uiso   1.00
O39    O     0.66877   0.84054   0.48690   0.00000  Uiso   1.00
O40    O     0.35362   0.02721   0.89469   0.00000  Uiso   1.00
N41    N     0.55688   0.65495   0.55862   0.00000  Uiso   1.00
N42    N     0.84771   0.95848   0.52101   0.00000  Uiso   1.00
N43    N     0.33570   0.09152   0.81160   0.00000  Uiso   1.00
N44    N     0.52096   0.37321   0.57866   0.00000  Uiso   1.00
N45    N     0.81178   0.67674   0.54104   0.00000  Uiso   1.00
N46    N     0.29978   0.80978   0.83163   0.00000  Uiso   1.00
C47    C     0.75001   0.92643   0.87134   0.00000  Uiso   1.00
C48    C     0.67420   0.78276   0.88574   0.00000  Uiso   1.00
C49    C     0.59046   0.81891   0.90901   0.00000  Uiso   1.00
C50    C     0.53040   0.66853   0.91905   0.00000  Uiso   1.00
C51    C     0.40923   0.47282   0.94338   0.00000  Uiso   1.00
C52    C     0.86965   0.86641   0.89611   0.00000  Uiso   1.00
C53    C     0.95024   0.97289   0.92810   0.00000  Uiso   1.00
C54    C     0.05472   0.89293   0.94687   0.00000  Uiso   1.00
C55    C     0.23702   0.82712   0.98727   0.00000  Uiso   1.00
C56    C     0.73514   0.90307   0.81603   0.00000  Uiso   1.00
C57    C     0.70267   0.04038   0.78068   0.00000  Uiso   1.00
C58    C     0.69392   0.99129   0.73202   0.00000  Uiso   1.00
C59    C     0.66738   0.98241   0.64808   0.00000  Uiso   1.00
C60    C     0.79226   0.59510   0.84778   0.00000  Uiso   1.00
C61    C     0.69715   0.60280   0.87294   0.00000  Uiso   1.00
C62    C     0.63720   0.45233   0.88295   0.00000  Uiso   1.00
C63    C     0.55338   0.48824   0.90623   0.00000  Uiso   1.00
C64    C     0.89260   0.68645   0.88332   0.00000  Uiso   1.00
C65    C     0.99699   0.60631   0.90204   0.00000  Uiso   1.00
C66    C     0.07771   0.71264   0.93405   0.00000  Uiso   1.00
C67    C     0.75809   0.72310   0.80323   0.00000  Uiso   1.00
C68    C     0.74941   0.67380   0.75461   0.00000  Uiso   1.00
C69    C     0.71692   0.81101   0.71920   0.00000  Uiso   1.00
H70    H     0.73215   0.06654   0.88130   0.00000  Uiso   1.00
H71    H     0.57273   0.95820   0.91891   0.00000  Uiso   1.00
H72    H     0.93246   0.11216   0.93799   0.00000  Uiso   1.00
H73    H     0.68491   0.17963   0.79059   0.00000  Uiso   1.00
H74    H     0.40613   0.75871   0.95498   0.00000  Uiso   1.00
H75    H     0.16465   0.08337   0.99520   0.00000  Uiso   1.00
H76    H     0.64266   0.22566   0.68438   0.00000  Uiso   1.00
H77    H     0.81013   0.45498   0.83782   0.00000  Uiso   1.00
H78    H     0.65498   0.31307   0.87304   0.00000  Uiso   1.00
H79    H     0.01472   0.46704   0.89213   0.00000  Uiso   1.00
H80    H     0.76717   0.53452   0.74473   0.00000  Uiso   1.00
H81    H     0.47289   0.23510   0.91775   0.00000  Uiso   1.00
H82    H     0.23142   0.55977   0.95797   0.00000  Uiso   1.00
H83    H     0.70943   0.70205   0.64715   0.00000  Uiso   1.00
O84    O     0.33607   0.41458   0.96034   0.00000  Uiso   1.00
O85    O     0.33123   0.84054   0.01310   0.00000  Uiso   1.00
O86    O     0.64638   0.02721   0.60531   0.00000  Uiso   1.00
N87    N     0.44312   0.65495   0.94138   0.00000  Uiso   1.00
N88    N     0.15229   0.95848   0.97899   0.00000  Uiso   1.00
N89    N     0.66430   0.09152   0.68840   0.00000  Uiso   1.00
N90    N     0.47904   0.37321   0.92134   0.00000  Uiso   1.00
N91    N     0.18822   0.67674   0.95896   0.00000  Uiso   1.00
N92    N     0.70022   0.80978   0.66837   0.00000  Uiso   1.00
C93    C     0.75001   0.07357   0.37134   0.00000  Uiso   1.00
C94    C     0.67420   0.21724   0.38574   0.00000  Uiso   1.00
C95    C     0.59046   0.18109   0.40901   0.00000  Uiso   1.00
C96    C     0.53040   0.33147   0.41905   0.00000  Uiso   1.00
C97    C     0.40923   0.52718   0.44338   0.00000  Uiso   1.00
C98    C     0.86965   0.13359   0.39611   0.00000  Uiso   1.00
C99    C     0.95024   0.02711   0.42810   0.00000  Uiso   1.00
C100   C     0.05472   0.10707   0.44687   0.00000  Uiso   1.00
C101   C     0.23702   0.17288   0.48727   0.00000  Uiso   1.00
C102   C     0.73514   0.09693   0.31603   0.00000  Uiso   1.00
C103   C     0.70267   0.95962   0.28068   0.00000  Uiso   1.00
C104   C     0.69392   0.00871   0.23202   0.00000  Uiso   1.00
C105   C     0.66738   0.01759   0.14808   0.00000  Uiso   1.00
C106   C     0.79226   0.40490   0.34778   0.00000  Uiso   1.00
C107   C     0.69715   0.39720   0.37294   0.00000  Uiso   1.00
C108   C     0.63720   0.54767   0.38295   0.00000  Uiso   1.00
C109   C     0.55338   0.51176   0.40623   0.00000  Uiso   1.00
C110   C     0.89260   0.31355   0.38332   0.00000  Uiso   1.00
C111   C     0.99699   0.39369   0.40204   0.00000  Uiso   1.00
C112   C     0.07771   0.28736   0.43405   0.00000  Uiso   1.00
C113   C     0.75809   0.27690   0.30323   0.00000  Uiso   1.00
C114   C     0.74941   0.32620   0.25461   0.00000  Uiso   1.00
C115   C     0.71692   0.18899   0.21920   0.00000  Uiso   1.00
H116   H     0.73215   0.93346   0.38130   0.00000  Uiso   1.00
H117   H     0.57273   0.04180   0.41891   0.00000  Uiso   1.00
H118   H     0.93246   0.88784   0.43799   0.00000  Uiso   1.00
H119   H     0.68491   0.82037   0.29059   0.00000  Uiso   1.00
H120   H     0.40613   0.24129   0.45498   0.00000  Uiso   1.00
H121   H     0.16465   0.91663   0.49520   0.00000  Uiso   1.00
H122   H     0.64266   0.77434   0.18438   0.00000  Uiso   1.00
H123   H     0.81013   0.54502   0.33782   0.00000  Uiso   1.00
H124   H     0.65498   0.68693   0.37304   0.00000  Uiso   1.00
H125   H     0.01472   0.53296   0.39213   0.00000  Uiso   1.00
H126   H     0.76717   0.46548   0.24473   0.00000  Uiso   1.00
H127   H     0.47289   0.76490   0.41775   0.00000  Uiso   1.00
H128   H     0.23142   0.44023   0.45797   0.00000  Uiso   1.00
H129   H     0.70943   0.29795   0.14715   0.00000  Uiso   1.00
O130   O     0.33607   0.58542   0.46034   0.00000  Uiso   1.00
O131   O     0.33123   0.15946   0.51310   0.00000  Uiso   1.00
O132   O     0.64638   0.97279   0.10531   0.00000  Uiso   1.00
N133   N     0.44312   0.34505   0.44138   0.00000  Uiso   1.00
N134   N     0.15229   0.04152   0.47899   0.00000  Uiso   1.00
N135   N     0.66430   0.90848   0.18840   0.00000  Uiso   1.00
N136   N     0.47904   0.62679   0.42134   0.00000  Uiso   1.00
N137   N     0.18822   0.32326   0.45896   0.00000  Uiso   1.00
N138   N     0.70022   0.19022   0.16837   0.00000  Uiso   1.00
C139   C     0.24999   0.07357   0.12866   0.00000  Uiso   1.00
C140   C     0.32580   0.21724   0.11426   0.00000  Uiso   1.00
C141   C     0.40954   0.18109   0.09099   0.00000  Uiso   1.00
C142   C     0.46960   0.33147   0.08095   0.00000  Uiso   1.00
C143   C     0.59077   0.52718   0.05662   0.00000  Uiso   1.00
C144   C     0.13035   0.13359   0.10389   0.00000  Uiso   1.00
C145   C     0.04976   0.02711   0.07190   0.00000  Uiso   1.00
C146   C     0.94528   0.10707   0.05313   0.00000  Uiso   1.00
C147   C     0.76298   0.17288   0.01273   0.00000  Uiso   1.00
C148   C     0.26486   0.09693   0.18397   0.00000  Uiso   1.00
C149   C     0.29733   0.95962   0.21932   0.00000  Uiso   1.00
C150   C     0.30608   0.00871   0.26798   0.00000  Uiso   1.00
C151   C     0.33262   0.01759   0.35192   0.00000  Uiso   1.00
C152   C     0.20774   0.40490   0.15222   0.00000  Uiso   1.00
C153   C     0.30285   0.39720   0.12706   0.00000  Uiso   1.00
C154   C     0.36280   0.54767   0.11705   0.00000  Uiso   1.00
C155   C     0.44662   0.51176   0.09377   0.00000  Uiso   1.00
C156   C     0.10740   0.31355   0.11668   0.00000  Uiso   1.00
C157   C     0.00301   0.39369   0.09796   0.00000  Uiso   1.00
C158   C     0.92229   0.28736   0.06595   0.00000  Uiso   1.00
C159   C     0.24191   0.27690   0.19677   0.00000  Uiso   1.00
C160   C     0.25059   0.32620   0.24539   0.00000  Uiso   1.00
C161   C     0.28308   0.18899   0.28080   0.00000  Uiso   1.00
H162   H     0.26785   0.93346   0.11870   0.00000  Uiso   1.00
H163   H     0.42727   0.04180   0.08109   0.00000  Uiso   1.00
H164   H     0.06754   0.88784   0.06201   0.00000  Uiso   1.00
H165   H     0.31509   0.82037   0.20941   0.00000  Uiso   1.00
H166   H     0.59387   0.24129   0.04502   0.00000  Uiso   1.00
H167   H     0.83535   0.91663   0.00480   0.00000  Uiso   1.00
H168   H     0.35734   0.77434   0.31562   0.00000  Uiso   1.00
H169   H     0.18987   0.54502   0.16218   0.00000  Uiso   1.00
H170   H     0.34502   0.68693   0.12696   0.00000  Uiso   1.00
H171   H     0.98528   0.53296   0.10787   0.00000  Uiso   1.00
H172   H     0.23283   0.46548   0.25527   0.00000  Uiso   1.00
H173   H     0.52711   0.76490   0.08225   0.00000  Uiso   1.00
H174   H     0.76858   0.44023   0.04203   0.00000  Uiso   1.00
H175   H     0.29057   0.29795   0.35285   0.00000  Uiso   1.00
O176   O     0.66393   0.58542   0.03966   0.00000  Uiso   1.00
O177   O     0.66877   0.15946   0.98690   0.00000  Uiso   1.00
O178   O     0.35362   0.97279   0.39469   0.00000  Uiso   1.00
N179   N     0.55688   0.34505   0.05862   0.00000  Uiso   1.00
N180   N     0.84771   0.04152   0.02101   0.00000  Uiso   1.00
N181   N     0.33570   0.90848   0.31160   0.00000  Uiso   1.00
N182   N     0.52096   0.62679   0.07866   0.00000  Uiso   1.00
N183   N     0.81178   0.32326   0.04104   0.00000  Uiso   1.00
N184   N     0.29978   0.19022   0.33163   0.00000  Uiso   1.00
