data_job_06133
_audit_creation_date              2018-12-19
_audit_creation_method            'Materials Studio'
_symmetry_space_group_name_H-M    'P1'
_symmetry_Int_Tables_number       1
_symmetry_cell_setting            triclinic
loop_
_symmetry_equiv_pos_as_xyz
  x,y,z
_cell_length_a                    13.9097
_cell_length_b                    17.7671
_cell_length_c                    18.4890
_cell_angle_alpha                 113.4560
_cell_angle_beta                  74.4266
_cell_angle_gamma                 78.9596
loop_
_atom_site_label
_atom_site_type_symbol
_atom_site_fract_x
_atom_site_fract_y
_atom_site_fract_z
_atom_site_U_iso_or_equiv
_atom_site_adp_type
_atom_site_occupancy
C1     C     0.92698   0.79545   0.20047   0.00000  Uiso   1.00
C2     C     0.87806   0.75735   0.25590   0.00000  Uiso   1.00
C3     C     0.81963   0.80337   0.34322   0.00000  Uiso   1.00
C4     C     0.78171   0.75666   0.38225   0.00000  Uiso   1.00
C5     C     0.70278   0.71112   0.47543   0.00000  Uiso   1.00
C6     C     0.04502   0.74244   0.15627   0.00000  Uiso   1.00
C7     C     0.12696   0.77593   0.15983   0.00000  Uiso   1.00
C8     C     0.22959   0.71667   0.11498   0.00000  Uiso   1.00
C9     C     0.40988   0.64799   0.05344   0.00000  Uiso   1.00
C10    C     0.88292   0.77362   0.13033   0.00000  Uiso   1.00
C11    C     0.82858   0.83332   0.11205   0.00000  Uiso   1.00
C12    C     0.79475   0.80031   0.04534   0.00000  Uiso   1.00
C13    C     0.72334   0.78003   0.94351   0.00000  Uiso   1.00
C14    C     0.96356   0.63066   0.11450   0.00000  Uiso   1.00
C15    C     0.89794   0.66785   0.20920   0.00000  Uiso   1.00
C16    C     0.86009   0.62106   0.24811   0.00000  Uiso   1.00
C17    C     0.80161   0.66700   0.33548   0.00000  Uiso   1.00
C18    C     0.06489   0.65294   0.10958   0.00000  Uiso   1.00
C19    C     0.16743   0.59362   0.06471   0.00000  Uiso   1.00
C20    C     0.24950   0.62701   0.06820   0.00000  Uiso   1.00
C21    C     0.90278   0.68412   0.08363   0.00000  Uiso   1.00
C22    C     0.86904   0.65100   0.01694   0.00000  Uiso   1.00
C23    C     0.81466   0.71064   0.99856   0.00000  Uiso   1.00
H24    H     0.91152   0.86513   0.23682   0.00000  Uiso   1.00
H25    H     0.80428   0.87264   0.37934   0.00000  Uiso   1.00
H26    H     0.11156   0.84520   0.19596   0.00000  Uiso   1.00
H27    H     0.81322   0.90258   0.14820   0.00000  Uiso   1.00
H28    H     0.69418   0.84148   0.51676   0.00000  Uiso   1.00
H29    H     0.34210   0.78364   0.13007   0.00000  Uiso   1.00
H30    H     0.71300   0.90463   0.02935   0.00000  Uiso   1.00
H31    H     0.97902   0.56098   0.07814   0.00000  Uiso   1.00
H32    H     0.87548   0.55179   0.21196   0.00000  Uiso   1.00
H33    H     0.18277   0.52436   0.02858   0.00000  Uiso   1.00
H34    H     0.88443   0.58174   0.98081   0.00000  Uiso   1.00
H35    H     0.75197   0.58107   0.38090   0.00000  Uiso   1.00
H36    H     0.39991   0.52323   0.99422   0.00000  Uiso   1.00
H37    H     0.77080   0.64422   0.89349   0.00000  Uiso   1.00
O38    O     0.65377   0.71072   0.53972   0.00000  Uiso   1.00
O39    O     0.50383   0.63483   0.03240   0.00000  Uiso   1.00
O40    O     0.67846   0.79357   0.90025   0.00000  Uiso   1.00
N41    N     0.72197   0.78146   0.46642   0.00000  Uiso   1.00
N42    N     0.32774   0.72737   0.10490   0.00000  Uiso   1.00
N43    N     0.73961   0.84049   0.01072   0.00000  Uiso   1.00
N44    N     0.75307   0.64133   0.39332   0.00000  Uiso   1.00
N45    N     0.35884   0.58725   0.03180   0.00000  Uiso   1.00
N46    N     0.77071   0.70037   0.93762   0.00000  Uiso   1.00
C47    C     0.12588   0.79581   0.59371   0.00000  Uiso   1.00
C48    C     0.13217   0.73919   0.50412   0.00000  Uiso   1.00
C49    C     0.15821   0.64924   0.46428   0.00000  Uiso   1.00
C50    C     0.15963   0.60951   0.38220   0.00000  Uiso   1.00
C51    C     0.17305   0.51421   0.24926   0.00000  Uiso   1.00
C52    C     0.20102   0.84645   0.58365   0.00000  Uiso   1.00
C53    C     0.28495   0.84668   0.61069   0.00000  Uiso   1.00
C54    C     0.34432   0.89726   0.59556   0.00000  Uiso   1.00
C55    C     0.46459   0.96852   0.58615   0.00000  Uiso   1.00
C56    C     0.01446   0.86306   0.64201   0.00000  Uiso   1.00
C57    C     0.94153   0.87728   0.71814   0.00000  Uiso   1.00
C58    C     0.84383   0.94185   0.75216   0.00000  Uiso   1.00
C59    C     0.67445   0.03890   0.83337   0.00000  Uiso   1.00
C60    C     0.08209   0.88522   0.51879   0.00000  Uiso   1.00
C61    C     0.10838   0.78776   0.46343   0.00000  Uiso   1.00
C62    C     0.10976   0.74816   0.38138   0.00000  Uiso   1.00
C63    C     0.13579   0.65816   0.34143   0.00000  Uiso   1.00
C64    C     0.17724   0.89501   0.54295   0.00000  Uiso   1.00
C65    C     0.23649   0.94560   0.52779   0.00000  Uiso   1.00
C66    C     0.32049   0.94591   0.55479   0.00000  Uiso   1.00
C67    C     0.99067   0.91162   0.60132   0.00000  Uiso   1.00
C68    C     0.89308   0.97619   0.63524   0.00000  Uiso   1.00
C69    C     0.82001   0.99050   0.71139   0.00000  Uiso   1.00
H70    H     0.14441   0.75801   0.62539   0.00000  Uiso   1.00
H71    H     0.17662   0.61168   0.49579   0.00000  Uiso   1.00
H72    H     0.30333   0.80910   0.64218   0.00000  Uiso   1.00
H73    H     0.95997   0.83969   0.74961   0.00000  Uiso   1.00
H74    H     0.20189   0.47087   0.33414   0.00000  Uiso   1.00
H75    H     0.46903   0.88716   0.64285   0.00000  Uiso   1.00
H76    H     0.74498   0.95166   0.86938   0.00000  Uiso   1.00
H77    H     0.06357   0.92303   0.48710   0.00000  Uiso   1.00
H78    H     0.09135   0.78575   0.34991   0.00000  Uiso   1.00
H79    H     0.21806   0.98318   0.49630   0.00000  Uiso   1.00
H80    H     0.87469   0.01376   0.60373   0.00000  Uiso   1.00
H81    H     0.13268   0.61215   0.21574   0.00000  Uiso   1.00
H82    H     0.39982   0.02845   0.52444   0.00000  Uiso   1.00
H83    H     0.67577   0.09294   0.75098   0.00000  Uiso   1.00
O84    O     0.18705   0.44822   0.18717   0.00000  Uiso   1.00
O85    O     0.53752   0.99440   0.59220   0.00000  Uiso   1.00
O86    O     0.58759   0.07901   0.88940   0.00000  Uiso   1.00
N87    N     0.18176   0.52296   0.32511   0.00000  Uiso   1.00
N88    N     0.43154   0.91216   0.61372   0.00000  Uiso   1.00
N89    N     0.75463   0.97247   0.82552   0.00000  Uiso   1.00
N90    N     0.14452   0.59898   0.26140   0.00000  Uiso   1.00
N91    N     0.39430   0.98818   0.55000   0.00000  Uiso   1.00
N92    N     0.71739   0.04849   0.76181   0.00000  Uiso   1.00
C93    C     0.71920   0.40539   0.20500   0.00000  Uiso   1.00
C94    C     0.63950   0.49502   0.23791   0.00000  Uiso   1.00
C95    C     0.62851   0.53715   0.18998   0.00000  Uiso   1.00
C96    C     0.55093   0.61885   0.23187   0.00000  Uiso   1.00
C97    C     0.43699   0.75224   0.26979   0.00000  Uiso   1.00
C98    C     0.78277   0.41842   0.26188   0.00000  Uiso   1.00
C99    C     0.89223   0.39613   0.23411   0.00000  Uiso   1.00
C100   C     0.93524   0.41334   0.29618   0.00000  Uiso   1.00
C101   C     0.04372   0.42775   0.37131   0.00000  Uiso   1.00
C102   C     0.65431   0.35081   0.22459   0.00000  Uiso   1.00
C103   C     0.65579   0.27167   0.16545   0.00000  Uiso   1.00
C104   C     0.59067   0.23194   0.19612   0.00000  Uiso   1.00
C105   C     0.49970   0.14139   0.21335   0.00000  Uiso   1.00
C106   C     0.60096   0.47556   0.36461   0.00000  Uiso   1.00
C107   C     0.57528   0.53313   0.32461   0.00000  Uiso   1.00
C108   C     0.49769   0.61478   0.36657   0.00000  Uiso   1.00
C109   C     0.48659   0.65703   0.31872   0.00000  Uiso   1.00
C110   C     0.71855   0.45653   0.34858   0.00000  Uiso   1.00
C111   C     0.76141   0.47376   0.41070   0.00000  Uiso   1.00
C112   C     0.87091   0.45152   0.38302   0.00000  Uiso   1.00
C113   C     0.59008   0.38893   0.31128   0.00000  Uiso   1.00
C114   C     0.52496   0.34931   0.34205   0.00000  Uiso   1.00
C115   C     0.52633   0.27012   0.28297   0.00000  Uiso   1.00
H116   H     0.76920   0.37572   0.13751   0.00000  Uiso   1.00
H117   H     0.67824   0.50764   0.12290   0.00000  Uiso   1.00
H118   H     0.94191   0.36664   0.16702   0.00000  Uiso   1.00
H119   H     0.70549   0.24220   0.09837   0.00000  Uiso   1.00
H120   H     0.54908   0.67072   0.14494   0.00000  Uiso   1.00
H121   H     0.10505   0.37338   0.23796   0.00000  Uiso   1.00
H122   H     0.60653   0.11097   0.09321   0.00000  Uiso   1.00
H123   H     0.55096   0.50523   0.43211   0.00000  Uiso   1.00
H124   H     0.44801   0.64426   0.43366   0.00000  Uiso   1.00
H125   H     0.71169   0.50326   0.47778   0.00000  Uiso   1.00
H126   H     0.47527   0.37882   0.40914   0.00000  Uiso   1.00
H127   H     0.36223   0.78161   0.39717   0.00000  Uiso   1.00
H128   H     0.91820   0.48426   0.49019   0.00000  Uiso   1.00
H129   H     0.41968   0.22186   0.34544   0.00000  Uiso   1.00
O130   O     0.39189   0.81530   0.26677   0.00000  Uiso   1.00
O131   O     0.12130   0.42518   0.38881   0.00000  Uiso   1.00
O132   O     0.46726   0.08092   0.19890   0.00000  Uiso   1.00
N133   N     0.51922   0.67773   0.20408   0.00000  Uiso   1.00
N134   N     0.03902   0.39975   0.29105   0.00000  Uiso   1.00
N135   N     0.57297   0.15441   0.15573   0.00000  Uiso   1.00
N136   N     0.41867   0.73740   0.33980   0.00000  Uiso   1.00
N137   N     0.93847   0.45941   0.42678   0.00000  Uiso   1.00
N138   N     0.47242   0.21408   0.29145   0.00000  Uiso   1.00
C139   C     0.07302   0.20455   0.79953   0.00000  Uiso   1.00
C140   C     0.12194   0.24265   0.74410   0.00000  Uiso   1.00
C141   C     0.18037   0.19663   0.65678   0.00000  Uiso   1.00
C142   C     0.21829   0.24334   0.61775   0.00000  Uiso   1.00
C143   C     0.29722   0.28888   0.52457   0.00000  Uiso   1.00
C144   C     0.95498   0.25756   0.84373   0.00000  Uiso   1.00
C145   C     0.87304   0.22407   0.84017   0.00000  Uiso   1.00
C146   C     0.77041   0.28333   0.88502   0.00000  Uiso   1.00
C147   C     0.59013   0.35201   0.94656   0.00000  Uiso   1.00
C148   C     0.11708   0.22638   0.86967   0.00000  Uiso   1.00
C149   C     0.17142   0.16668   0.88795   0.00000  Uiso   1.00
C150   C     0.20525   0.19969   0.95466   0.00000  Uiso   1.00
C151   C     0.27666   0.21997   0.05649   0.00000  Uiso   1.00
C152   C     0.03644   0.36934   0.88550   0.00000  Uiso   1.00
C153   C     0.10206   0.33215   0.79080   0.00000  Uiso   1.00
C154   C     0.13991   0.37894   0.75189   0.00000  Uiso   1.00
C155   C     0.19839   0.33300   0.66452   0.00000  Uiso   1.00
C156   C     0.93511   0.34706   0.89042   0.00000  Uiso   1.00
C157   C     0.83257   0.40638   0.93529   0.00000  Uiso   1.00
C158   C     0.75050   0.37299   0.93180   0.00000  Uiso   1.00
C159   C     0.09722   0.31588   0.91637   0.00000  Uiso   1.00
C160   C     0.13096   0.34900   0.98306   0.00000  Uiso   1.00
C161   C     0.18534   0.28936   0.00144   0.00000  Uiso   1.00
H162   H     0.08848   0.13487   0.76318   0.00000  Uiso   1.00
H163   H     0.19572   0.12736   0.62066   0.00000  Uiso   1.00
H164   H     0.88844   0.15480   0.80404   0.00000  Uiso   1.00
H165   H     0.18678   0.09742   0.85180   0.00000  Uiso   1.00
H166   H     0.30582   0.15852   0.48324   0.00000  Uiso   1.00
H167   H     0.65790   0.21636   0.86993   0.00000  Uiso   1.00
H168   H     0.28700   0.09537   0.97065   0.00000  Uiso   1.00
H169   H     0.02098   0.43902   0.92186   0.00000  Uiso   1.00
H170   H     0.12452   0.44821   0.78804   0.00000  Uiso   1.00
H171   H     0.81723   0.47564   0.97142   0.00000  Uiso   1.00
H172   H     0.11557   0.41826   0.01919   0.00000  Uiso   1.00
H173   H     0.24803   0.41893   0.61910   0.00000  Uiso   1.00
H174   H     0.60009   0.47677   0.00578   0.00000  Uiso   1.00
H175   H     0.22920   0.35578   0.10651   0.00000  Uiso   1.00
O176   O     0.34623   0.28928   0.46028   0.00000  Uiso   1.00
O177   O     0.49617   0.36517   0.96760   0.00000  Uiso   1.00
O178   O     0.32154   0.20643   0.09975   0.00000  Uiso   1.00
N179   N     0.27803   0.21854   0.53358   0.00000  Uiso   1.00
N180   N     0.67226   0.27262   0.89510   0.00000  Uiso   1.00
N181   N     0.26039   0.15951   0.98928   0.00000  Uiso   1.00
N182   N     0.24693   0.35866   0.60668   0.00000  Uiso   1.00
N183   N     0.64116   0.41275   0.96820   0.00000  Uiso   1.00
N184   N     0.22929   0.29963   0.06238   0.00000  Uiso   1.00
C185   C     0.87412   0.20419   0.40629   0.00000  Uiso   1.00
C186   C     0.86783   0.26081   0.49588   0.00000  Uiso   1.00
C187   C     0.84179   0.35076   0.53572   0.00000  Uiso   1.00
C188   C     0.84037   0.39049   0.61780   0.00000  Uiso   1.00
C189   C     0.82695   0.48579   0.75074   0.00000  Uiso   1.00
C190   C     0.79898   0.15355   0.41635   0.00000  Uiso   1.00
C191   C     0.71505   0.15332   0.38931   0.00000  Uiso   1.00
C192   C     0.65568   0.10274   0.40444   0.00000  Uiso   1.00
C193   C     0.53541   0.03148   0.41385   0.00000  Uiso   1.00
C194   C     0.98554   0.13694   0.35799   0.00000  Uiso   1.00
C195   C     0.05847   0.12272   0.28186   0.00000  Uiso   1.00
C196   C     0.15616   0.05815   0.24784   0.00000  Uiso   1.00
C197   C     0.32555   0.96110   0.16663   0.00000  Uiso   1.00
C198   C     0.91791   0.11478   0.48121   0.00000  Uiso   1.00
C199   C     0.89162   0.21224   0.53657   0.00000  Uiso   1.00
C200   C     0.89025   0.25184   0.61862   0.00000  Uiso   1.00
C201   C     0.86421   0.34184   0.65857   0.00000  Uiso   1.00
C202   C     0.82276   0.10499   0.45705   0.00000  Uiso   1.00
C203   C     0.76351   0.05440   0.47221   0.00000  Uiso   1.00
C204   C     0.67951   0.05409   0.44521   0.00000  Uiso   1.00
C205   C     0.00933   0.08838   0.39868   0.00000  Uiso   1.00
C206   C     0.10692   0.02381   0.36476   0.00000  Uiso   1.00
C207   C     0.17999   0.00950   0.28861   0.00000  Uiso   1.00
H208   H     0.85559   0.24199   0.37461   0.00000  Uiso   1.00
H209   H     0.82338   0.38832   0.50421   0.00000  Uiso   1.00
H210   H     0.69667   0.19089   0.35782   0.00000  Uiso   1.00
H211   H     0.04003   0.16031   0.25039   0.00000  Uiso   1.00
H212   H     0.79811   0.52913   0.66586   0.00000  Uiso   1.00
H213   H     0.53097   0.11284   0.35715   0.00000  Uiso   1.00
H214   H     0.25502   0.04834   0.13062   0.00000  Uiso   1.00
H215   H     0.93643   0.07697   0.51290   0.00000  Uiso   1.00
H216   H     0.90865   0.21424   0.65009   0.00000  Uiso   1.00
H217   H     0.78194   0.01682   0.50370   0.00000  Uiso   1.00
H218   H     0.12531   0.98624   0.39627   0.00000  Uiso   1.00
H219   H     0.86732   0.38785   0.78426   0.00000  Uiso   1.00
H220   H     0.60018   0.97155   0.47556   0.00000  Uiso   1.00
H221   H     0.32423   0.90706   0.24902   0.00000  Uiso   1.00
O222   O     0.81295   0.55178   0.81283   0.00000  Uiso   1.00
O223   O     0.46248   0.00560   0.40780   0.00000  Uiso   1.00
O224   O     0.41241   0.92099   0.11060   0.00000  Uiso   1.00
N225   N     0.81824   0.47704   0.67489   0.00000  Uiso   1.00
N226   N     0.56846   0.08784   0.38628   0.00000  Uiso   1.00
N227   N     0.24537   0.02753   0.17448   0.00000  Uiso   1.00
N228   N     0.85548   0.40102   0.73860   0.00000  Uiso   1.00
N229   N     0.60570   0.01182   0.45000   0.00000  Uiso   1.00
N230   N     0.28261   0.95151   0.23819   0.00000  Uiso   1.00
C231   C     0.28080   0.59461   0.79500   0.00000  Uiso   1.00
C232   C     0.36050   0.50498   0.76209   0.00000  Uiso   1.00
C233   C     0.37149   0.46285   0.81002   0.00000  Uiso   1.00
C234   C     0.44907   0.38115   0.76813   0.00000  Uiso   1.00
C235   C     0.56301   0.24775   0.73021   0.00000  Uiso   1.00
C236   C     0.21723   0.58158   0.73812   0.00000  Uiso   1.00
C237   C     0.10777   0.60387   0.76589   0.00000  Uiso   1.00
C238   C     0.06476   0.58666   0.70382   0.00000  Uiso   1.00
C239   C     0.95628   0.57225   0.62869   0.00000  Uiso   1.00
C240   C     0.34569   0.64918   0.77541   0.00000  Uiso   1.00
C241   C     0.34421   0.72833   0.83455   0.00000  Uiso   1.00
C242   C     0.40933   0.76806   0.80388   0.00000  Uiso   1.00
C243   C     0.50030   0.85861   0.78665   0.00000  Uiso   1.00
C244   C     0.39904   0.52444   0.63539   0.00000  Uiso   1.00
C245   C     0.42472   0.46687   0.67539   0.00000  Uiso   1.00
C246   C     0.50231   0.38522   0.63343   0.00000  Uiso   1.00
C247   C     0.51341   0.34297   0.68128   0.00000  Uiso   1.00
C248   C     0.28145   0.54347   0.65142   0.00000  Uiso   1.00
C249   C     0.23859   0.52623   0.58930   0.00000  Uiso   1.00
C250   C     0.12909   0.54848   0.61698   0.00000  Uiso   1.00
C251   C     0.40992   0.61107   0.68872   0.00000  Uiso   1.00
C252   C     0.47504   0.65069   0.65795   0.00000  Uiso   1.00
C253   C     0.47367   0.72988   0.71703   0.00000  Uiso   1.00
H254   H     0.23080   0.62428   0.86249   0.00000  Uiso   1.00
H255   H     0.32176   0.49236   0.87710   0.00000  Uiso   1.00
H256   H     0.05809   0.63336   0.83298   0.00000  Uiso   1.00
H257   H     0.29451   0.75780   0.90163   0.00000  Uiso   1.00
H258   H     0.45092   0.32928   0.85506   0.00000  Uiso   1.00
H259   H     0.89495   0.62662   0.76204   0.00000  Uiso   1.00
H260   H     0.39347   0.88903   0.90679   0.00000  Uiso   1.00
H261   H     0.44904   0.49477   0.56789   0.00000  Uiso   1.00
H262   H     0.55199   0.35574   0.56634   0.00000  Uiso   1.00
H263   H     0.28831   0.49674   0.52222   0.00000  Uiso   1.00
H264   H     0.52473   0.62118   0.59086   0.00000  Uiso   1.00
H265   H     0.63777   0.21839   0.60283   0.00000  Uiso   1.00
H266   H     0.08180   0.51574   0.50981   0.00000  Uiso   1.00
H267   H     0.58032   0.77814   0.65456   0.00000  Uiso   1.00
O268   O     0.60811   0.18470   0.73323   0.00000  Uiso   1.00
O269   O     0.87870   0.57482   0.61119   0.00000  Uiso   1.00
O270   O     0.53274   0.91908   0.80110   0.00000  Uiso   1.00
N271   N     0.48078   0.32227   0.79592   0.00000  Uiso   1.00
N272   N     0.96098   0.60025   0.70895   0.00000  Uiso   1.00
N273   N     0.42703   0.84559   0.84427   0.00000  Uiso   1.00
N274   N     0.58133   0.26260   0.66020   0.00000  Uiso   1.00
N275   N     0.06153   0.54059   0.57322   0.00000  Uiso   1.00
N276   N     0.52758   0.78592   0.70855   0.00000  Uiso   1.00
