data_job_03745
_audit_creation_date              2018-12-19
_audit_creation_method            'Materials Studio'
_symmetry_space_group_name_H-M    'P1'
_symmetry_Int_Tables_number       1
_symmetry_cell_setting            triclinic
loop_
_symmetry_equiv_pos_as_xyz
  x,y,z
_cell_length_a                    25.5798
_cell_length_b                    25.5798
_cell_length_c                    12.4415
_cell_angle_alpha                 90.0000
_cell_angle_beta                  90.0000
_cell_angle_gamma                 90.0000
loop_
_atom_site_label
_atom_site_type_symbol
_atom_site_fract_x
_atom_site_fract_y
_atom_site_fract_z
_atom_site_U_iso_or_equiv
_atom_site_adp_type
_atom_site_occupancy
C1     C     0.98953   0.87096   0.01170   0.00000  Uiso   1.00
C2     C     0.01771   0.87703   0.11900   0.00000  Uiso   1.00
C3     C     0.01851   0.92185   0.18181   0.00000  Uiso   1.00
C4     C     0.04653   0.91951   0.27727   0.00000  Uiso   1.00
C5     C     0.08631   0.93586   0.43907   0.00000  Uiso   1.00
C6     C     0.03108   0.85406   0.93096   0.00000  Uiso   1.00
C7     C     0.04311   0.87957   0.83567   0.00000  Uiso   1.00
C8     C     0.08238   0.85788   0.77282   0.00000  Uiso   1.00
C9     C     0.14288   0.83855   0.64265   0.00000  Uiso   1.00
C10    C     0.95294   0.82434   0.02477   0.00000  Uiso   1.00
C11    C     0.89928   0.82485   0.00833   0.00000  Uiso   1.00
C12    C     0.87276   0.77815   0.02444   0.00000  Uiso   1.00
C13    C     0.81194   0.71267   0.03993   0.00000  Uiso   1.00
C14    C     0.03786   0.78710   0.06952   0.00000  Uiso   1.00
C15    C     0.04396   0.83147   0.15040   0.00000  Uiso   1.00
C16    C     0.07198   0.82906   0.24579   0.00000  Uiso   1.00
C17    C     0.07282   0.87388   0.30874   0.00000  Uiso   1.00
C18    C     0.05732   0.80851   0.96236   0.00000  Uiso   1.00
C19    C     0.09658   0.78678   0.89964   0.00000  Uiso   1.00
C20    C     0.10868   0.81225   0.80428   0.00000  Uiso   1.00
C21    C     0.97918   0.77878   0.05618   0.00000  Uiso   1.00
C22    C     0.95274   0.73207   0.07231   0.00000  Uiso   1.00
C23    C     0.89905   0.73251   0.05590   0.00000  Uiso   1.00
H24    H     0.96910   0.90643   0.98724   0.00000  Uiso   1.00
H25    H     0.99820   0.95710   0.15748   0.00000  Uiso   1.00
H26    H     0.02279   0.91481   0.81138   0.00000  Uiso   1.00
H27    H     0.87898   0.86011   0.98403   0.00000  Uiso   1.00
H28    H     0.04205   0.99319   0.36004   0.00000  Uiso   1.00
H29    H     0.09390   0.90402   0.63026   0.00000  Uiso   1.00
H30    H     0.79064   0.78867   0.99431   0.00000  Uiso   1.00
H31    H     0.05829   0.75163   0.09397   0.00000  Uiso   1.00
H32    H     0.09229   0.79381   0.27007   0.00000  Uiso   1.00
H33    H     0.11688   0.75152   0.92397   0.00000  Uiso   1.00
H34    H     0.97307   0.69682   0.09661   0.00000  Uiso   1.00
H35    H     0.11842   0.86066   0.45142   0.00000  Uiso   1.00
H36    H     0.17026   0.77149   0.72163   0.00000  Uiso   1.00
H37    H     0.86700   0.65614   0.08569   0.00000  Uiso   1.00
O38    O     0.10100   0.95747   0.51963   0.00000  Uiso   1.00
O39    O     0.16901   0.84048   0.56217   0.00000  Uiso   1.00
O40    O     0.77115   0.68914   0.03981   0.00000  Uiso   1.00
N41    N     0.05535   0.95621   0.35739   0.00000  Uiso   1.00
N42    N     0.10383   0.87285   0.67510   0.00000  Uiso   1.00
N43    N     0.82031   0.76500   0.01543   0.00000  Uiso   1.00
N44    N     0.09644   0.88489   0.40656   0.00000  Uiso   1.00
N45    N     0.14492   0.80153   0.72427   0.00000  Uiso   1.00
N46    N     0.86140   0.69369   0.06460   0.00000  Uiso   1.00
C47    C     0.01047   0.12904   0.01170   0.00000  Uiso   1.00
C48    C     0.98229   0.12297   0.11900   0.00000  Uiso   1.00
C49    C     0.98149   0.07815   0.18181   0.00000  Uiso   1.00
C50    C     0.95347   0.08049   0.27727   0.00000  Uiso   1.00
C51    C     0.91369   0.06414   0.43907   0.00000  Uiso   1.00
C52    C     0.96892   0.14594   0.93096   0.00000  Uiso   1.00
C53    C     0.95689   0.12043   0.83567   0.00000  Uiso   1.00
C54    C     0.91762   0.14212   0.77282   0.00000  Uiso   1.00
C55    C     0.85712   0.16145   0.64265   0.00000  Uiso   1.00
C56    C     0.04706   0.17566   0.02477   0.00000  Uiso   1.00
C57    C     0.10072   0.17515   0.00833   0.00000  Uiso   1.00
C58    C     0.12724   0.22185   0.02444   0.00000  Uiso   1.00
C59    C     0.18806   0.28733   0.03993   0.00000  Uiso   1.00
C60    C     0.96214   0.21290   0.06952   0.00000  Uiso   1.00
C61    C     0.95604   0.16853   0.15040   0.00000  Uiso   1.00
C62    C     0.92802   0.17094   0.24579   0.00000  Uiso   1.00
C63    C     0.92718   0.12612   0.30874   0.00000  Uiso   1.00
C64    C     0.94268   0.19149   0.96236   0.00000  Uiso   1.00
C65    C     0.90342   0.21322   0.89964   0.00000  Uiso   1.00
C66    C     0.89132   0.18775   0.80428   0.00000  Uiso   1.00
C67    C     0.02082   0.22122   0.05618   0.00000  Uiso   1.00
C68    C     0.04726   0.26793   0.07231   0.00000  Uiso   1.00
C69    C     0.10095   0.26749   0.05590   0.00000  Uiso   1.00
H70    H     0.03090   0.09357   0.98724   0.00000  Uiso   1.00
H71    H     0.00180   0.04290   0.15748   0.00000  Uiso   1.00
H72    H     0.97721   0.08519   0.81138   0.00000  Uiso   1.00
H73    H     0.12102   0.13989   0.98403   0.00000  Uiso   1.00
H74    H     0.95795   0.00681   0.36004   0.00000  Uiso   1.00
H75    H     0.90610   0.09598   0.63026   0.00000  Uiso   1.00
H76    H     0.20936   0.21133   0.99431   0.00000  Uiso   1.00
H77    H     0.94171   0.24837   0.09397   0.00000  Uiso   1.00
H78    H     0.90771   0.20619   0.27007   0.00000  Uiso   1.00
H79    H     0.88312   0.24848   0.92397   0.00000  Uiso   1.00
H80    H     0.02693   0.30318   0.09661   0.00000  Uiso   1.00
H81    H     0.88158   0.13934   0.45142   0.00000  Uiso   1.00
H82    H     0.82974   0.22851   0.72163   0.00000  Uiso   1.00
H83    H     0.13300   0.34386   0.08569   0.00000  Uiso   1.00
O84    O     0.89900   0.04253   0.51963   0.00000  Uiso   1.00
O85    O     0.83099   0.15952   0.56217   0.00000  Uiso   1.00
O86    O     0.22885   0.31086   0.03981   0.00000  Uiso   1.00
N87    N     0.94465   0.04379   0.35739   0.00000  Uiso   1.00
N88    N     0.89617   0.12715   0.67510   0.00000  Uiso   1.00
N89    N     0.17969   0.23500   0.01543   0.00000  Uiso   1.00
N90    N     0.90356   0.11511   0.40656   0.00000  Uiso   1.00
N91    N     0.85508   0.19847   0.72427   0.00000  Uiso   1.00
N92    N     0.13860   0.30631   0.06460   0.00000  Uiso   1.00
C93    C     0.62904   0.48953   0.01170   0.00000  Uiso   1.00
C94    C     0.62297   0.51771   0.11900   0.00000  Uiso   1.00
C95    C     0.57815   0.51851   0.18181   0.00000  Uiso   1.00
C96    C     0.58049   0.54653   0.27727   0.00000  Uiso   1.00
C97    C     0.56414   0.58631   0.43907   0.00000  Uiso   1.00
C98    C     0.64594   0.53108   0.93096   0.00000  Uiso   1.00
C99    C     0.62043   0.54311   0.83567   0.00000  Uiso   1.00
C100   C     0.64212   0.58238   0.77282   0.00000  Uiso   1.00
C101   C     0.66145   0.64288   0.64265   0.00000  Uiso   1.00
C102   C     0.67566   0.45294   0.02477   0.00000  Uiso   1.00
C103   C     0.67515   0.39928   0.00833   0.00000  Uiso   1.00
C104   C     0.72185   0.37276   0.02444   0.00000  Uiso   1.00
C105   C     0.78733   0.31194   0.03993   0.00000  Uiso   1.00
C106   C     0.71290   0.53786   0.06952   0.00000  Uiso   1.00
C107   C     0.66853   0.54396   0.15040   0.00000  Uiso   1.00
C108   C     0.67094   0.57198   0.24579   0.00000  Uiso   1.00
C109   C     0.62612   0.57282   0.30874   0.00000  Uiso   1.00
C110   C     0.69149   0.55732   0.96236   0.00000  Uiso   1.00
C111   C     0.71322   0.59658   0.89964   0.00000  Uiso   1.00
C112   C     0.68775   0.60868   0.80428   0.00000  Uiso   1.00
C113   C     0.72122   0.47918   0.05618   0.00000  Uiso   1.00
C114   C     0.76793   0.45274   0.07231   0.00000  Uiso   1.00
C115   C     0.76749   0.39905   0.05590   0.00000  Uiso   1.00
H116   H     0.59357   0.46910   0.98724   0.00000  Uiso   1.00
H117   H     0.54290   0.49820   0.15748   0.00000  Uiso   1.00
H118   H     0.58519   0.52279   0.81138   0.00000  Uiso   1.00
H119   H     0.63989   0.37898   0.98403   0.00000  Uiso   1.00
H120   H     0.50681   0.54205   0.36004   0.00000  Uiso   1.00
H121   H     0.59598   0.59390   0.63026   0.00000  Uiso   1.00
H122   H     0.71133   0.29064   0.99431   0.00000  Uiso   1.00
H123   H     0.74837   0.55829   0.09397   0.00000  Uiso   1.00
H124   H     0.70619   0.59229   0.27007   0.00000  Uiso   1.00
H125   H     0.74848   0.61688   0.92397   0.00000  Uiso   1.00
H126   H     0.80318   0.47307   0.09661   0.00000  Uiso   1.00
H127   H     0.63934   0.61842   0.45142   0.00000  Uiso   1.00
H128   H     0.72851   0.67026   0.72163   0.00000  Uiso   1.00
H129   H     0.84386   0.36700   0.08569   0.00000  Uiso   1.00
O130   O     0.54253   0.60100   0.51963   0.00000  Uiso   1.00
O131   O     0.65952   0.66901   0.56217   0.00000  Uiso   1.00
O132   O     0.81086   0.27115   0.03981   0.00000  Uiso   1.00
N133   N     0.54379   0.55535   0.35739   0.00000  Uiso   1.00
N134   N     0.62715   0.60383   0.67510   0.00000  Uiso   1.00
N135   N     0.73500   0.32031   0.01543   0.00000  Uiso   1.00
N136   N     0.61511   0.59644   0.40656   0.00000  Uiso   1.00
N137   N     0.69847   0.64492   0.72427   0.00000  Uiso   1.00
N138   N     0.80631   0.36140   0.06460   0.00000  Uiso   1.00
C139   C     0.37096   0.51047   0.01170   0.00000  Uiso   1.00
C140   C     0.37703   0.48229   0.11900   0.00000  Uiso   1.00
C141   C     0.42185   0.48149   0.18181   0.00000  Uiso   1.00
C142   C     0.41951   0.45347   0.27727   0.00000  Uiso   1.00
C143   C     0.43586   0.41369   0.43907   0.00000  Uiso   1.00
C144   C     0.35406   0.46892   0.93096   0.00000  Uiso   1.00
C145   C     0.37957   0.45689   0.83567   0.00000  Uiso   1.00
C146   C     0.35788   0.41762   0.77282   0.00000  Uiso   1.00
C147   C     0.33855   0.35712   0.64265   0.00000  Uiso   1.00
C148   C     0.32434   0.54706   0.02477   0.00000  Uiso   1.00
C149   C     0.32485   0.60072   0.00833   0.00000  Uiso   1.00
C150   C     0.27815   0.62724   0.02444   0.00000  Uiso   1.00
C151   C     0.21267   0.68806   0.03993   0.00000  Uiso   1.00
C152   C     0.28710   0.46214   0.06952   0.00000  Uiso   1.00
C153   C     0.33147   0.45604   0.15040   0.00000  Uiso   1.00
C154   C     0.32906   0.42802   0.24579   0.00000  Uiso   1.00
C155   C     0.37388   0.42718   0.30874   0.00000  Uiso   1.00
C156   C     0.30851   0.44268   0.96236   0.00000  Uiso   1.00
C157   C     0.28678   0.40342   0.89964   0.00000  Uiso   1.00
C158   C     0.31225   0.39132   0.80428   0.00000  Uiso   1.00
C159   C     0.27878   0.52082   0.05618   0.00000  Uiso   1.00
C160   C     0.23207   0.54726   0.07231   0.00000  Uiso   1.00
C161   C     0.23251   0.60095   0.05590   0.00000  Uiso   1.00
H162   H     0.40643   0.53090   0.98724   0.00000  Uiso   1.00
H163   H     0.45710   0.50180   0.15748   0.00000  Uiso   1.00
H164   H     0.41481   0.47721   0.81138   0.00000  Uiso   1.00
H165   H     0.36011   0.62102   0.98403   0.00000  Uiso   1.00
H166   H     0.49319   0.45795   0.36004   0.00000  Uiso   1.00
H167   H     0.40402   0.40610   0.63026   0.00000  Uiso   1.00
H168   H     0.28867   0.70936   0.99431   0.00000  Uiso   1.00
H169   H     0.25163   0.44171   0.09397   0.00000  Uiso   1.00
H170   H     0.29381   0.40771   0.27007   0.00000  Uiso   1.00
H171   H     0.25152   0.38312   0.92397   0.00000  Uiso   1.00
H172   H     0.19682   0.52693   0.09661   0.00000  Uiso   1.00
H173   H     0.36066   0.38158   0.45142   0.00000  Uiso   1.00
H174   H     0.27149   0.32974   0.72163   0.00000  Uiso   1.00
H175   H     0.15614   0.63300   0.08569   0.00000  Uiso   1.00
O176   O     0.45747   0.39900   0.51963   0.00000  Uiso   1.00
O177   O     0.34048   0.33099   0.56217   0.00000  Uiso   1.00
O178   O     0.18914   0.72885   0.03981   0.00000  Uiso   1.00
N179   N     0.45621   0.44465   0.35739   0.00000  Uiso   1.00
N180   N     0.37285   0.39617   0.67510   0.00000  Uiso   1.00
N181   N     0.26500   0.67969   0.01543   0.00000  Uiso   1.00
N182   N     0.38489   0.40356   0.40656   0.00000  Uiso   1.00
N183   N     0.30153   0.35508   0.72427   0.00000  Uiso   1.00
N184   N     0.19369   0.63860   0.06460   0.00000  Uiso   1.00
C185   C     0.51047   0.62904   0.98830   0.00000  Uiso   1.00
C186   C     0.48229   0.62297   0.88100   0.00000  Uiso   1.00
C187   C     0.48149   0.57815   0.81819   0.00000  Uiso   1.00
C188   C     0.45347   0.58049   0.72273   0.00000  Uiso   1.00
C189   C     0.41369   0.56414   0.56093   0.00000  Uiso   1.00
C190   C     0.46892   0.64594   0.06904   0.00000  Uiso   1.00
C191   C     0.45689   0.62043   0.16433   0.00000  Uiso   1.00
C192   C     0.41762   0.64212   0.22718   0.00000  Uiso   1.00
C193   C     0.35712   0.66145   0.35735   0.00000  Uiso   1.00
C194   C     0.54706   0.67566   0.97523   0.00000  Uiso   1.00
C195   C     0.60072   0.67515   0.99167   0.00000  Uiso   1.00
C196   C     0.62724   0.72185   0.97556   0.00000  Uiso   1.00
C197   C     0.68806   0.78733   0.96007   0.00000  Uiso   1.00
C198   C     0.46214   0.71290   0.93048   0.00000  Uiso   1.00
C199   C     0.45604   0.66853   0.84960   0.00000  Uiso   1.00
C200   C     0.42802   0.67094   0.75421   0.00000  Uiso   1.00
C201   C     0.42718   0.62612   0.69126   0.00000  Uiso   1.00
C202   C     0.44268   0.69149   0.03764   0.00000  Uiso   1.00
C203   C     0.40342   0.71322   0.10036   0.00000  Uiso   1.00
C204   C     0.39132   0.68775   0.19572   0.00000  Uiso   1.00
C205   C     0.52082   0.72122   0.94382   0.00000  Uiso   1.00
C206   C     0.54726   0.76793   0.92769   0.00000  Uiso   1.00
C207   C     0.60095   0.76749   0.94410   0.00000  Uiso   1.00
H208   H     0.53090   0.59357   0.01276   0.00000  Uiso   1.00
H209   H     0.50180   0.54290   0.84252   0.00000  Uiso   1.00
H210   H     0.47721   0.58519   0.18862   0.00000  Uiso   1.00
H211   H     0.62102   0.63989   0.01597   0.00000  Uiso   1.00
H212   H     0.45795   0.50681   0.63996   0.00000  Uiso   1.00
H213   H     0.40610   0.59598   0.36974   0.00000  Uiso   1.00
H214   H     0.70936   0.71133   0.00569   0.00000  Uiso   1.00
H215   H     0.44171   0.74837   0.90603   0.00000  Uiso   1.00
H216   H     0.40771   0.70619   0.72993   0.00000  Uiso   1.00
H217   H     0.38312   0.74848   0.07603   0.00000  Uiso   1.00
H218   H     0.52693   0.80318   0.90339   0.00000  Uiso   1.00
H219   H     0.38158   0.63934   0.54858   0.00000  Uiso   1.00
H220   H     0.32974   0.72851   0.27837   0.00000  Uiso   1.00
H221   H     0.63300   0.84386   0.91431   0.00000  Uiso   1.00
O222   O     0.39900   0.54253   0.48037   0.00000  Uiso   1.00
O223   O     0.33099   0.65952   0.43783   0.00000  Uiso   1.00
O224   O     0.72885   0.81086   0.96019   0.00000  Uiso   1.00
N225   N     0.44465   0.54379   0.64261   0.00000  Uiso   1.00
N226   N     0.39617   0.62715   0.32490   0.00000  Uiso   1.00
N227   N     0.67969   0.73500   0.98457   0.00000  Uiso   1.00
N228   N     0.40356   0.61511   0.59344   0.00000  Uiso   1.00
N229   N     0.35508   0.69847   0.27573   0.00000  Uiso   1.00
N230   N     0.63860   0.80631   0.93540   0.00000  Uiso   1.00
C231   C     0.48953   0.37096   0.98830   0.00000  Uiso   1.00
C232   C     0.51771   0.37703   0.88100   0.00000  Uiso   1.00
C233   C     0.51851   0.42185   0.81819   0.00000  Uiso   1.00
C234   C     0.54653   0.41951   0.72273   0.00000  Uiso   1.00
C235   C     0.58631   0.43586   0.56093   0.00000  Uiso   1.00
C236   C     0.53108   0.35406   0.06904   0.00000  Uiso   1.00
C237   C     0.54311   0.37957   0.16433   0.00000  Uiso   1.00
C238   C     0.58238   0.35788   0.22718   0.00000  Uiso   1.00
C239   C     0.64288   0.33855   0.35735   0.00000  Uiso   1.00
C240   C     0.45294   0.32434   0.97523   0.00000  Uiso   1.00
C241   C     0.39928   0.32485   0.99167   0.00000  Uiso   1.00
C242   C     0.37276   0.27815   0.97556   0.00000  Uiso   1.00
C243   C     0.31194   0.21267   0.96007   0.00000  Uiso   1.00
C244   C     0.53786   0.28710   0.93048   0.00000  Uiso   1.00
C245   C     0.54396   0.33147   0.84960   0.00000  Uiso   1.00
C246   C     0.57198   0.32906   0.75421   0.00000  Uiso   1.00
C247   C     0.57282   0.37388   0.69126   0.00000  Uiso   1.00
C248   C     0.55732   0.30851   0.03764   0.00000  Uiso   1.00
C249   C     0.59658   0.28678   0.10036   0.00000  Uiso   1.00
C250   C     0.60868   0.31225   0.19572   0.00000  Uiso   1.00
C251   C     0.47918   0.27878   0.94382   0.00000  Uiso   1.00
C252   C     0.45274   0.23207   0.92769   0.00000  Uiso   1.00
C253   C     0.39905   0.23251   0.94410   0.00000  Uiso   1.00
H254   H     0.46910   0.40643   0.01276   0.00000  Uiso   1.00
H255   H     0.49820   0.45710   0.84252   0.00000  Uiso   1.00
H256   H     0.52279   0.41481   0.18862   0.00000  Uiso   1.00
H257   H     0.37898   0.36011   0.01597   0.00000  Uiso   1.00
H258   H     0.54205   0.49319   0.63996   0.00000  Uiso   1.00
H259   H     0.59390   0.40402   0.36974   0.00000  Uiso   1.00
H260   H     0.29064   0.28867   0.00569   0.00000  Uiso   1.00
H261   H     0.55829   0.25163   0.90603   0.00000  Uiso   1.00
H262   H     0.59229   0.29381   0.72993   0.00000  Uiso   1.00
H263   H     0.61688   0.25152   0.07603   0.00000  Uiso   1.00
H264   H     0.47307   0.19682   0.90339   0.00000  Uiso   1.00
H265   H     0.61842   0.36066   0.54858   0.00000  Uiso   1.00
H266   H     0.67026   0.27149   0.27837   0.00000  Uiso   1.00
H267   H     0.36700   0.15614   0.91431   0.00000  Uiso   1.00
O268   O     0.60100   0.45747   0.48037   0.00000  Uiso   1.00
O269   O     0.66901   0.34048   0.43783   0.00000  Uiso   1.00
O270   O     0.27115   0.18914   0.96019   0.00000  Uiso   1.00
N271   N     0.55535   0.45621   0.64261   0.00000  Uiso   1.00
N272   N     0.60383   0.37285   0.32490   0.00000  Uiso   1.00
N273   N     0.32031   0.26500   0.98457   0.00000  Uiso   1.00
N274   N     0.59644   0.38489   0.59344   0.00000  Uiso   1.00
N275   N     0.64492   0.30153   0.27573   0.00000  Uiso   1.00
N276   N     0.36140   0.19369   0.93540   0.00000  Uiso   1.00
C277   C     0.87096   0.01047   0.98830   0.00000  Uiso   1.00
C278   C     0.87703   0.98229   0.88100   0.00000  Uiso   1.00
C279   C     0.92185   0.98149   0.81819   0.00000  Uiso   1.00
C280   C     0.91951   0.95347   0.72273   0.00000  Uiso   1.00
C281   C     0.93586   0.91369   0.56093   0.00000  Uiso   1.00
C282   C     0.85406   0.96892   0.06904   0.00000  Uiso   1.00
C283   C     0.87957   0.95689   0.16433   0.00000  Uiso   1.00
C284   C     0.85788   0.91762   0.22718   0.00000  Uiso   1.00
C285   C     0.83855   0.85712   0.35735   0.00000  Uiso   1.00
C286   C     0.82434   0.04706   0.97523   0.00000  Uiso   1.00
C287   C     0.82485   0.10072   0.99167   0.00000  Uiso   1.00
C288   C     0.77815   0.12724   0.97556   0.00000  Uiso   1.00
C289   C     0.71267   0.18806   0.96007   0.00000  Uiso   1.00
C290   C     0.78710   0.96214   0.93048   0.00000  Uiso   1.00
C291   C     0.83147   0.95604   0.84960   0.00000  Uiso   1.00
C292   C     0.82906   0.92802   0.75421   0.00000  Uiso   1.00
C293   C     0.87388   0.92718   0.69126   0.00000  Uiso   1.00
C294   C     0.80851   0.94268   0.03764   0.00000  Uiso   1.00
C295   C     0.78678   0.90342   0.10036   0.00000  Uiso   1.00
C296   C     0.81225   0.89132   0.19572   0.00000  Uiso   1.00
C297   C     0.77878   0.02082   0.94382   0.00000  Uiso   1.00
C298   C     0.73207   0.04726   0.92769   0.00000  Uiso   1.00
C299   C     0.73251   0.10095   0.94410   0.00000  Uiso   1.00
H300   H     0.90643   0.03090   0.01276   0.00000  Uiso   1.00
H301   H     0.95710   0.00180   0.84252   0.00000  Uiso   1.00
H302   H     0.91481   0.97721   0.18862   0.00000  Uiso   1.00
H303   H     0.86011   0.12102   0.01597   0.00000  Uiso   1.00
H304   H     0.99319   0.95795   0.63996   0.00000  Uiso   1.00
H305   H     0.90402   0.90610   0.36974   0.00000  Uiso   1.00
H306   H     0.78867   0.20936   0.00569   0.00000  Uiso   1.00
H307   H     0.75163   0.94171   0.90603   0.00000  Uiso   1.00
H308   H     0.79381   0.90771   0.72993   0.00000  Uiso   1.00
H309   H     0.75152   0.88312   0.07603   0.00000  Uiso   1.00
H310   H     0.69682   0.02693   0.90339   0.00000  Uiso   1.00
H311   H     0.86066   0.88158   0.54858   0.00000  Uiso   1.00
H312   H     0.77149   0.82974   0.27837   0.00000  Uiso   1.00
H313   H     0.65614   0.13300   0.91431   0.00000  Uiso   1.00
O314   O     0.95747   0.89900   0.48037   0.00000  Uiso   1.00
O315   O     0.84048   0.83099   0.43783   0.00000  Uiso   1.00
O316   O     0.68914   0.22885   0.96019   0.00000  Uiso   1.00
N317   N     0.95621   0.94465   0.64261   0.00000  Uiso   1.00
N318   N     0.87285   0.89617   0.32490   0.00000  Uiso   1.00
N319   N     0.76500   0.17969   0.98457   0.00000  Uiso   1.00
N320   N     0.88489   0.90356   0.59344   0.00000  Uiso   1.00
N321   N     0.80153   0.85508   0.27573   0.00000  Uiso   1.00
N322   N     0.69369   0.13860   0.93540   0.00000  Uiso   1.00
C323   C     0.12904   0.98953   0.98830   0.00000  Uiso   1.00
C324   C     0.12297   0.01771   0.88100   0.00000  Uiso   1.00
C325   C     0.07815   0.01851   0.81819   0.00000  Uiso   1.00
C326   C     0.08049   0.04653   0.72273   0.00000  Uiso   1.00
C327   C     0.06414   0.08631   0.56093   0.00000  Uiso   1.00
C328   C     0.14594   0.03108   0.06904   0.00000  Uiso   1.00
C329   C     0.12043   0.04311   0.16433   0.00000  Uiso   1.00
C330   C     0.14212   0.08238   0.22718   0.00000  Uiso   1.00
C331   C     0.16145   0.14288   0.35735   0.00000  Uiso   1.00
C332   C     0.17566   0.95294   0.97523   0.00000  Uiso   1.00
C333   C     0.17515   0.89928   0.99167   0.00000  Uiso   1.00
C334   C     0.22185   0.87276   0.97556   0.00000  Uiso   1.00
C335   C     0.28733   0.81194   0.96007   0.00000  Uiso   1.00
C336   C     0.21290   0.03786   0.93048   0.00000  Uiso   1.00
C337   C     0.16853   0.04396   0.84960   0.00000  Uiso   1.00
C338   C     0.17094   0.07198   0.75421   0.00000  Uiso   1.00
C339   C     0.12612   0.07282   0.69126   0.00000  Uiso   1.00
C340   C     0.19149   0.05732   0.03764   0.00000  Uiso   1.00
C341   C     0.21322   0.09658   0.10036   0.00000  Uiso   1.00
C342   C     0.18775   0.10868   0.19572   0.00000  Uiso   1.00
C343   C     0.22122   0.97918   0.94382   0.00000  Uiso   1.00
C344   C     0.26793   0.95274   0.92769   0.00000  Uiso   1.00
C345   C     0.26749   0.89905   0.94410   0.00000  Uiso   1.00
H346   H     0.09357   0.96910   0.01276   0.00000  Uiso   1.00
H347   H     0.04290   0.99820   0.84252   0.00000  Uiso   1.00
H348   H     0.08519   0.02279   0.18862   0.00000  Uiso   1.00
H349   H     0.13989   0.87898   0.01597   0.00000  Uiso   1.00
H350   H     0.00681   0.04205   0.63996   0.00000  Uiso   1.00
H351   H     0.09598   0.09390   0.36974   0.00000  Uiso   1.00
H352   H     0.21133   0.79064   0.00569   0.00000  Uiso   1.00
H353   H     0.24837   0.05829   0.90603   0.00000  Uiso   1.00
H354   H     0.20619   0.09229   0.72993   0.00000  Uiso   1.00
H355   H     0.24848   0.11688   0.07603   0.00000  Uiso   1.00
H356   H     0.30318   0.97307   0.90339   0.00000  Uiso   1.00
H357   H     0.13934   0.11842   0.54858   0.00000  Uiso   1.00
H358   H     0.22851   0.17026   0.27837   0.00000  Uiso   1.00
H359   H     0.34386   0.86700   0.91431   0.00000  Uiso   1.00
O360   O     0.04253   0.10100   0.48037   0.00000  Uiso   1.00
O361   O     0.15952   0.16901   0.43783   0.00000  Uiso   1.00
O362   O     0.31086   0.77115   0.96019   0.00000  Uiso   1.00
N363   N     0.04379   0.05535   0.64261   0.00000  Uiso   1.00
N364   N     0.12715   0.10383   0.32490   0.00000  Uiso   1.00
N365   N     0.23500   0.82031   0.98457   0.00000  Uiso   1.00
N366   N     0.11511   0.09644   0.59344   0.00000  Uiso   1.00
N367   N     0.19847   0.14492   0.27573   0.00000  Uiso   1.00
N368   N     0.30631   0.86140   0.93540   0.00000  Uiso   1.00
