data_job_03430
_audit_creation_date              2018-12-19
_audit_creation_method            'Materials Studio'
_symmetry_space_group_name_H-M    'P1'
_symmetry_Int_Tables_number       1
_symmetry_cell_setting            triclinic
loop_
_symmetry_equiv_pos_as_xyz
  x,y,z
_cell_length_a                    29.5012
_cell_length_b                    23.3607
_cell_length_c                    15.3857
_cell_angle_alpha                 90.0000
_cell_angle_beta                  90.0000
_cell_angle_gamma                 90.0000
loop_
_atom_site_label
_atom_site_type_symbol
_atom_site_fract_x
_atom_site_fract_y
_atom_site_fract_z
_atom_site_U_iso_or_equiv
_atom_site_adp_type
_atom_site_occupancy
C1     C     0.10925   0.65981   0.13481   0.00000  Uiso   1.00
C2     C     0.10745   0.66250   0.03584   0.00000  Uiso   1.00
C3     C     0.06836   0.66570   0.98590   0.00000  Uiso   1.00
C4     C     0.07389   0.66777   0.89634   0.00000  Uiso   1.00
C5     C     0.06454   0.67208   0.74847   0.00000  Uiso   1.00
C6     C     0.13575   0.60571   0.15708   0.00000  Uiso   1.00
C7     C     0.12045   0.56118   0.20907   0.00000  Uiso   1.00
C8     C     0.14980   0.51546   0.22158   0.00000  Uiso   1.00
C9     C     0.18439   0.43163   0.26197   0.00000  Uiso   1.00
C10    C     0.13892   0.70984   0.16339   0.00000  Uiso   1.00
C11    C     0.12629   0.75285   0.22071   0.00000  Uiso   1.00
C12    C     0.15832   0.79479   0.23855   0.00000  Uiso   1.00
C13    C     0.19784   0.87263   0.28874   0.00000  Uiso   1.00
C14    C     0.18858   0.65780   0.06458   0.00000  Uiso   1.00
C15    C     0.15054   0.66140   0.99770   0.00000  Uiso   1.00
C16    C     0.15613   0.66348   0.90819   0.00000  Uiso   1.00
C17    C     0.11706   0.66668   0.85812   0.00000  Uiso   1.00
C18    C     0.17884   0.60462   0.11893   0.00000  Uiso   1.00
C19    C     0.20822   0.55896   0.13136   0.00000  Uiso   1.00
C20    C     0.19297   0.51436   0.18336   0.00000  Uiso   1.00
C21    C     0.18201   0.70875   0.12524   0.00000  Uiso   1.00
C22    C     0.21406   0.75063   0.14299   0.00000  Uiso   1.00
C23    C     0.20149   0.79369   0.20033   0.00000  Uiso   1.00
H24    H     0.07570   0.66066   0.16452   0.00000  Uiso   1.00
H25    H     0.03502   0.66654   0.01545   0.00000  Uiso   1.00
H26    H     0.08710   0.56204   0.23860   0.00000  Uiso   1.00
H27    H     0.09294   0.75368   0.25022   0.00000  Uiso   1.00
H28    H     0.00892   0.67255   0.83336   0.00000  Uiso   1.00
H29    H     0.11874   0.45222   0.30389   0.00000  Uiso   1.00
H30    H     0.13106   0.85633   0.32842   0.00000  Uiso   1.00
H31    H     0.22213   0.65695   0.03487   0.00000  Uiso   1.00
H32    H     0.18948   0.66263   0.87868   0.00000  Uiso   1.00
H33    H     0.24156   0.55813   0.10183   0.00000  Uiso   1.00
H34    H     0.24741   0.74977   0.11346   0.00000  Uiso   1.00
H35    H     0.13429   0.66938   0.72235   0.00000  Uiso   1.00
H36    H     0.24411   0.44904   0.19289   0.00000  Uiso   1.00
H37    H     0.25643   0.85316   0.21741   0.00000  Uiso   1.00
O38    O     0.04748   0.67474   0.67745   0.00000  Uiso   1.00
O39    O     0.19157   0.38568   0.29478   0.00000  Uiso   1.00
O40    O     0.20773   0.91587   0.32695   0.00000  Uiso   1.00
N41    N     0.04290   0.67104   0.82867   0.00000  Uiso   1.00
N42    N     0.14558   0.46503   0.26858   0.00000  Uiso   1.00
N43    N     0.15710   0.84284   0.29152   0.00000  Uiso   1.00
N44    N     0.11036   0.66933   0.76893   0.00000  Uiso   1.00
N45    N     0.21304   0.46333   0.20885   0.00000  Uiso   1.00
N46    N     0.22456   0.84113   0.23179   0.00000  Uiso   1.00
C47    C     0.60925   0.15981   0.13481   0.00000  Uiso   1.00
C48    C     0.60745   0.16250   0.03584   0.00000  Uiso   1.00
C49    C     0.56836   0.16570   0.98590   0.00000  Uiso   1.00
C50    C     0.57389   0.16777   0.89634   0.00000  Uiso   1.00
C51    C     0.56454   0.17208   0.74847   0.00000  Uiso   1.00
C52    C     0.63575   0.10571   0.15708   0.00000  Uiso   1.00
C53    C     0.62045   0.06118   0.20907   0.00000  Uiso   1.00
C54    C     0.64980   0.01546   0.22158   0.00000  Uiso   1.00
C55    C     0.68439   0.93163   0.26197   0.00000  Uiso   1.00
C56    C     0.63892   0.20984   0.16339   0.00000  Uiso   1.00
C57    C     0.62629   0.25285   0.22071   0.00000  Uiso   1.00
C58    C     0.65832   0.29479   0.23855   0.00000  Uiso   1.00
C59    C     0.69784   0.37263   0.28874   0.00000  Uiso   1.00
C60    C     0.68858   0.15780   0.06458   0.00000  Uiso   1.00
C61    C     0.65054   0.16140   0.99770   0.00000  Uiso   1.00
C62    C     0.65613   0.16348   0.90819   0.00000  Uiso   1.00
C63    C     0.61706   0.16668   0.85812   0.00000  Uiso   1.00
C64    C     0.67884   0.10462   0.11893   0.00000  Uiso   1.00
C65    C     0.70822   0.05896   0.13136   0.00000  Uiso   1.00
C66    C     0.69297   0.01436   0.18336   0.00000  Uiso   1.00
C67    C     0.68201   0.20875   0.12524   0.00000  Uiso   1.00
C68    C     0.71406   0.25063   0.14299   0.00000  Uiso   1.00
C69    C     0.70149   0.29369   0.20033   0.00000  Uiso   1.00
H70    H     0.57570   0.16066   0.16452   0.00000  Uiso   1.00
H71    H     0.53502   0.16654   0.01545   0.00000  Uiso   1.00
H72    H     0.58710   0.06204   0.23860   0.00000  Uiso   1.00
H73    H     0.59294   0.25368   0.25022   0.00000  Uiso   1.00
H74    H     0.50892   0.17255   0.83336   0.00000  Uiso   1.00
H75    H     0.61874   0.95222   0.30389   0.00000  Uiso   1.00
H76    H     0.63106   0.35633   0.32842   0.00000  Uiso   1.00
H77    H     0.72213   0.15695   0.03487   0.00000  Uiso   1.00
H78    H     0.68948   0.16263   0.87868   0.00000  Uiso   1.00
H79    H     0.74156   0.05813   0.10183   0.00000  Uiso   1.00
H80    H     0.74741   0.24977   0.11346   0.00000  Uiso   1.00
H81    H     0.63429   0.16938   0.72235   0.00000  Uiso   1.00
H82    H     0.74411   0.94904   0.19289   0.00000  Uiso   1.00
H83    H     0.75643   0.35316   0.21741   0.00000  Uiso   1.00
O84    O     0.54748   0.17474   0.67745   0.00000  Uiso   1.00
O85    O     0.69157   0.88568   0.29478   0.00000  Uiso   1.00
O86    O     0.70773   0.41587   0.32695   0.00000  Uiso   1.00
N87    N     0.54290   0.17104   0.82867   0.00000  Uiso   1.00
N88    N     0.64558   0.96503   0.26858   0.00000  Uiso   1.00
N89    N     0.65710   0.34284   0.29152   0.00000  Uiso   1.00
N90    N     0.61036   0.16933   0.76893   0.00000  Uiso   1.00
N91    N     0.71304   0.96333   0.20885   0.00000  Uiso   1.00
N92    N     0.72456   0.34113   0.23179   0.00000  Uiso   1.00
C93    C     0.89075   0.34019   0.63481   0.00000  Uiso   1.00
C94    C     0.89255   0.33750   0.53584   0.00000  Uiso   1.00
C95    C     0.93164   0.33430   0.48590   0.00000  Uiso   1.00
C96    C     0.92611   0.33223   0.39634   0.00000  Uiso   1.00
C97    C     0.93546   0.32792   0.24847   0.00000  Uiso   1.00
C98    C     0.86425   0.39429   0.65708   0.00000  Uiso   1.00
C99    C     0.87955   0.43882   0.70907   0.00000  Uiso   1.00
C100   C     0.85020   0.48454   0.72158   0.00000  Uiso   1.00
C101   C     0.81561   0.56837   0.76197   0.00000  Uiso   1.00
C102   C     0.86108   0.29016   0.66339   0.00000  Uiso   1.00
C103   C     0.87371   0.24715   0.72071   0.00000  Uiso   1.00
C104   C     0.84168   0.20521   0.73855   0.00000  Uiso   1.00
C105   C     0.80216   0.12737   0.78874   0.00000  Uiso   1.00
C106   C     0.81142   0.34220   0.56458   0.00000  Uiso   1.00
C107   C     0.84946   0.33860   0.49770   0.00000  Uiso   1.00
C108   C     0.84387   0.33652   0.40819   0.00000  Uiso   1.00
C109   C     0.88294   0.33332   0.35812   0.00000  Uiso   1.00
C110   C     0.82116   0.39538   0.61893   0.00000  Uiso   1.00
C111   C     0.79178   0.44104   0.63136   0.00000  Uiso   1.00
C112   C     0.80703   0.48564   0.68336   0.00000  Uiso   1.00
C113   C     0.81799   0.29125   0.62524   0.00000  Uiso   1.00
C114   C     0.78594   0.24937   0.64299   0.00000  Uiso   1.00
C115   C     0.79851   0.20631   0.70033   0.00000  Uiso   1.00
H116   H     0.92430   0.33934   0.66452   0.00000  Uiso   1.00
H117   H     0.96498   0.33346   0.51545   0.00000  Uiso   1.00
H118   H     0.91290   0.43796   0.73860   0.00000  Uiso   1.00
H119   H     0.90706   0.24632   0.75022   0.00000  Uiso   1.00
H120   H     0.99108   0.32745   0.33336   0.00000  Uiso   1.00
H121   H     0.88126   0.54778   0.80389   0.00000  Uiso   1.00
H122   H     0.86894   0.14367   0.82842   0.00000  Uiso   1.00
H123   H     0.77787   0.34305   0.53487   0.00000  Uiso   1.00
H124   H     0.81052   0.33737   0.37868   0.00000  Uiso   1.00
H125   H     0.75844   0.44187   0.60183   0.00000  Uiso   1.00
H126   H     0.75259   0.25023   0.61346   0.00000  Uiso   1.00
H127   H     0.86571   0.33062   0.22235   0.00000  Uiso   1.00
H128   H     0.75589   0.55096   0.69289   0.00000  Uiso   1.00
H129   H     0.74357   0.14684   0.71741   0.00000  Uiso   1.00
O130   O     0.95252   0.32526   0.17745   0.00000  Uiso   1.00
O131   O     0.80843   0.61432   0.79478   0.00000  Uiso   1.00
O132   O     0.79227   0.08413   0.82695   0.00000  Uiso   1.00
N133   N     0.95710   0.32896   0.32867   0.00000  Uiso   1.00
N134   N     0.85442   0.53497   0.76858   0.00000  Uiso   1.00
N135   N     0.84290   0.15716   0.79152   0.00000  Uiso   1.00
N136   N     0.88964   0.33067   0.26893   0.00000  Uiso   1.00
N137   N     0.78696   0.53667   0.70885   0.00000  Uiso   1.00
N138   N     0.77544   0.15887   0.73179   0.00000  Uiso   1.00
C139   C     0.39075   0.84019   0.63481   0.00000  Uiso   1.00
C140   C     0.39255   0.83750   0.53584   0.00000  Uiso   1.00
C141   C     0.43164   0.83430   0.48590   0.00000  Uiso   1.00
C142   C     0.42611   0.83223   0.39634   0.00000  Uiso   1.00
C143   C     0.43546   0.82792   0.24847   0.00000  Uiso   1.00
C144   C     0.36425   0.89429   0.65708   0.00000  Uiso   1.00
C145   C     0.37955   0.93882   0.70907   0.00000  Uiso   1.00
C146   C     0.35020   0.98454   0.72158   0.00000  Uiso   1.00
C147   C     0.31561   0.06837   0.76197   0.00000  Uiso   1.00
C148   C     0.36108   0.79016   0.66339   0.00000  Uiso   1.00
C149   C     0.37371   0.74715   0.72071   0.00000  Uiso   1.00
C150   C     0.34168   0.70521   0.73855   0.00000  Uiso   1.00
C151   C     0.30216   0.62737   0.78874   0.00000  Uiso   1.00
C152   C     0.31142   0.84220   0.56458   0.00000  Uiso   1.00
C153   C     0.34946   0.83860   0.49770   0.00000  Uiso   1.00
C154   C     0.34387   0.83652   0.40819   0.00000  Uiso   1.00
C155   C     0.38294   0.83332   0.35812   0.00000  Uiso   1.00
C156   C     0.32116   0.89538   0.61893   0.00000  Uiso   1.00
C157   C     0.29178   0.94104   0.63136   0.00000  Uiso   1.00
C158   C     0.30703   0.98564   0.68336   0.00000  Uiso   1.00
C159   C     0.31799   0.79125   0.62524   0.00000  Uiso   1.00
C160   C     0.28594   0.74937   0.64299   0.00000  Uiso   1.00
C161   C     0.29851   0.70631   0.70033   0.00000  Uiso   1.00
H162   H     0.42430   0.83934   0.66452   0.00000  Uiso   1.00
H163   H     0.46498   0.83346   0.51545   0.00000  Uiso   1.00
H164   H     0.41290   0.93796   0.73860   0.00000  Uiso   1.00
H165   H     0.40706   0.74632   0.75022   0.00000  Uiso   1.00
H166   H     0.49108   0.82745   0.33336   0.00000  Uiso   1.00
H167   H     0.38126   0.04778   0.80389   0.00000  Uiso   1.00
H168   H     0.36894   0.64367   0.82842   0.00000  Uiso   1.00
H169   H     0.27787   0.84305   0.53487   0.00000  Uiso   1.00
H170   H     0.31052   0.83737   0.37868   0.00000  Uiso   1.00
H171   H     0.25844   0.94187   0.60183   0.00000  Uiso   1.00
H172   H     0.25259   0.75023   0.61346   0.00000  Uiso   1.00
H173   H     0.36571   0.83062   0.22235   0.00000  Uiso   1.00
H174   H     0.25589   0.05096   0.69289   0.00000  Uiso   1.00
H175   H     0.24357   0.64684   0.71741   0.00000  Uiso   1.00
O176   O     0.45252   0.82526   0.17745   0.00000  Uiso   1.00
O177   O     0.30843   0.11432   0.79478   0.00000  Uiso   1.00
O178   O     0.29227   0.58413   0.82695   0.00000  Uiso   1.00
N179   N     0.45710   0.82896   0.32867   0.00000  Uiso   1.00
N180   N     0.35442   0.03497   0.76858   0.00000  Uiso   1.00
N181   N     0.34290   0.65716   0.79152   0.00000  Uiso   1.00
N182   N     0.38964   0.83067   0.26893   0.00000  Uiso   1.00
N183   N     0.28696   0.03667   0.70885   0.00000  Uiso   1.00
N184   N     0.27544   0.65887   0.73179   0.00000  Uiso   1.00
C185   C     0.89075   0.65981   0.36519   0.00000  Uiso   1.00
C186   C     0.89255   0.66250   0.46416   0.00000  Uiso   1.00
C187   C     0.93164   0.66570   0.51410   0.00000  Uiso   1.00
C188   C     0.92611   0.66777   0.60366   0.00000  Uiso   1.00
C189   C     0.93546   0.67208   0.75153   0.00000  Uiso   1.00
C190   C     0.86425   0.60571   0.34292   0.00000  Uiso   1.00
C191   C     0.87955   0.56118   0.29093   0.00000  Uiso   1.00
C192   C     0.85020   0.51546   0.27842   0.00000  Uiso   1.00
C193   C     0.81561   0.43163   0.23803   0.00000  Uiso   1.00
C194   C     0.86108   0.70984   0.33661   0.00000  Uiso   1.00
C195   C     0.87371   0.75285   0.27929   0.00000  Uiso   1.00
C196   C     0.84168   0.79479   0.26145   0.00000  Uiso   1.00
C197   C     0.80216   0.87263   0.21126   0.00000  Uiso   1.00
C198   C     0.81142   0.65780   0.43542   0.00000  Uiso   1.00
C199   C     0.84946   0.66140   0.50230   0.00000  Uiso   1.00
C200   C     0.84387   0.66348   0.59181   0.00000  Uiso   1.00
C201   C     0.88294   0.66668   0.64188   0.00000  Uiso   1.00
C202   C     0.82116   0.60462   0.38107   0.00000  Uiso   1.00
C203   C     0.79178   0.55896   0.36864   0.00000  Uiso   1.00
C204   C     0.80703   0.51436   0.31664   0.00000  Uiso   1.00
C205   C     0.81799   0.70875   0.37476   0.00000  Uiso   1.00
C206   C     0.78594   0.75063   0.35701   0.00000  Uiso   1.00
C207   C     0.79851   0.79369   0.29967   0.00000  Uiso   1.00
H208   H     0.92430   0.66066   0.33548   0.00000  Uiso   1.00
H209   H     0.96498   0.66654   0.48455   0.00000  Uiso   1.00
H210   H     0.91290   0.56204   0.26140   0.00000  Uiso   1.00
H211   H     0.90706   0.75368   0.24978   0.00000  Uiso   1.00
H212   H     0.99108   0.67255   0.66664   0.00000  Uiso   1.00
H213   H     0.88126   0.45222   0.19611   0.00000  Uiso   1.00
H214   H     0.86894   0.85633   0.17158   0.00000  Uiso   1.00
H215   H     0.77787   0.65695   0.46513   0.00000  Uiso   1.00
H216   H     0.81052   0.66263   0.62132   0.00000  Uiso   1.00
H217   H     0.75844   0.55813   0.39817   0.00000  Uiso   1.00
H218   H     0.75259   0.74977   0.38654   0.00000  Uiso   1.00
H219   H     0.86571   0.66938   0.77765   0.00000  Uiso   1.00
H220   H     0.75589   0.44904   0.30711   0.00000  Uiso   1.00
H221   H     0.74357   0.85316   0.28259   0.00000  Uiso   1.00
O222   O     0.95252   0.67474   0.82255   0.00000  Uiso   1.00
O223   O     0.80843   0.38568   0.20522   0.00000  Uiso   1.00
O224   O     0.79227   0.91587   0.17305   0.00000  Uiso   1.00
N225   N     0.95710   0.67104   0.67133   0.00000  Uiso   1.00
N226   N     0.85442   0.46503   0.23142   0.00000  Uiso   1.00
N227   N     0.84290   0.84284   0.20848   0.00000  Uiso   1.00
N228   N     0.88964   0.66933   0.73107   0.00000  Uiso   1.00
N229   N     0.78696   0.46333   0.29115   0.00000  Uiso   1.00
N230   N     0.77544   0.84113   0.26821   0.00000  Uiso   1.00
C231   C     0.39075   0.15981   0.36519   0.00000  Uiso   1.00
C232   C     0.39255   0.16250   0.46416   0.00000  Uiso   1.00
C233   C     0.43164   0.16570   0.51410   0.00000  Uiso   1.00
C234   C     0.42611   0.16777   0.60366   0.00000  Uiso   1.00
C235   C     0.43546   0.17208   0.75153   0.00000  Uiso   1.00
C236   C     0.36425   0.10571   0.34292   0.00000  Uiso   1.00
C237   C     0.37955   0.06118   0.29093   0.00000  Uiso   1.00
C238   C     0.35020   0.01546   0.27842   0.00000  Uiso   1.00
C239   C     0.31561   0.93163   0.23803   0.00000  Uiso   1.00
C240   C     0.36108   0.20984   0.33661   0.00000  Uiso   1.00
C241   C     0.37371   0.25285   0.27929   0.00000  Uiso   1.00
C242   C     0.34168   0.29479   0.26145   0.00000  Uiso   1.00
C243   C     0.30216   0.37263   0.21126   0.00000  Uiso   1.00
C244   C     0.31142   0.15780   0.43542   0.00000  Uiso   1.00
C245   C     0.34946   0.16140   0.50230   0.00000  Uiso   1.00
C246   C     0.34387   0.16348   0.59181   0.00000  Uiso   1.00
C247   C     0.38294   0.16668   0.64188   0.00000  Uiso   1.00
C248   C     0.32116   0.10462   0.38107   0.00000  Uiso   1.00
C249   C     0.29178   0.05896   0.36864   0.00000  Uiso   1.00
C250   C     0.30703   0.01436   0.31664   0.00000  Uiso   1.00
C251   C     0.31799   0.20875   0.37476   0.00000  Uiso   1.00
C252   C     0.28594   0.25063   0.35701   0.00000  Uiso   1.00
C253   C     0.29851   0.29369   0.29967   0.00000  Uiso   1.00
H254   H     0.42430   0.16066   0.33548   0.00000  Uiso   1.00
H255   H     0.46498   0.16654   0.48455   0.00000  Uiso   1.00
H256   H     0.41290   0.06204   0.26140   0.00000  Uiso   1.00
H257   H     0.40706   0.25368   0.24978   0.00000  Uiso   1.00
H258   H     0.49108   0.17255   0.66664   0.00000  Uiso   1.00
H259   H     0.38126   0.95222   0.19611   0.00000  Uiso   1.00
H260   H     0.36894   0.35633   0.17158   0.00000  Uiso   1.00
H261   H     0.27787   0.15695   0.46513   0.00000  Uiso   1.00
H262   H     0.31052   0.16263   0.62132   0.00000  Uiso   1.00
H263   H     0.25844   0.05813   0.39817   0.00000  Uiso   1.00
H264   H     0.25259   0.24977   0.38654   0.00000  Uiso   1.00
H265   H     0.36571   0.16938   0.77765   0.00000  Uiso   1.00
H266   H     0.25589   0.94904   0.30711   0.00000  Uiso   1.00
H267   H     0.24357   0.35316   0.28259   0.00000  Uiso   1.00
O268   O     0.45252   0.17474   0.82255   0.00000  Uiso   1.00
O269   O     0.30843   0.88568   0.20522   0.00000  Uiso   1.00
O270   O     0.29227   0.41587   0.17305   0.00000  Uiso   1.00
N271   N     0.45710   0.17104   0.67133   0.00000  Uiso   1.00
N272   N     0.35442   0.96503   0.23142   0.00000  Uiso   1.00
N273   N     0.34290   0.34284   0.20848   0.00000  Uiso   1.00
N274   N     0.38964   0.16933   0.73107   0.00000  Uiso   1.00
N275   N     0.28696   0.96333   0.29115   0.00000  Uiso   1.00
N276   N     0.27544   0.34113   0.26821   0.00000  Uiso   1.00
C277   C     0.10925   0.34019   0.86519   0.00000  Uiso   1.00
C278   C     0.10745   0.33750   0.96416   0.00000  Uiso   1.00
C279   C     0.06836   0.33430   0.01410   0.00000  Uiso   1.00
C280   C     0.07389   0.33223   0.10366   0.00000  Uiso   1.00
C281   C     0.06454   0.32792   0.25153   0.00000  Uiso   1.00
C282   C     0.13575   0.39429   0.84292   0.00000  Uiso   1.00
C283   C     0.12045   0.43882   0.79093   0.00000  Uiso   1.00
C284   C     0.14980   0.48454   0.77842   0.00000  Uiso   1.00
C285   C     0.18439   0.56837   0.73803   0.00000  Uiso   1.00
C286   C     0.13892   0.29016   0.83661   0.00000  Uiso   1.00
C287   C     0.12629   0.24715   0.77929   0.00000  Uiso   1.00
C288   C     0.15832   0.20521   0.76145   0.00000  Uiso   1.00
C289   C     0.19784   0.12737   0.71126   0.00000  Uiso   1.00
C290   C     0.18858   0.34220   0.93542   0.00000  Uiso   1.00
C291   C     0.15054   0.33860   0.00230   0.00000  Uiso   1.00
C292   C     0.15613   0.33652   0.09181   0.00000  Uiso   1.00
C293   C     0.11706   0.33332   0.14188   0.00000  Uiso   1.00
C294   C     0.17884   0.39538   0.88107   0.00000  Uiso   1.00
C295   C     0.20822   0.44104   0.86864   0.00000  Uiso   1.00
C296   C     0.19297   0.48564   0.81664   0.00000  Uiso   1.00
C297   C     0.18201   0.29125   0.87476   0.00000  Uiso   1.00
C298   C     0.21406   0.24937   0.85701   0.00000  Uiso   1.00
C299   C     0.20149   0.20631   0.79967   0.00000  Uiso   1.00
H300   H     0.07570   0.33934   0.83548   0.00000  Uiso   1.00
H301   H     0.03502   0.33346   0.98455   0.00000  Uiso   1.00
H302   H     0.08710   0.43796   0.76140   0.00000  Uiso   1.00
H303   H     0.09294   0.24632   0.74978   0.00000  Uiso   1.00
H304   H     0.00892   0.32745   0.16664   0.00000  Uiso   1.00
H305   H     0.11874   0.54778   0.69611   0.00000  Uiso   1.00
H306   H     0.13106   0.14367   0.67158   0.00000  Uiso   1.00
H307   H     0.22213   0.34305   0.96513   0.00000  Uiso   1.00
H308   H     0.18948   0.33737   0.12132   0.00000  Uiso   1.00
H309   H     0.24156   0.44187   0.89817   0.00000  Uiso   1.00
H310   H     0.24741   0.25023   0.88654   0.00000  Uiso   1.00
H311   H     0.13429   0.33062   0.27765   0.00000  Uiso   1.00
H312   H     0.24411   0.55096   0.80711   0.00000  Uiso   1.00
H313   H     0.25643   0.14684   0.78259   0.00000  Uiso   1.00
O314   O     0.04748   0.32526   0.32255   0.00000  Uiso   1.00
O315   O     0.19157   0.61432   0.70522   0.00000  Uiso   1.00
O316   O     0.20773   0.08413   0.67305   0.00000  Uiso   1.00
N317   N     0.04290   0.32896   0.17133   0.00000  Uiso   1.00
N318   N     0.14558   0.53497   0.73142   0.00000  Uiso   1.00
N319   N     0.15710   0.15716   0.70848   0.00000  Uiso   1.00
N320   N     0.11036   0.33067   0.23107   0.00000  Uiso   1.00
N321   N     0.21304   0.53667   0.79115   0.00000  Uiso   1.00
N322   N     0.22456   0.15887   0.76821   0.00000  Uiso   1.00
C323   C     0.60925   0.84019   0.86519   0.00000  Uiso   1.00
C324   C     0.60745   0.83750   0.96416   0.00000  Uiso   1.00
C325   C     0.56836   0.83430   0.01410   0.00000  Uiso   1.00
C326   C     0.57389   0.83223   0.10366   0.00000  Uiso   1.00
C327   C     0.56454   0.82792   0.25153   0.00000  Uiso   1.00
C328   C     0.63575   0.89429   0.84292   0.00000  Uiso   1.00
C329   C     0.62045   0.93882   0.79093   0.00000  Uiso   1.00
C330   C     0.64980   0.98454   0.77842   0.00000  Uiso   1.00
C331   C     0.68439   0.06837   0.73803   0.00000  Uiso   1.00
C332   C     0.63892   0.79016   0.83661   0.00000  Uiso   1.00
C333   C     0.62629   0.74715   0.77929   0.00000  Uiso   1.00
C334   C     0.65832   0.70521   0.76145   0.00000  Uiso   1.00
C335   C     0.69784   0.62737   0.71126   0.00000  Uiso   1.00
C336   C     0.68858   0.84220   0.93542   0.00000  Uiso   1.00
C337   C     0.65054   0.83860   0.00230   0.00000  Uiso   1.00
C338   C     0.65613   0.83652   0.09181   0.00000  Uiso   1.00
C339   C     0.61706   0.83332   0.14188   0.00000  Uiso   1.00
C340   C     0.67884   0.89538   0.88107   0.00000  Uiso   1.00
C341   C     0.70822   0.94104   0.86864   0.00000  Uiso   1.00
C342   C     0.69297   0.98564   0.81664   0.00000  Uiso   1.00
C343   C     0.68201   0.79125   0.87476   0.00000  Uiso   1.00
C344   C     0.71406   0.74937   0.85701   0.00000  Uiso   1.00
C345   C     0.70149   0.70631   0.79967   0.00000  Uiso   1.00
H346   H     0.57570   0.83934   0.83548   0.00000  Uiso   1.00
H347   H     0.53502   0.83346   0.98455   0.00000  Uiso   1.00
H348   H     0.58710   0.93796   0.76140   0.00000  Uiso   1.00
H349   H     0.59294   0.74632   0.74978   0.00000  Uiso   1.00
H350   H     0.50892   0.82745   0.16664   0.00000  Uiso   1.00
H351   H     0.61874   0.04778   0.69611   0.00000  Uiso   1.00
H352   H     0.63106   0.64367   0.67158   0.00000  Uiso   1.00
H353   H     0.72213   0.84305   0.96513   0.00000  Uiso   1.00
H354   H     0.68948   0.83737   0.12132   0.00000  Uiso   1.00
H355   H     0.74156   0.94187   0.89817   0.00000  Uiso   1.00
H356   H     0.74741   0.75023   0.88654   0.00000  Uiso   1.00
H357   H     0.63429   0.83062   0.27765   0.00000  Uiso   1.00
H358   H     0.74411   0.05096   0.80711   0.00000  Uiso   1.00
H359   H     0.75643   0.64684   0.78259   0.00000  Uiso   1.00
O360   O     0.54748   0.82526   0.32255   0.00000  Uiso   1.00
O361   O     0.69157   0.11432   0.70522   0.00000  Uiso   1.00
O362   O     0.70773   0.58413   0.67305   0.00000  Uiso   1.00
N363   N     0.54290   0.82896   0.17133   0.00000  Uiso   1.00
N364   N     0.64558   0.03497   0.73142   0.00000  Uiso   1.00
N365   N     0.65710   0.65716   0.70848   0.00000  Uiso   1.00
N366   N     0.61036   0.83067   0.23107   0.00000  Uiso   1.00
N367   N     0.71304   0.03667   0.79115   0.00000  Uiso   1.00
N368   N     0.72456   0.65887   0.76821   0.00000  Uiso   1.00
