data_job_05372
_audit_creation_date              2018-12-19
_audit_creation_method            'Materials Studio'
_symmetry_space_group_name_H-M    'P1'
_symmetry_Int_Tables_number       1
_symmetry_cell_setting            triclinic
loop_
_symmetry_equiv_pos_as_xyz
  x,y,z
_cell_length_a                    18.7721
_cell_length_b                    15.2419
_cell_length_c                    17.4943
_cell_angle_alpha                 90.0000
_cell_angle_beta                  90.0000
_cell_angle_gamma                 90.0000
loop_
_atom_site_label
_atom_site_type_symbol
_atom_site_fract_x
_atom_site_fract_y
_atom_site_fract_z
_atom_site_U_iso_or_equiv
_atom_site_adp_type
_atom_site_occupancy
C1     C     0.66028   0.17658   0.72995   0.00000  Uiso   1.00
C2     C     0.66529   0.17950   0.81692   0.00000  Uiso   1.00
C3     C     0.61735   0.14165   0.86750   0.00000  Uiso   1.00
C4     C     0.63134   0.15168   0.94494   0.00000  Uiso   1.00
C5     C     0.63001   0.14922   0.07604   0.00000  Uiso   1.00
C6     C     0.66084   0.27186   0.70335   0.00000  Uiso   1.00
C7     C     0.60916   0.31165   0.65845   0.00000  Uiso   1.00
C8     C     0.61941   0.39942   0.64028   0.00000  Uiso   1.00
C9     C     0.61119   0.54032   0.59503   0.00000  Uiso   1.00
C10    C     0.73015   0.13673   0.70219   0.00000  Uiso   1.00
C11    C     0.73675   0.06292   0.65628   0.00000  Uiso   1.00
C12    C     0.80535   0.03693   0.63712   0.00000  Uiso   1.00
C13    C     0.90475   0.96803   0.59005   0.00000  Uiso   1.00
C14    C     0.77038   0.26170   0.77753   0.00000  Uiso   1.00
C15    C     0.72509   0.22574   0.84275   0.00000  Uiso   1.00
C16    C     0.73916   0.23583   0.92014   0.00000  Uiso   1.00
C17    C     0.69125   0.19799   0.97083   0.00000  Uiso   1.00
C18    C     0.72064   0.31809   0.72919   0.00000  Uiso   1.00
C19    C     0.73097   0.40582   0.71108   0.00000  Uiso   1.00
C20    C     0.67932   0.44574   0.66617   0.00000  Uiso   1.00
C21    C     0.78995   0.18296   0.72803   0.00000  Uiso   1.00
C22    C     0.85856   0.15709   0.70892   0.00000  Uiso   1.00
C23    C     0.86526   0.08325   0.66300   0.00000  Uiso   1.00
H24    H     0.61372   0.14059   0.70983   0.00000  Uiso   1.00
H25    H     0.57107   0.10588   0.84748   0.00000  Uiso   1.00
H26    H     0.56289   0.27585   0.63845   0.00000  Uiso   1.00
H27    H     0.69046   0.02716   0.63630   0.00000  Uiso   1.00
H28    H     0.55015   0.08781   0.01148   0.00000  Uiso   1.00
H29    H     0.53291   0.44619   0.57072   0.00000  Uiso   1.00
H30    H     0.80191   0.92177   0.56616   0.00000  Uiso   1.00
H31    H     0.81694   0.29770   0.79764   0.00000  Uiso   1.00
H32    H     0.78544   0.27161   0.94012   0.00000  Uiso   1.00
H33    H     0.77726   0.44158   0.73109   0.00000  Uiso   1.00
H34    H     0.90482   0.19289   0.72893   0.00000  Uiso   1.00
H35    H     0.72414   0.22233   0.08667   0.00000  Uiso   1.00
H36    H     0.70690   0.58071   0.64590   0.00000  Uiso   1.00
H37    H     0.97590   0.05629   0.64135   0.00000  Uiso   1.00
O38    O     0.61275   0.13510   0.14121   0.00000  Uiso   1.00
O39    O     0.59014   0.60527   0.56294   0.00000  Uiso   1.00
O40    O     0.94305   0.91724   0.55697   0.00000  Uiso   1.00
N41    N     0.59543   0.12304   0.00963   0.00000  Uiso   1.00
N42    N     0.57930   0.45811   0.59755   0.00000  Uiso   1.00
N43    N     0.83079   0.96783   0.59327   0.00000  Uiso   1.00
N44    N     0.68905   0.19542   0.05008   0.00000  Uiso   1.00
N45    N     0.67293   0.53049   0.63801   0.00000  Uiso   1.00
N46    N     0.92441   0.04021   0.63373   0.00000  Uiso   1.00
C47    C     0.16028   0.67658   0.72995   0.00000  Uiso   1.00
C48    C     0.16529   0.67950   0.81692   0.00000  Uiso   1.00
C49    C     0.11735   0.64165   0.86750   0.00000  Uiso   1.00
C50    C     0.13134   0.65168   0.94494   0.00000  Uiso   1.00
C51    C     0.13001   0.64922   0.07604   0.00000  Uiso   1.00
C52    C     0.16084   0.77186   0.70335   0.00000  Uiso   1.00
C53    C     0.10916   0.81165   0.65845   0.00000  Uiso   1.00
C54    C     0.11941   0.89942   0.64028   0.00000  Uiso   1.00
C55    C     0.11119   0.04032   0.59503   0.00000  Uiso   1.00
C56    C     0.23015   0.63673   0.70219   0.00000  Uiso   1.00
C57    C     0.23675   0.56292   0.65628   0.00000  Uiso   1.00
C58    C     0.30535   0.53693   0.63712   0.00000  Uiso   1.00
C59    C     0.40475   0.46803   0.59005   0.00000  Uiso   1.00
C60    C     0.27038   0.76170   0.77753   0.00000  Uiso   1.00
C61    C     0.22509   0.72574   0.84275   0.00000  Uiso   1.00
C62    C     0.23916   0.73583   0.92014   0.00000  Uiso   1.00
C63    C     0.19125   0.69799   0.97083   0.00000  Uiso   1.00
C64    C     0.22064   0.81809   0.72919   0.00000  Uiso   1.00
C65    C     0.23097   0.90582   0.71108   0.00000  Uiso   1.00
C66    C     0.17932   0.94574   0.66617   0.00000  Uiso   1.00
C67    C     0.28995   0.68296   0.72803   0.00000  Uiso   1.00
C68    C     0.35856   0.65709   0.70892   0.00000  Uiso   1.00
C69    C     0.36526   0.58325   0.66300   0.00000  Uiso   1.00
H70    H     0.11372   0.64059   0.70983   0.00000  Uiso   1.00
H71    H     0.07107   0.60588   0.84748   0.00000  Uiso   1.00
H72    H     0.06289   0.77585   0.63845   0.00000  Uiso   1.00
H73    H     0.19046   0.52716   0.63630   0.00000  Uiso   1.00
H74    H     0.05015   0.58781   0.01148   0.00000  Uiso   1.00
H75    H     0.03291   0.94619   0.57072   0.00000  Uiso   1.00
H76    H     0.30191   0.42177   0.56616   0.00000  Uiso   1.00
H77    H     0.31694   0.79770   0.79764   0.00000  Uiso   1.00
H78    H     0.28544   0.77161   0.94012   0.00000  Uiso   1.00
H79    H     0.27726   0.94158   0.73109   0.00000  Uiso   1.00
H80    H     0.40482   0.69289   0.72893   0.00000  Uiso   1.00
H81    H     0.22414   0.72233   0.08667   0.00000  Uiso   1.00
H82    H     0.20690   0.08071   0.64590   0.00000  Uiso   1.00
H83    H     0.47590   0.55629   0.64135   0.00000  Uiso   1.00
O84    O     0.11275   0.63510   0.14121   0.00000  Uiso   1.00
O85    O     0.09014   0.10527   0.56294   0.00000  Uiso   1.00
O86    O     0.44305   0.41724   0.55697   0.00000  Uiso   1.00
N87    N     0.09543   0.62304   0.00963   0.00000  Uiso   1.00
N88    N     0.07930   0.95811   0.59755   0.00000  Uiso   1.00
N89    N     0.33079   0.46783   0.59327   0.00000  Uiso   1.00
N90    N     0.18905   0.69542   0.05008   0.00000  Uiso   1.00
N91    N     0.17293   0.03049   0.63801   0.00000  Uiso   1.00
N92    N     0.42441   0.54021   0.63373   0.00000  Uiso   1.00
C93    C     0.33972   0.82342   0.22995   0.00000  Uiso   1.00
C94    C     0.33471   0.82050   0.31692   0.00000  Uiso   1.00
C95    C     0.38265   0.85835   0.36750   0.00000  Uiso   1.00
C96    C     0.36866   0.84832   0.44494   0.00000  Uiso   1.00
C97    C     0.36999   0.85078   0.57604   0.00000  Uiso   1.00
C98    C     0.33916   0.72814   0.20335   0.00000  Uiso   1.00
C99    C     0.39084   0.68835   0.15845   0.00000  Uiso   1.00
C100   C     0.38059   0.60058   0.14028   0.00000  Uiso   1.00
C101   C     0.38881   0.45968   0.09503   0.00000  Uiso   1.00
C102   C     0.26985   0.86327   0.20219   0.00000  Uiso   1.00
C103   C     0.26325   0.93708   0.15628   0.00000  Uiso   1.00
C104   C     0.19465   0.96307   0.13712   0.00000  Uiso   1.00
C105   C     0.09525   0.03197   0.09005   0.00000  Uiso   1.00
C106   C     0.22962   0.73830   0.27753   0.00000  Uiso   1.00
C107   C     0.27491   0.77426   0.34275   0.00000  Uiso   1.00
C108   C     0.26084   0.76417   0.42014   0.00000  Uiso   1.00
C109   C     0.30875   0.80201   0.47083   0.00000  Uiso   1.00
C110   C     0.27936   0.68191   0.22919   0.00000  Uiso   1.00
C111   C     0.26903   0.59418   0.21108   0.00000  Uiso   1.00
C112   C     0.32068   0.55426   0.16617   0.00000  Uiso   1.00
C113   C     0.21005   0.81704   0.22803   0.00000  Uiso   1.00
C114   C     0.14144   0.84291   0.20892   0.00000  Uiso   1.00
C115   C     0.13474   0.91675   0.16300   0.00000  Uiso   1.00
H116   H     0.38628   0.85941   0.20983   0.00000  Uiso   1.00
H117   H     0.42893   0.89412   0.34748   0.00000  Uiso   1.00
H118   H     0.43711   0.72415   0.13845   0.00000  Uiso   1.00
H119   H     0.30954   0.97284   0.13630   0.00000  Uiso   1.00
H120   H     0.44985   0.91219   0.51148   0.00000  Uiso   1.00
H121   H     0.46709   0.55381   0.07072   0.00000  Uiso   1.00
H122   H     0.19809   0.07823   0.06616   0.00000  Uiso   1.00
H123   H     0.18306   0.70230   0.29764   0.00000  Uiso   1.00
H124   H     0.21456   0.72839   0.44012   0.00000  Uiso   1.00
H125   H     0.22274   0.55842   0.23109   0.00000  Uiso   1.00
H126   H     0.09518   0.80711   0.22893   0.00000  Uiso   1.00
H127   H     0.27586   0.77767   0.58667   0.00000  Uiso   1.00
H128   H     0.29310   0.41929   0.14590   0.00000  Uiso   1.00
H129   H     0.02410   0.94371   0.14135   0.00000  Uiso   1.00
O130   O     0.38725   0.86490   0.64121   0.00000  Uiso   1.00
O131   O     0.40986   0.39473   0.06294   0.00000  Uiso   1.00
O132   O     0.05695   0.08276   0.05697   0.00000  Uiso   1.00
N133   N     0.40457   0.87696   0.50963   0.00000  Uiso   1.00
N134   N     0.42070   0.54189   0.09755   0.00000  Uiso   1.00
N135   N     0.16921   0.03217   0.09327   0.00000  Uiso   1.00
N136   N     0.31095   0.80458   0.55008   0.00000  Uiso   1.00
N137   N     0.32707   0.46951   0.13801   0.00000  Uiso   1.00
N138   N     0.07559   0.95979   0.13373   0.00000  Uiso   1.00
C139   C     0.83972   0.32342   0.22995   0.00000  Uiso   1.00
C140   C     0.83471   0.32050   0.31692   0.00000  Uiso   1.00
C141   C     0.88265   0.35835   0.36750   0.00000  Uiso   1.00
C142   C     0.86866   0.34832   0.44494   0.00000  Uiso   1.00
C143   C     0.86999   0.35078   0.57604   0.00000  Uiso   1.00
C144   C     0.83916   0.22814   0.20335   0.00000  Uiso   1.00
C145   C     0.89084   0.18835   0.15845   0.00000  Uiso   1.00
C146   C     0.88059   0.10058   0.14028   0.00000  Uiso   1.00
C147   C     0.88881   0.95968   0.09503   0.00000  Uiso   1.00
C148   C     0.76985   0.36327   0.20219   0.00000  Uiso   1.00
C149   C     0.76325   0.43708   0.15628   0.00000  Uiso   1.00
C150   C     0.69465   0.46307   0.13712   0.00000  Uiso   1.00
C151   C     0.59525   0.53197   0.09005   0.00000  Uiso   1.00
C152   C     0.72962   0.23830   0.27753   0.00000  Uiso   1.00
C153   C     0.77491   0.27426   0.34275   0.00000  Uiso   1.00
C154   C     0.76084   0.26417   0.42014   0.00000  Uiso   1.00
C155   C     0.80875   0.30201   0.47083   0.00000  Uiso   1.00
C156   C     0.77936   0.18191   0.22919   0.00000  Uiso   1.00
C157   C     0.76903   0.09418   0.21108   0.00000  Uiso   1.00
C158   C     0.82068   0.05426   0.16617   0.00000  Uiso   1.00
C159   C     0.71005   0.31704   0.22803   0.00000  Uiso   1.00
C160   C     0.64144   0.34291   0.20892   0.00000  Uiso   1.00
C161   C     0.63474   0.41675   0.16300   0.00000  Uiso   1.00
H162   H     0.88628   0.35941   0.20983   0.00000  Uiso   1.00
H163   H     0.92893   0.39412   0.34748   0.00000  Uiso   1.00
H164   H     0.93711   0.22415   0.13845   0.00000  Uiso   1.00
H165   H     0.80954   0.47284   0.13630   0.00000  Uiso   1.00
H166   H     0.94985   0.41219   0.51148   0.00000  Uiso   1.00
H167   H     0.96709   0.05381   0.07072   0.00000  Uiso   1.00
H168   H     0.69809   0.57823   0.06616   0.00000  Uiso   1.00
H169   H     0.68306   0.20230   0.29764   0.00000  Uiso   1.00
H170   H     0.71456   0.22839   0.44012   0.00000  Uiso   1.00
H171   H     0.72274   0.05842   0.23109   0.00000  Uiso   1.00
H172   H     0.59518   0.30711   0.22893   0.00000  Uiso   1.00
H173   H     0.77586   0.27767   0.58667   0.00000  Uiso   1.00
H174   H     0.79310   0.91929   0.14590   0.00000  Uiso   1.00
H175   H     0.52410   0.44371   0.14135   0.00000  Uiso   1.00
O176   O     0.88725   0.36490   0.64121   0.00000  Uiso   1.00
O177   O     0.90986   0.89473   0.06294   0.00000  Uiso   1.00
O178   O     0.55695   0.58276   0.05697   0.00000  Uiso   1.00
N179   N     0.90457   0.37696   0.50963   0.00000  Uiso   1.00
N180   N     0.92070   0.04189   0.09755   0.00000  Uiso   1.00
N181   N     0.66921   0.53217   0.09327   0.00000  Uiso   1.00
N182   N     0.81095   0.30458   0.55008   0.00000  Uiso   1.00
N183   N     0.82707   0.96951   0.13801   0.00000  Uiso   1.00
N184   N     0.57559   0.45979   0.13373   0.00000  Uiso   1.00
C185   C     0.33972   0.17658   0.77005   0.00000  Uiso   1.00
C186   C     0.33471   0.17950   0.68308   0.00000  Uiso   1.00
C187   C     0.38265   0.14165   0.63250   0.00000  Uiso   1.00
C188   C     0.36866   0.15168   0.55506   0.00000  Uiso   1.00
C189   C     0.36999   0.14922   0.42396   0.00000  Uiso   1.00
C190   C     0.33916   0.27186   0.79665   0.00000  Uiso   1.00
C191   C     0.39084   0.31165   0.84155   0.00000  Uiso   1.00
C192   C     0.38059   0.39942   0.85972   0.00000  Uiso   1.00
C193   C     0.38881   0.54032   0.90497   0.00000  Uiso   1.00
C194   C     0.26985   0.13673   0.79781   0.00000  Uiso   1.00
C195   C     0.26325   0.06292   0.84372   0.00000  Uiso   1.00
C196   C     0.19465   0.03693   0.86288   0.00000  Uiso   1.00
C197   C     0.09525   0.96803   0.90995   0.00000  Uiso   1.00
C198   C     0.22962   0.26170   0.72247   0.00000  Uiso   1.00
C199   C     0.27491   0.22574   0.65725   0.00000  Uiso   1.00
C200   C     0.26084   0.23583   0.57986   0.00000  Uiso   1.00
C201   C     0.30875   0.19799   0.52917   0.00000  Uiso   1.00
C202   C     0.27936   0.31809   0.77081   0.00000  Uiso   1.00
C203   C     0.26903   0.40582   0.78892   0.00000  Uiso   1.00
C204   C     0.32068   0.44574   0.83383   0.00000  Uiso   1.00
C205   C     0.21005   0.18296   0.77197   0.00000  Uiso   1.00
C206   C     0.14144   0.15709   0.79108   0.00000  Uiso   1.00
C207   C     0.13474   0.08325   0.83700   0.00000  Uiso   1.00
H208   H     0.38628   0.14059   0.79017   0.00000  Uiso   1.00
H209   H     0.42893   0.10588   0.65252   0.00000  Uiso   1.00
H210   H     0.43711   0.27585   0.86155   0.00000  Uiso   1.00
H211   H     0.30954   0.02716   0.86370   0.00000  Uiso   1.00
H212   H     0.44985   0.08781   0.48852   0.00000  Uiso   1.00
H213   H     0.46709   0.44619   0.92928   0.00000  Uiso   1.00
H214   H     0.19809   0.92177   0.93384   0.00000  Uiso   1.00
H215   H     0.18306   0.29770   0.70236   0.00000  Uiso   1.00
H216   H     0.21456   0.27161   0.55988   0.00000  Uiso   1.00
H217   H     0.22274   0.44158   0.76891   0.00000  Uiso   1.00
H218   H     0.09518   0.19289   0.77107   0.00000  Uiso   1.00
H219   H     0.27586   0.22233   0.41333   0.00000  Uiso   1.00
H220   H     0.29310   0.58071   0.85410   0.00000  Uiso   1.00
H221   H     0.02410   0.05629   0.85865   0.00000  Uiso   1.00
O222   O     0.38725   0.13510   0.35879   0.00000  Uiso   1.00
O223   O     0.40986   0.60527   0.93706   0.00000  Uiso   1.00
O224   O     0.05695   0.91724   0.94303   0.00000  Uiso   1.00
N225   N     0.40457   0.12304   0.49037   0.00000  Uiso   1.00
N226   N     0.42070   0.45811   0.90245   0.00000  Uiso   1.00
N227   N     0.16921   0.96783   0.90673   0.00000  Uiso   1.00
N228   N     0.31095   0.19542   0.44992   0.00000  Uiso   1.00
N229   N     0.32707   0.53049   0.86199   0.00000  Uiso   1.00
N230   N     0.07559   0.04021   0.86627   0.00000  Uiso   1.00
C231   C     0.83972   0.67658   0.77005   0.00000  Uiso   1.00
C232   C     0.83471   0.67950   0.68308   0.00000  Uiso   1.00
C233   C     0.88265   0.64165   0.63250   0.00000  Uiso   1.00
C234   C     0.86866   0.65168   0.55506   0.00000  Uiso   1.00
C235   C     0.86999   0.64922   0.42396   0.00000  Uiso   1.00
C236   C     0.83916   0.77186   0.79665   0.00000  Uiso   1.00
C237   C     0.89084   0.81165   0.84155   0.00000  Uiso   1.00
C238   C     0.88059   0.89942   0.85972   0.00000  Uiso   1.00
C239   C     0.88881   0.04032   0.90497   0.00000  Uiso   1.00
C240   C     0.76985   0.63673   0.79781   0.00000  Uiso   1.00
C241   C     0.76325   0.56292   0.84372   0.00000  Uiso   1.00
C242   C     0.69465   0.53693   0.86288   0.00000  Uiso   1.00
C243   C     0.59525   0.46803   0.90995   0.00000  Uiso   1.00
C244   C     0.72962   0.76170   0.72247   0.00000  Uiso   1.00
C245   C     0.77491   0.72574   0.65725   0.00000  Uiso   1.00
C246   C     0.76084   0.73583   0.57986   0.00000  Uiso   1.00
C247   C     0.80875   0.69799   0.52917   0.00000  Uiso   1.00
C248   C     0.77936   0.81809   0.77081   0.00000  Uiso   1.00
C249   C     0.76903   0.90582   0.78892   0.00000  Uiso   1.00
C250   C     0.82068   0.94574   0.83383   0.00000  Uiso   1.00
C251   C     0.71005   0.68296   0.77197   0.00000  Uiso   1.00
C252   C     0.64144   0.65709   0.79108   0.00000  Uiso   1.00
C253   C     0.63474   0.58325   0.83700   0.00000  Uiso   1.00
H254   H     0.88628   0.64059   0.79017   0.00000  Uiso   1.00
H255   H     0.92893   0.60588   0.65252   0.00000  Uiso   1.00
H256   H     0.93711   0.77585   0.86155   0.00000  Uiso   1.00
H257   H     0.80954   0.52716   0.86370   0.00000  Uiso   1.00
H258   H     0.94985   0.58781   0.48852   0.00000  Uiso   1.00
H259   H     0.96709   0.94619   0.92928   0.00000  Uiso   1.00
H260   H     0.69809   0.42177   0.93384   0.00000  Uiso   1.00
H261   H     0.68306   0.79770   0.70236   0.00000  Uiso   1.00
H262   H     0.71456   0.77161   0.55988   0.00000  Uiso   1.00
H263   H     0.72274   0.94158   0.76891   0.00000  Uiso   1.00
H264   H     0.59518   0.69289   0.77107   0.00000  Uiso   1.00
H265   H     0.77586   0.72233   0.41333   0.00000  Uiso   1.00
H266   H     0.79310   0.08071   0.85410   0.00000  Uiso   1.00
H267   H     0.52410   0.55629   0.85865   0.00000  Uiso   1.00
O268   O     0.88725   0.63510   0.35879   0.00000  Uiso   1.00
O269   O     0.90986   0.10527   0.93706   0.00000  Uiso   1.00
O270   O     0.55695   0.41724   0.94303   0.00000  Uiso   1.00
N271   N     0.90457   0.62304   0.49037   0.00000  Uiso   1.00
N272   N     0.92070   0.95811   0.90245   0.00000  Uiso   1.00
N273   N     0.66921   0.46783   0.90673   0.00000  Uiso   1.00
N274   N     0.81095   0.69542   0.44992   0.00000  Uiso   1.00
N275   N     0.82707   0.03049   0.86199   0.00000  Uiso   1.00
N276   N     0.57559   0.54021   0.86627   0.00000  Uiso   1.00
C277   C     0.66028   0.82342   0.27005   0.00000  Uiso   1.00
C278   C     0.66529   0.82050   0.18308   0.00000  Uiso   1.00
C279   C     0.61735   0.85835   0.13250   0.00000  Uiso   1.00
C280   C     0.63134   0.84832   0.05506   0.00000  Uiso   1.00
C281   C     0.63001   0.85078   0.92396   0.00000  Uiso   1.00
C282   C     0.66084   0.72814   0.29665   0.00000  Uiso   1.00
C283   C     0.60916   0.68835   0.34155   0.00000  Uiso   1.00
C284   C     0.61941   0.60058   0.35972   0.00000  Uiso   1.00
C285   C     0.61119   0.45968   0.40497   0.00000  Uiso   1.00
C286   C     0.73015   0.86327   0.29781   0.00000  Uiso   1.00
C287   C     0.73675   0.93708   0.34372   0.00000  Uiso   1.00
C288   C     0.80535   0.96307   0.36288   0.00000  Uiso   1.00
C289   C     0.90475   0.03197   0.40995   0.00000  Uiso   1.00
C290   C     0.77038   0.73830   0.22247   0.00000  Uiso   1.00
C291   C     0.72509   0.77426   0.15725   0.00000  Uiso   1.00
C292   C     0.73916   0.76417   0.07986   0.00000  Uiso   1.00
C293   C     0.69125   0.80201   0.02917   0.00000  Uiso   1.00
C294   C     0.72064   0.68191   0.27081   0.00000  Uiso   1.00
C295   C     0.73097   0.59418   0.28892   0.00000  Uiso   1.00
C296   C     0.67932   0.55426   0.33383   0.00000  Uiso   1.00
C297   C     0.78995   0.81704   0.27197   0.00000  Uiso   1.00
C298   C     0.85856   0.84291   0.29108   0.00000  Uiso   1.00
C299   C     0.86526   0.91675   0.33700   0.00000  Uiso   1.00
H300   H     0.61372   0.85941   0.29017   0.00000  Uiso   1.00
H301   H     0.57107   0.89412   0.15252   0.00000  Uiso   1.00
H302   H     0.56289   0.72415   0.36155   0.00000  Uiso   1.00
H303   H     0.69046   0.97284   0.36370   0.00000  Uiso   1.00
H304   H     0.55015   0.91219   0.98852   0.00000  Uiso   1.00
H305   H     0.53291   0.55381   0.42928   0.00000  Uiso   1.00
H306   H     0.80191   0.07823   0.43384   0.00000  Uiso   1.00
H307   H     0.81694   0.70230   0.20236   0.00000  Uiso   1.00
H308   H     0.78544   0.72839   0.05988   0.00000  Uiso   1.00
H309   H     0.77726   0.55842   0.26891   0.00000  Uiso   1.00
H310   H     0.90482   0.80711   0.27107   0.00000  Uiso   1.00
H311   H     0.72414   0.77767   0.91333   0.00000  Uiso   1.00
H312   H     0.70690   0.41929   0.35410   0.00000  Uiso   1.00
H313   H     0.97590   0.94371   0.35865   0.00000  Uiso   1.00
O314   O     0.61275   0.86490   0.85879   0.00000  Uiso   1.00
O315   O     0.59014   0.39473   0.43706   0.00000  Uiso   1.00
O316   O     0.94305   0.08276   0.44303   0.00000  Uiso   1.00
N317   N     0.59543   0.87696   0.99037   0.00000  Uiso   1.00
N318   N     0.57930   0.54189   0.40245   0.00000  Uiso   1.00
N319   N     0.83079   0.03217   0.40673   0.00000  Uiso   1.00
N320   N     0.68905   0.80458   0.94992   0.00000  Uiso   1.00
N321   N     0.67293   0.46951   0.36199   0.00000  Uiso   1.00
N322   N     0.92441   0.95979   0.36627   0.00000  Uiso   1.00
C323   C     0.16028   0.32342   0.27005   0.00000  Uiso   1.00
C324   C     0.16529   0.32050   0.18308   0.00000  Uiso   1.00
C325   C     0.11735   0.35835   0.13250   0.00000  Uiso   1.00
C326   C     0.13134   0.34832   0.05506   0.00000  Uiso   1.00
C327   C     0.13001   0.35078   0.92396   0.00000  Uiso   1.00
C328   C     0.16084   0.22814   0.29665   0.00000  Uiso   1.00
C329   C     0.10916   0.18835   0.34155   0.00000  Uiso   1.00
C330   C     0.11941   0.10058   0.35972   0.00000  Uiso   1.00
C331   C     0.11119   0.95968   0.40497   0.00000  Uiso   1.00
C332   C     0.23015   0.36327   0.29781   0.00000  Uiso   1.00
C333   C     0.23675   0.43708   0.34372   0.00000  Uiso   1.00
C334   C     0.30535   0.46307   0.36288   0.00000  Uiso   1.00
C335   C     0.40475   0.53197   0.40995   0.00000  Uiso   1.00
C336   C     0.27038   0.23830   0.22247   0.00000  Uiso   1.00
C337   C     0.22509   0.27426   0.15725   0.00000  Uiso   1.00
C338   C     0.23916   0.26417   0.07986   0.00000  Uiso   1.00
C339   C     0.19125   0.30201   0.02917   0.00000  Uiso   1.00
C340   C     0.22064   0.18191   0.27081   0.00000  Uiso   1.00
C341   C     0.23097   0.09418   0.28892   0.00000  Uiso   1.00
C342   C     0.17932   0.05426   0.33383   0.00000  Uiso   1.00
C343   C     0.28995   0.31704   0.27197   0.00000  Uiso   1.00
C344   C     0.35856   0.34291   0.29108   0.00000  Uiso   1.00
C345   C     0.36526   0.41675   0.33700   0.00000  Uiso   1.00
H346   H     0.11372   0.35941   0.29017   0.00000  Uiso   1.00
H347   H     0.07107   0.39412   0.15252   0.00000  Uiso   1.00
H348   H     0.06289   0.22415   0.36155   0.00000  Uiso   1.00
H349   H     0.19046   0.47284   0.36370   0.00000  Uiso   1.00
H350   H     0.05015   0.41219   0.98852   0.00000  Uiso   1.00
H351   H     0.03291   0.05381   0.42928   0.00000  Uiso   1.00
H352   H     0.30191   0.57823   0.43384   0.00000  Uiso   1.00
H353   H     0.31694   0.20230   0.20236   0.00000  Uiso   1.00
H354   H     0.28544   0.22839   0.05988   0.00000  Uiso   1.00
H355   H     0.27726   0.05842   0.26891   0.00000  Uiso   1.00
H356   H     0.40482   0.30711   0.27107   0.00000  Uiso   1.00
H357   H     0.22414   0.27767   0.91333   0.00000  Uiso   1.00
H358   H     0.20690   0.91929   0.35410   0.00000  Uiso   1.00
H359   H     0.47590   0.44371   0.35865   0.00000  Uiso   1.00
O360   O     0.11275   0.36490   0.85879   0.00000  Uiso   1.00
O361   O     0.09014   0.89473   0.43706   0.00000  Uiso   1.00
O362   O     0.44305   0.58276   0.44303   0.00000  Uiso   1.00
N363   N     0.09543   0.37696   0.99037   0.00000  Uiso   1.00
N364   N     0.07930   0.04189   0.40245   0.00000  Uiso   1.00
N365   N     0.33079   0.53217   0.40673   0.00000  Uiso   1.00
N366   N     0.18905   0.30458   0.94992   0.00000  Uiso   1.00
N367   N     0.17293   0.96951   0.36199   0.00000  Uiso   1.00
N368   N     0.42441   0.45979   0.36627   0.00000  Uiso   1.00
