data_job_04513
_audit_creation_date              2018-12-19
_audit_creation_method            'Materials Studio'
_symmetry_space_group_name_H-M    'P1'
_symmetry_Int_Tables_number       1
_symmetry_cell_setting            triclinic
loop_
_symmetry_equiv_pos_as_xyz
  x,y,z
_cell_length_a                    15.2501
_cell_length_b                    30.2209
_cell_length_c                    22.9358
_cell_angle_alpha                 90.0000
_cell_angle_beta                  150.2870
_cell_angle_gamma                 90.0000
loop_
_atom_site_label
_atom_site_type_symbol
_atom_site_fract_x
_atom_site_fract_y
_atom_site_fract_z
_atom_site_U_iso_or_equiv
_atom_site_adp_type
_atom_site_occupancy
C1     C     0.03500   0.33517   0.21969   0.00000  Uiso   1.00
C2     C     0.99222   0.38360   0.20723   0.00000  Uiso   1.00
C3     C     0.83355   0.39957   0.13761   0.00000  Uiso   1.00
C4     C     0.82052   0.44498   0.13819   0.00000  Uiso   1.00
C5     C     0.73265   0.51586   0.10848   0.00000  Uiso   1.00
C6     C     0.08856   0.33294   0.18658   0.00000  Uiso   1.00
C7     C     0.01090   0.30631   0.09961   0.00000  Uiso   1.00
C8     C     0.07899   0.30907   0.08282   0.00000  Uiso   1.00
C9     C     0.14077   0.30128   0.02111   0.00000  Uiso   1.00
C10    C     0.20173   0.32479   0.35081   0.00000  Uiso   1.00
C11    C     0.21925   0.29129   0.40192   0.00000  Uiso   1.00
C12    C     0.38264   0.28718   0.52341   0.00000  Uiso   1.00
C13    C     0.62014   0.26672   0.71669   0.00000  Uiso   1.00
C14    C     0.29402   0.38742   0.34455   0.00000  Uiso   1.00
C15    C     0.13291   0.41198   0.27505   0.00000  Uiso   1.00
C16    C     0.12012   0.45738   0.27574   0.00000  Uiso   1.00
C17    C     0.96146   0.47341   0.20613   0.00000  Uiso   1.00
C18    C     0.22924   0.36132   0.25440   0.00000  Uiso   1.00
C19    C     0.29746   0.36412   0.23774   0.00000  Uiso   1.00
C20    C     0.21993   0.33750   0.15076   0.00000  Uiso   1.00
C21    C     0.34242   0.35317   0.41863   0.00000  Uiso   1.00
C22    C     0.50581   0.34910   0.54006   0.00000  Uiso   1.00
C23    C     0.52358   0.31561   0.59134   0.00000  Uiso   1.00
H24    H     0.92548   0.31308   0.16689   0.00000  Uiso   1.00
H25    H     0.72470   0.37760   0.08513   0.00000  Uiso   1.00
H26    H     0.90205   0.28435   0.04715   0.00000  Uiso   1.00
H27    H     0.11036   0.26934   0.34942   0.00000  Uiso   1.00
H28    H     0.56413   0.46165   0.02435   0.00000  Uiso   1.00
H29    H     0.93810   0.26502   0.94429   0.00000  Uiso   1.00
H30    H     0.37737   0.23335   0.58168   0.00000  Uiso   1.00
H31    H     0.40355   0.40952   0.39735   0.00000  Uiso   1.00
H32    H     0.22901   0.47933   0.32823   0.00000  Uiso   1.00
H33    H     0.40634   0.38608   0.29024   0.00000  Uiso   1.00
H34    H     0.61465   0.37107   0.59251   0.00000  Uiso   1.00
H35    H     0.97343   0.54422   0.22165   0.00000  Uiso   1.00
H36    H     0.34740   0.34758   0.14159   0.00000  Uiso   1.00
H37    H     0.78667   0.31592   0.77899   0.00000  Uiso   1.00
O38    O     0.64531   0.54712   0.07334   0.00000  Uiso   1.00
O39    O     0.13597   0.28914   0.96833   0.00000  Uiso   1.00
O40    O     0.71227   0.24760   0.80457   0.00000  Uiso   1.00
N41    N     0.68442   0.47150   0.08029   0.00000  Uiso   1.00
N42    N     0.03404   0.28766   0.00542   0.00000  Uiso   1.00
N43    N     0.44474   0.25805   0.60133   0.00000  Uiso   1.00
N44    N     0.90467   0.51593   0.18646   0.00000  Uiso   1.00
N45    N     0.25429   0.33209   0.11159   0.00000  Uiso   1.00
N46    N     0.66498   0.30249   0.70750   0.00000  Uiso   1.00
C47    C     0.02352   0.85141   0.10102   0.00000  Uiso   1.00
C48    C     0.97936   0.89945   0.08973   0.00000  Uiso   1.00
C49    C     0.82147   0.91451   0.02221   0.00000  Uiso   1.00
C50    C     0.80692   0.95970   0.02356   0.00000  Uiso   1.00
C51    C     0.71726   0.02988   0.99586   0.00000  Uiso   1.00
C52    C     0.07292   0.85059   0.06509   0.00000  Uiso   1.00
C53    C     0.99370   0.82456   0.97687   0.00000  Uiso   1.00
C54    C     0.05793   0.82862   0.95750   0.00000  Uiso   1.00
C55    C     0.11360   0.82292   0.89161   0.00000  Uiso   1.00
C56    C     0.19297   0.84083   0.23215   0.00000  Uiso   1.00
C57    C     0.21472   0.80660   0.28441   0.00000  Uiso   1.00
C58    C     0.38004   0.80245   0.40569   0.00000  Uiso   1.00
C59    C     0.62211   0.78160   0.59919   0.00000  Uiso   1.00
C60    C     0.27844   0.90489   0.22349   0.00000  Uiso   1.00
C61    C     0.11783   0.92849   0.15624   0.00000  Uiso   1.00
C62    C     0.10352   0.97368   0.15771   0.00000  Uiso   1.00
C63    C     0.94563   0.98880   0.09020   0.00000  Uiso   1.00
C64    C     0.21138   0.87964   0.13160   0.00000  Uiso   1.00
C65    C     0.27575   0.88373   0.11237   0.00000  Uiso   1.00
C66    C     0.19665   0.85773   0.02414   0.00000  Uiso   1.00
C67    C     0.33144   0.86988   0.29868   0.00000  Uiso   1.00
C68    C     0.49676   0.86578   0.41990   0.00000  Uiso   1.00
C69    C     0.51876   0.83155   0.47233   0.00000  Uiso   1.00
H70    H     0.91572   0.82879   0.04923   0.00000  Uiso   1.00
H71    H     0.71434   0.89201   0.97073   0.00000  Uiso   1.00
H72    H     0.88657   0.80208   0.92542   0.00000  Uiso   1.00
H73    H     0.10754   0.78413   0.23290   0.00000  Uiso   1.00
H74    H     0.55211   0.97492   0.91301   0.00000  Uiso   1.00
H75    H     0.91529   0.78529   0.81748   0.00000  Uiso   1.00
H76    H     0.38127   0.74742   0.46587   0.00000  Uiso   1.00
H77    H     0.38625   0.92751   0.27528   0.00000  Uiso   1.00
H78    H     0.21069   0.99615   0.20919   0.00000  Uiso   1.00
H79    H     0.38291   0.90622   0.16387   0.00000  Uiso   1.00
H80    H     0.60388   0.88826   0.47135   0.00000  Uiso   1.00
H81    H     0.95496   0.05945   0.10654   0.00000  Uiso   1.00
H82    H     0.31815   0.86981   0.01102   0.00000  Uiso   1.00
H83    H     0.78412   0.83195   0.65941   0.00000  Uiso   1.00
O84    O     0.62954   0.06056   0.96219   0.00000  Uiso   1.00
O85    O     0.10604   0.81176   0.83688   0.00000  Uiso   1.00
O86    O     0.71738   0.76209   0.68755   0.00000  Uiso   1.00
N87    N     0.67103   0.98539   0.96765   0.00000  Uiso   1.00
N88    N     0.01056   0.80810   0.87832   0.00000  Uiso   1.00
N89    N     0.44623   0.77269   0.48451   0.00000  Uiso   1.00
N90    N     0.88780   0.03088   0.07179   0.00000  Uiso   1.00
N91    N     0.22734   0.85358   0.98246   0.00000  Uiso   1.00
N92    N     0.66300   0.81818   0.58865   0.00000  Uiso   1.00
C93    C     0.96500   0.83517   0.28031   0.00000  Uiso   1.00
C94    C     0.00778   0.88360   0.29277   0.00000  Uiso   1.00
C95    C     0.16645   0.89957   0.36239   0.00000  Uiso   1.00
C96    C     0.17948   0.94498   0.36181   0.00000  Uiso   1.00
C97    C     0.26735   0.01586   0.39152   0.00000  Uiso   1.00
C98    C     0.91144   0.83294   0.31342   0.00000  Uiso   1.00
C99    C     0.98910   0.80631   0.40039   0.00000  Uiso   1.00
C100   C     0.92101   0.80907   0.41718   0.00000  Uiso   1.00
C101   C     0.85923   0.80128   0.47889   0.00000  Uiso   1.00
C102   C     0.79827   0.82479   0.14919   0.00000  Uiso   1.00
C103   C     0.78075   0.79129   0.09808   0.00000  Uiso   1.00
C104   C     0.61736   0.78718   0.97659   0.00000  Uiso   1.00
C105   C     0.37986   0.76672   0.78331   0.00000  Uiso   1.00
C106   C     0.70598   0.88742   0.15545   0.00000  Uiso   1.00
C107   C     0.86709   0.91198   0.22495   0.00000  Uiso   1.00
C108   C     0.87988   0.95738   0.22426   0.00000  Uiso   1.00
C109   C     0.03854   0.97341   0.29387   0.00000  Uiso   1.00
C110   C     0.77076   0.86132   0.24560   0.00000  Uiso   1.00
C111   C     0.70254   0.86412   0.26226   0.00000  Uiso   1.00
C112   C     0.78007   0.83750   0.34924   0.00000  Uiso   1.00
C113   C     0.65758   0.85317   0.08137   0.00000  Uiso   1.00
C114   C     0.49419   0.84910   0.95994   0.00000  Uiso   1.00
C115   C     0.47642   0.81561   0.90866   0.00000  Uiso   1.00
H116   H     0.07452   0.81308   0.33311   0.00000  Uiso   1.00
H117   H     0.27530   0.87760   0.41487   0.00000  Uiso   1.00
H118   H     0.09795   0.78435   0.45285   0.00000  Uiso   1.00
H119   H     0.88964   0.76934   0.15058   0.00000  Uiso   1.00
H120   H     0.43587   0.96165   0.47565   0.00000  Uiso   1.00
H121   H     0.06190   0.76502   0.55571   0.00000  Uiso   1.00
H122   H     0.62263   0.73335   0.91832   0.00000  Uiso   1.00
H123   H     0.59645   0.90952   0.10265   0.00000  Uiso   1.00
H124   H     0.77099   0.97933   0.17177   0.00000  Uiso   1.00
H125   H     0.59366   0.88608   0.20976   0.00000  Uiso   1.00
H126   H     0.38535   0.87107   0.90749   0.00000  Uiso   1.00
H127   H     0.02657   0.04422   0.27835   0.00000  Uiso   1.00
H128   H     0.65260   0.84758   0.35841   0.00000  Uiso   1.00
H129   H     0.21333   0.81592   0.72101   0.00000  Uiso   1.00
O130   O     0.35469   0.04712   0.42666   0.00000  Uiso   1.00
O131   O     0.86403   0.78914   0.53167   0.00000  Uiso   1.00
O132   O     0.28773   0.74760   0.69543   0.00000  Uiso   1.00
N133   N     0.31558   0.97150   0.41971   0.00000  Uiso   1.00
N134   N     0.96596   0.78766   0.49458   0.00000  Uiso   1.00
N135   N     0.55526   0.75805   0.89867   0.00000  Uiso   1.00
N136   N     0.09533   0.01593   0.31354   0.00000  Uiso   1.00
N137   N     0.74571   0.83209   0.38841   0.00000  Uiso   1.00
N138   N     0.33502   0.80249   0.79250   0.00000  Uiso   1.00
C139   C     0.97648   0.35141   0.39898   0.00000  Uiso   1.00
C140   C     0.02064   0.39945   0.41027   0.00000  Uiso   1.00
C141   C     0.17853   0.41451   0.47779   0.00000  Uiso   1.00
C142   C     0.19308   0.45970   0.47644   0.00000  Uiso   1.00
C143   C     0.28274   0.52988   0.50414   0.00000  Uiso   1.00
C144   C     0.92708   0.35059   0.43491   0.00000  Uiso   1.00
C145   C     0.00630   0.32456   0.52313   0.00000  Uiso   1.00
C146   C     0.94207   0.32862   0.54250   0.00000  Uiso   1.00
C147   C     0.88640   0.32292   0.60839   0.00000  Uiso   1.00
C148   C     0.80703   0.34083   0.26785   0.00000  Uiso   1.00
C149   C     0.78528   0.30660   0.21559   0.00000  Uiso   1.00
C150   C     0.61996   0.30245   0.09431   0.00000  Uiso   1.00
C151   C     0.37789   0.28160   0.90081   0.00000  Uiso   1.00
C152   C     0.72156   0.40489   0.27651   0.00000  Uiso   1.00
C153   C     0.88217   0.42849   0.34376   0.00000  Uiso   1.00
C154   C     0.89648   0.47368   0.34229   0.00000  Uiso   1.00
C155   C     0.05437   0.48880   0.40980   0.00000  Uiso   1.00
C156   C     0.78862   0.37964   0.36840   0.00000  Uiso   1.00
C157   C     0.72425   0.38373   0.38763   0.00000  Uiso   1.00
C158   C     0.80335   0.35773   0.47586   0.00000  Uiso   1.00
C159   C     0.66856   0.36988   0.20132   0.00000  Uiso   1.00
C160   C     0.50324   0.36578   0.08010   0.00000  Uiso   1.00
C161   C     0.48124   0.33155   0.02767   0.00000  Uiso   1.00
H162   H     0.08428   0.32879   0.45077   0.00000  Uiso   1.00
H163   H     0.28566   0.39201   0.52927   0.00000  Uiso   1.00
H164   H     0.11343   0.30208   0.57458   0.00000  Uiso   1.00
H165   H     0.89246   0.28413   0.26710   0.00000  Uiso   1.00
H166   H     0.44789   0.47492   0.58699   0.00000  Uiso   1.00
H167   H     0.08471   0.28529   0.68252   0.00000  Uiso   1.00
H168   H     0.61873   0.24742   0.03413   0.00000  Uiso   1.00
H169   H     0.61375   0.42751   0.22472   0.00000  Uiso   1.00
H170   H     0.78931   0.49615   0.29081   0.00000  Uiso   1.00
H171   H     0.61709   0.40622   0.33613   0.00000  Uiso   1.00
H172   H     0.39612   0.38826   0.02865   0.00000  Uiso   1.00
H173   H     0.04504   0.55945   0.39346   0.00000  Uiso   1.00
H174   H     0.68185   0.36981   0.48898   0.00000  Uiso   1.00
H175   H     0.21588   0.33195   0.84059   0.00000  Uiso   1.00
O176   O     0.37046   0.56056   0.53781   0.00000  Uiso   1.00
O177   O     0.89396   0.31176   0.66312   0.00000  Uiso   1.00
O178   O     0.28262   0.26209   0.81245   0.00000  Uiso   1.00
N179   N     0.32897   0.48539   0.53235   0.00000  Uiso   1.00
N180   N     0.98944   0.30810   0.62168   0.00000  Uiso   1.00
N181   N     0.55377   0.27269   0.01549   0.00000  Uiso   1.00
N182   N     0.11220   0.53088   0.42821   0.00000  Uiso   1.00
N183   N     0.77266   0.35358   0.51754   0.00000  Uiso   1.00
N184   N     0.33700   0.31818   0.91135   0.00000  Uiso   1.00
C185   C     0.96500   0.66483   0.78031   0.00000  Uiso   1.00
C186   C     0.00778   0.61640   0.79277   0.00000  Uiso   1.00
C187   C     0.16645   0.60043   0.86239   0.00000  Uiso   1.00
C188   C     0.17948   0.55502   0.86181   0.00000  Uiso   1.00
C189   C     0.26735   0.48414   0.89152   0.00000  Uiso   1.00
C190   C     0.91144   0.66706   0.81342   0.00000  Uiso   1.00
C191   C     0.98910   0.69369   0.90039   0.00000  Uiso   1.00
C192   C     0.92101   0.69093   0.91718   0.00000  Uiso   1.00
C193   C     0.85923   0.69872   0.97889   0.00000  Uiso   1.00
C194   C     0.79827   0.67521   0.64919   0.00000  Uiso   1.00
C195   C     0.78075   0.70871   0.59808   0.00000  Uiso   1.00
C196   C     0.61736   0.71282   0.47659   0.00000  Uiso   1.00
C197   C     0.37986   0.73328   0.28331   0.00000  Uiso   1.00
C198   C     0.70598   0.61258   0.65545   0.00000  Uiso   1.00
C199   C     0.86709   0.58802   0.72495   0.00000  Uiso   1.00
C200   C     0.87988   0.54262   0.72426   0.00000  Uiso   1.00
C201   C     0.03854   0.52659   0.79387   0.00000  Uiso   1.00
C202   C     0.77076   0.63868   0.74560   0.00000  Uiso   1.00
C203   C     0.70254   0.63588   0.76226   0.00000  Uiso   1.00
C204   C     0.78007   0.66250   0.84924   0.00000  Uiso   1.00
C205   C     0.65758   0.64683   0.58137   0.00000  Uiso   1.00
C206   C     0.49419   0.65090   0.45994   0.00000  Uiso   1.00
C207   C     0.47642   0.68439   0.40866   0.00000  Uiso   1.00
H208   H     0.07452   0.68692   0.83311   0.00000  Uiso   1.00
H209   H     0.27530   0.62240   0.91487   0.00000  Uiso   1.00
H210   H     0.09795   0.71565   0.95285   0.00000  Uiso   1.00
H211   H     0.88964   0.73066   0.65058   0.00000  Uiso   1.00
H212   H     0.43587   0.53835   0.97565   0.00000  Uiso   1.00
H213   H     0.06190   0.73498   0.05571   0.00000  Uiso   1.00
H214   H     0.62263   0.76665   0.41832   0.00000  Uiso   1.00
H215   H     0.59645   0.59048   0.60265   0.00000  Uiso   1.00
H216   H     0.77099   0.52067   0.67177   0.00000  Uiso   1.00
H217   H     0.59366   0.61392   0.70976   0.00000  Uiso   1.00
H218   H     0.38535   0.62893   0.40749   0.00000  Uiso   1.00
H219   H     0.02657   0.45578   0.77835   0.00000  Uiso   1.00
H220   H     0.65260   0.65242   0.85841   0.00000  Uiso   1.00
H221   H     0.21333   0.68408   0.22101   0.00000  Uiso   1.00
O222   O     0.35469   0.45288   0.92666   0.00000  Uiso   1.00
O223   O     0.86403   0.71086   0.03167   0.00000  Uiso   1.00
O224   O     0.28773   0.75240   0.19543   0.00000  Uiso   1.00
N225   N     0.31558   0.52850   0.91971   0.00000  Uiso   1.00
N226   N     0.96596   0.71234   0.99458   0.00000  Uiso   1.00
N227   N     0.55526   0.74195   0.39867   0.00000  Uiso   1.00
N228   N     0.09533   0.48407   0.81354   0.00000  Uiso   1.00
N229   N     0.74571   0.66791   0.88841   0.00000  Uiso   1.00
N230   N     0.33502   0.69751   0.29250   0.00000  Uiso   1.00
C231   C     0.97648   0.14859   0.89898   0.00000  Uiso   1.00
C232   C     0.02064   0.10055   0.91027   0.00000  Uiso   1.00
C233   C     0.17853   0.08549   0.97779   0.00000  Uiso   1.00
C234   C     0.19308   0.04030   0.97644   0.00000  Uiso   1.00
C235   C     0.28274   0.97012   0.00414   0.00000  Uiso   1.00
C236   C     0.92708   0.14941   0.93491   0.00000  Uiso   1.00
C237   C     0.00630   0.17544   0.02313   0.00000  Uiso   1.00
C238   C     0.94207   0.17138   0.04250   0.00000  Uiso   1.00
C239   C     0.88640   0.17708   0.10839   0.00000  Uiso   1.00
C240   C     0.80703   0.15917   0.76785   0.00000  Uiso   1.00
C241   C     0.78528   0.19340   0.71559   0.00000  Uiso   1.00
C242   C     0.61996   0.19755   0.59431   0.00000  Uiso   1.00
C243   C     0.37789   0.21840   0.40081   0.00000  Uiso   1.00
C244   C     0.72156   0.09511   0.77651   0.00000  Uiso   1.00
C245   C     0.88217   0.07151   0.84376   0.00000  Uiso   1.00
C246   C     0.89648   0.02632   0.84229   0.00000  Uiso   1.00
C247   C     0.05437   0.01120   0.90980   0.00000  Uiso   1.00
C248   C     0.78862   0.12036   0.86840   0.00000  Uiso   1.00
C249   C     0.72425   0.11627   0.88763   0.00000  Uiso   1.00
C250   C     0.80335   0.14227   0.97586   0.00000  Uiso   1.00
C251   C     0.66856   0.13012   0.70132   0.00000  Uiso   1.00
C252   C     0.50324   0.13422   0.58010   0.00000  Uiso   1.00
C253   C     0.48124   0.16845   0.52767   0.00000  Uiso   1.00
H254   H     0.08428   0.17121   0.95077   0.00000  Uiso   1.00
H255   H     0.28566   0.10799   0.02927   0.00000  Uiso   1.00
H256   H     0.11343   0.19792   0.07458   0.00000  Uiso   1.00
H257   H     0.89246   0.21587   0.76710   0.00000  Uiso   1.00
H258   H     0.44789   0.02508   0.08699   0.00000  Uiso   1.00
H259   H     0.08471   0.21471   0.18252   0.00000  Uiso   1.00
H260   H     0.61873   0.25258   0.53413   0.00000  Uiso   1.00
H261   H     0.61375   0.07249   0.72472   0.00000  Uiso   1.00
H262   H     0.78931   0.00385   0.79081   0.00000  Uiso   1.00
H263   H     0.61709   0.09378   0.83613   0.00000  Uiso   1.00
H264   H     0.39612   0.11174   0.52865   0.00000  Uiso   1.00
H265   H     0.04504   0.94055   0.89346   0.00000  Uiso   1.00
H266   H     0.68185   0.13019   0.98898   0.00000  Uiso   1.00
H267   H     0.21588   0.16805   0.34059   0.00000  Uiso   1.00
O268   O     0.37046   0.93944   0.03781   0.00000  Uiso   1.00
O269   O     0.89396   0.18824   0.16312   0.00000  Uiso   1.00
O270   O     0.28262   0.23791   0.31245   0.00000  Uiso   1.00
N271   N     0.32897   0.01461   0.03235   0.00000  Uiso   1.00
N272   N     0.98944   0.19190   0.12168   0.00000  Uiso   1.00
N273   N     0.55377   0.22731   0.51549   0.00000  Uiso   1.00
N274   N     0.11220   0.96912   0.92821   0.00000  Uiso   1.00
N275   N     0.77266   0.14642   0.01754   0.00000  Uiso   1.00
N276   N     0.33700   0.18182   0.41135   0.00000  Uiso   1.00
C277   C     0.03500   0.16483   0.71969   0.00000  Uiso   1.00
C278   C     0.99222   0.11640   0.70723   0.00000  Uiso   1.00
C279   C     0.83355   0.10043   0.63761   0.00000  Uiso   1.00
C280   C     0.82052   0.05502   0.63819   0.00000  Uiso   1.00
C281   C     0.73265   0.98414   0.60848   0.00000  Uiso   1.00
C282   C     0.08856   0.16706   0.68658   0.00000  Uiso   1.00
C283   C     0.01090   0.19369   0.59961   0.00000  Uiso   1.00
C284   C     0.07899   0.19093   0.58282   0.00000  Uiso   1.00
C285   C     0.14077   0.19872   0.52111   0.00000  Uiso   1.00
C286   C     0.20173   0.17521   0.85081   0.00000  Uiso   1.00
C287   C     0.21925   0.20871   0.90192   0.00000  Uiso   1.00
C288   C     0.38264   0.21282   0.02341   0.00000  Uiso   1.00
C289   C     0.62014   0.23328   0.21669   0.00000  Uiso   1.00
C290   C     0.29402   0.11258   0.84455   0.00000  Uiso   1.00
C291   C     0.13291   0.08802   0.77505   0.00000  Uiso   1.00
C292   C     0.12012   0.04262   0.77574   0.00000  Uiso   1.00
C293   C     0.96146   0.02659   0.70613   0.00000  Uiso   1.00
C294   C     0.22924   0.13868   0.75440   0.00000  Uiso   1.00
C295   C     0.29746   0.13588   0.73774   0.00000  Uiso   1.00
C296   C     0.21993   0.16250   0.65076   0.00000  Uiso   1.00
C297   C     0.34242   0.14683   0.91863   0.00000  Uiso   1.00
C298   C     0.50581   0.15090   0.04006   0.00000  Uiso   1.00
C299   C     0.52358   0.18439   0.09134   0.00000  Uiso   1.00
H300   H     0.92548   0.18692   0.66689   0.00000  Uiso   1.00
H301   H     0.72470   0.12240   0.58513   0.00000  Uiso   1.00
H302   H     0.90205   0.21565   0.54715   0.00000  Uiso   1.00
H303   H     0.11036   0.23066   0.84942   0.00000  Uiso   1.00
H304   H     0.56413   0.03835   0.52435   0.00000  Uiso   1.00
H305   H     0.93810   0.23498   0.44429   0.00000  Uiso   1.00
H306   H     0.37737   0.26665   0.08168   0.00000  Uiso   1.00
H307   H     0.40355   0.09048   0.89735   0.00000  Uiso   1.00
H308   H     0.22901   0.02067   0.82823   0.00000  Uiso   1.00
H309   H     0.40634   0.11392   0.79024   0.00000  Uiso   1.00
H310   H     0.61465   0.12893   0.09251   0.00000  Uiso   1.00
H311   H     0.97343   0.95578   0.72165   0.00000  Uiso   1.00
H312   H     0.34740   0.15242   0.64159   0.00000  Uiso   1.00
H313   H     0.78667   0.18408   0.27899   0.00000  Uiso   1.00
O314   O     0.64531   0.95288   0.57334   0.00000  Uiso   1.00
O315   O     0.13597   0.21086   0.46833   0.00000  Uiso   1.00
O316   O     0.71227   0.25240   0.30457   0.00000  Uiso   1.00
N317   N     0.68442   0.02850   0.58029   0.00000  Uiso   1.00
N318   N     0.03404   0.21234   0.50542   0.00000  Uiso   1.00
N319   N     0.44474   0.24195   0.10133   0.00000  Uiso   1.00
N320   N     0.90467   0.98407   0.68646   0.00000  Uiso   1.00
N321   N     0.25429   0.16791   0.61159   0.00000  Uiso   1.00
N322   N     0.66498   0.19751   0.20750   0.00000  Uiso   1.00
C323   C     0.02352   0.64859   0.60102   0.00000  Uiso   1.00
C324   C     0.97936   0.60055   0.58973   0.00000  Uiso   1.00
C325   C     0.82147   0.58549   0.52221   0.00000  Uiso   1.00
C326   C     0.80692   0.54030   0.52356   0.00000  Uiso   1.00
C327   C     0.71726   0.47012   0.49586   0.00000  Uiso   1.00
C328   C     0.07292   0.64941   0.56509   0.00000  Uiso   1.00
C329   C     0.99370   0.67544   0.47687   0.00000  Uiso   1.00
C330   C     0.05793   0.67138   0.45750   0.00000  Uiso   1.00
C331   C     0.11360   0.67708   0.39161   0.00000  Uiso   1.00
C332   C     0.19297   0.65917   0.73215   0.00000  Uiso   1.00
C333   C     0.21472   0.69340   0.78441   0.00000  Uiso   1.00
C334   C     0.38004   0.69755   0.90569   0.00000  Uiso   1.00
C335   C     0.62211   0.71840   0.09919   0.00000  Uiso   1.00
C336   C     0.27844   0.59511   0.72349   0.00000  Uiso   1.00
C337   C     0.11783   0.57151   0.65624   0.00000  Uiso   1.00
C338   C     0.10352   0.52632   0.65771   0.00000  Uiso   1.00
C339   C     0.94563   0.51120   0.59020   0.00000  Uiso   1.00
C340   C     0.21138   0.62036   0.63160   0.00000  Uiso   1.00
C341   C     0.27575   0.61627   0.61237   0.00000  Uiso   1.00
C342   C     0.19665   0.64227   0.52414   0.00000  Uiso   1.00
C343   C     0.33144   0.63012   0.79868   0.00000  Uiso   1.00
C344   C     0.49676   0.63422   0.91990   0.00000  Uiso   1.00
C345   C     0.51876   0.66845   0.97233   0.00000  Uiso   1.00
H346   H     0.91572   0.67121   0.54923   0.00000  Uiso   1.00
H347   H     0.71434   0.60799   0.47073   0.00000  Uiso   1.00
H348   H     0.88657   0.69792   0.42542   0.00000  Uiso   1.00
H349   H     0.10754   0.71587   0.73290   0.00000  Uiso   1.00
H350   H     0.55211   0.52508   0.41301   0.00000  Uiso   1.00
H351   H     0.91529   0.71471   0.31748   0.00000  Uiso   1.00
H352   H     0.38127   0.75258   0.96587   0.00000  Uiso   1.00
H353   H     0.38625   0.57249   0.77528   0.00000  Uiso   1.00
H354   H     0.21069   0.50385   0.70919   0.00000  Uiso   1.00
H355   H     0.38291   0.59378   0.66387   0.00000  Uiso   1.00
H356   H     0.60388   0.61174   0.97135   0.00000  Uiso   1.00
H357   H     0.95496   0.44055   0.60654   0.00000  Uiso   1.00
H358   H     0.31815   0.63019   0.51102   0.00000  Uiso   1.00
H359   H     0.78412   0.66805   0.15941   0.00000  Uiso   1.00
O360   O     0.62954   0.43944   0.46219   0.00000  Uiso   1.00
O361   O     0.10604   0.68824   0.33688   0.00000  Uiso   1.00
O362   O     0.71738   0.73791   0.18755   0.00000  Uiso   1.00
N363   N     0.67103   0.51461   0.46765   0.00000  Uiso   1.00
N364   N     0.01056   0.69190   0.37832   0.00000  Uiso   1.00
N365   N     0.44623   0.72731   0.98451   0.00000  Uiso   1.00
N366   N     0.88780   0.46912   0.57179   0.00000  Uiso   1.00
N367   N     0.22734   0.64642   0.48246   0.00000  Uiso   1.00
N368   N     0.66300   0.68182   0.08865   0.00000  Uiso   1.00
