data_job_03702
_audit_creation_date              2018-12-19
_audit_creation_method            'Materials Studio'
_symmetry_space_group_name_H-M    'P1'
_symmetry_Int_Tables_number       1
_symmetry_cell_setting            triclinic
loop_
_symmetry_equiv_pos_as_xyz
  x,y,z
_cell_length_a                    21.7312
_cell_length_b                    25.8648
_cell_length_c                    9.4908
_cell_angle_alpha                 90.0000
_cell_angle_beta                  90.0000
_cell_angle_gamma                 90.0000
loop_
_atom_site_label
_atom_site_type_symbol
_atom_site_fract_x
_atom_site_fract_y
_atom_site_fract_z
_atom_site_U_iso_or_equiv
_atom_site_adp_type
_atom_site_occupancy
C1     C     0.67527   0.40629   0.70449   0.00000  Uiso   1.00
C2     C     0.70262   0.36263   0.79248   0.00000  Uiso   1.00
C3     C     0.76322   0.34579   0.78761   0.00000  Uiso   1.00
C4     C     0.77919   0.30531   0.87646   0.00000  Uiso   1.00
C5     C     0.82820   0.24097   0.99929   0.00000  Uiso   1.00
C6     C     0.62083   0.38284   0.62579   0.00000  Uiso   1.00
C7     C     0.61265   0.38299   0.48076   0.00000  Uiso   1.00
C8     C     0.55977   0.35953   0.42928   0.00000  Uiso   1.00
C9     C     0.48178   0.32660   0.29332   0.00000  Uiso   1.00
C10    C     0.64797   0.44465   0.80925   0.00000  Uiso   1.00
C11    C     0.66259   0.49677   0.81846   0.00000  Uiso   1.00
C12    C     0.63254   0.52535   0.92143   0.00000  Uiso   1.00
C13    C     0.59668   0.58838   0.07032   0.00000  Uiso   1.00
C14    C     0.59589   0.36436   0.87094   0.00000  Uiso   1.00
C15    C     0.65950   0.33986   0.88289   0.00000  Uiso   1.00
C16    C     0.67539   0.29940   0.97177   0.00000  Uiso   1.00
C17    C     0.73599   0.28250   0.96704   0.00000  Uiso   1.00
C18    C     0.57771   0.36007   0.71619   0.00000  Uiso   1.00
C19    C     0.52482   0.33660   0.66492   0.00000  Uiso   1.00
C20    C     0.51657   0.33672   0.51985   0.00000  Uiso   1.00
C21    C     0.60485   0.42188   0.89966   0.00000  Uiso   1.00
C22    C     0.57476   0.45038   0.00263   0.00000  Uiso   1.00
C23    C     0.58934   0.50253   0.01200   0.00000  Uiso   1.00
H24    H     0.70884   0.42402   0.63409   0.00000  Uiso   1.00
H25    H     0.79657   0.36342   0.71762   0.00000  Uiso   1.00
H26    H     0.64603   0.40062   0.41082   0.00000  Uiso   1.00
H27    H     0.69596   0.51438   0.74848   0.00000  Uiso   1.00
H28    H     0.87481   0.28618   0.85006   0.00000  Uiso   1.00
H29    H     0.55737   0.36464   0.20316   0.00000  Uiso   1.00
H30    H     0.66267   0.60452   0.91517   0.00000  Uiso   1.00
H31    H     0.56232   0.34663   0.94133   0.00000  Uiso   1.00
H32    H     0.64201   0.28178   0.04172   0.00000  Uiso   1.00
H33    H     0.49147   0.31899   0.73492   0.00000  Uiso   1.00
H34    H     0.54140   0.43275   0.07257   0.00000  Uiso   1.00
H35    H     0.74936   0.21992   0.11311   0.00000  Uiso   1.00
H36    H     0.43192   0.29838   0.46620   0.00000  Uiso   1.00
H37    H     0.53722   0.53826   0.17822   0.00000  Uiso   1.00
O38    O     0.86715   0.21178   0.04205   0.00000  Uiso   1.00
O39    O     0.45068   0.31473   0.19334   0.00000  Uiso   1.00
O40    O     0.58882   0.62944   0.12749   0.00000  Uiso   1.00
N41    N     0.83435   0.27949   0.89821   0.00000  Uiso   1.00
N42    N     0.53757   0.35284   0.29340   0.00000  Uiso   1.00
N43    N     0.63600   0.57711   0.95904   0.00000  Uiso   1.00
N44    N     0.76685   0.24384   0.03976   0.00000  Uiso   1.00
N45    N     0.47007   0.31719   0.43494   0.00000  Uiso   1.00
N46    N     0.56850   0.54146   0.10059   0.00000  Uiso   1.00
C47    C     0.82473   0.59371   0.70449   0.00000  Uiso   1.00
C48    C     0.79738   0.63737   0.79248   0.00000  Uiso   1.00
C49    C     0.73678   0.65421   0.78761   0.00000  Uiso   1.00
C50    C     0.72081   0.69469   0.87646   0.00000  Uiso   1.00
C51    C     0.67180   0.75903   0.99929   0.00000  Uiso   1.00
C52    C     0.87917   0.61716   0.62579   0.00000  Uiso   1.00
C53    C     0.88735   0.61701   0.48076   0.00000  Uiso   1.00
C54    C     0.94023   0.64047   0.42928   0.00000  Uiso   1.00
C55    C     0.01822   0.67340   0.29332   0.00000  Uiso   1.00
C56    C     0.85203   0.55535   0.80925   0.00000  Uiso   1.00
C57    C     0.83741   0.50323   0.81846   0.00000  Uiso   1.00
C58    C     0.86746   0.47465   0.92143   0.00000  Uiso   1.00
C59    C     0.90332   0.41162   0.07032   0.00000  Uiso   1.00
C60    C     0.90411   0.63564   0.87094   0.00000  Uiso   1.00
C61    C     0.84050   0.66014   0.88289   0.00000  Uiso   1.00
C62    C     0.82461   0.70060   0.97177   0.00000  Uiso   1.00
C63    C     0.76401   0.71750   0.96704   0.00000  Uiso   1.00
C64    C     0.92229   0.63993   0.71619   0.00000  Uiso   1.00
C65    C     0.97518   0.66340   0.66492   0.00000  Uiso   1.00
C66    C     0.98343   0.66328   0.51985   0.00000  Uiso   1.00
C67    C     0.89515   0.57812   0.89966   0.00000  Uiso   1.00
C68    C     0.92524   0.54962   0.00263   0.00000  Uiso   1.00
C69    C     0.91066   0.49747   0.01200   0.00000  Uiso   1.00
H70    H     0.79116   0.57598   0.63409   0.00000  Uiso   1.00
H71    H     0.70343   0.63658   0.71762   0.00000  Uiso   1.00
H72    H     0.85397   0.59938   0.41082   0.00000  Uiso   1.00
H73    H     0.80404   0.48562   0.74848   0.00000  Uiso   1.00
H74    H     0.62519   0.71382   0.85006   0.00000  Uiso   1.00
H75    H     0.94263   0.63536   0.20316   0.00000  Uiso   1.00
H76    H     0.83733   0.39548   0.91517   0.00000  Uiso   1.00
H77    H     0.93768   0.65337   0.94133   0.00000  Uiso   1.00
H78    H     0.85799   0.71822   0.04172   0.00000  Uiso   1.00
H79    H     0.00853   0.68101   0.73492   0.00000  Uiso   1.00
H80    H     0.95860   0.56725   0.07257   0.00000  Uiso   1.00
H81    H     0.75064   0.78008   0.11311   0.00000  Uiso   1.00
H82    H     0.06808   0.70162   0.46620   0.00000  Uiso   1.00
H83    H     0.96278   0.46174   0.17822   0.00000  Uiso   1.00
O84    O     0.63285   0.78822   0.04205   0.00000  Uiso   1.00
O85    O     0.04932   0.68527   0.19334   0.00000  Uiso   1.00
O86    O     0.91118   0.37056   0.12749   0.00000  Uiso   1.00
N87    N     0.66565   0.72051   0.89821   0.00000  Uiso   1.00
N88    N     0.96243   0.64716   0.29340   0.00000  Uiso   1.00
N89    N     0.86400   0.42289   0.95904   0.00000  Uiso   1.00
N90    N     0.73315   0.75616   0.03976   0.00000  Uiso   1.00
N91    N     0.02993   0.68281   0.43494   0.00000  Uiso   1.00
N92    N     0.93150   0.45854   0.10059   0.00000  Uiso   1.00
C93    C     0.82473   0.90629   0.79551   0.00000  Uiso   1.00
C94    C     0.79738   0.86263   0.70752   0.00000  Uiso   1.00
C95    C     0.73678   0.84579   0.71239   0.00000  Uiso   1.00
C96    C     0.72081   0.80531   0.62354   0.00000  Uiso   1.00
C97    C     0.67180   0.74097   0.50071   0.00000  Uiso   1.00
C98    C     0.87917   0.88284   0.87421   0.00000  Uiso   1.00
C99    C     0.88735   0.88299   0.01924   0.00000  Uiso   1.00
C100   C     0.94023   0.85953   0.07072   0.00000  Uiso   1.00
C101   C     0.01822   0.82660   0.20668   0.00000  Uiso   1.00
C102   C     0.85203   0.94465   0.69075   0.00000  Uiso   1.00
C103   C     0.83741   0.99677   0.68154   0.00000  Uiso   1.00
C104   C     0.86746   0.02535   0.57857   0.00000  Uiso   1.00
C105   C     0.90332   0.08838   0.42968   0.00000  Uiso   1.00
C106   C     0.90411   0.86436   0.62906   0.00000  Uiso   1.00
C107   C     0.84050   0.83986   0.61711   0.00000  Uiso   1.00
C108   C     0.82461   0.79940   0.52823   0.00000  Uiso   1.00
C109   C     0.76401   0.78250   0.53296   0.00000  Uiso   1.00
C110   C     0.92229   0.86007   0.78381   0.00000  Uiso   1.00
C111   C     0.97518   0.83660   0.83508   0.00000  Uiso   1.00
C112   C     0.98343   0.83672   0.98015   0.00000  Uiso   1.00
C113   C     0.89515   0.92188   0.60034   0.00000  Uiso   1.00
C114   C     0.92524   0.95038   0.49737   0.00000  Uiso   1.00
C115   C     0.91066   0.00253   0.48800   0.00000  Uiso   1.00
H116   H     0.79116   0.92402   0.86591   0.00000  Uiso   1.00
H117   H     0.70343   0.86342   0.78238   0.00000  Uiso   1.00
H118   H     0.85397   0.90062   0.08918   0.00000  Uiso   1.00
H119   H     0.80404   0.01438   0.75152   0.00000  Uiso   1.00
H120   H     0.62519   0.78618   0.64994   0.00000  Uiso   1.00
H121   H     0.94263   0.86464   0.29684   0.00000  Uiso   1.00
H122   H     0.83733   0.10452   0.58483   0.00000  Uiso   1.00
H123   H     0.93768   0.84663   0.55867   0.00000  Uiso   1.00
H124   H     0.85799   0.78178   0.45828   0.00000  Uiso   1.00
H125   H     0.00853   0.81899   0.76508   0.00000  Uiso   1.00
H126   H     0.95860   0.93275   0.42743   0.00000  Uiso   1.00
H127   H     0.75064   0.71992   0.38689   0.00000  Uiso   1.00
H128   H     0.06808   0.79838   0.03380   0.00000  Uiso   1.00
H129   H     0.96278   0.03826   0.32178   0.00000  Uiso   1.00
O130   O     0.63285   0.71178   0.45795   0.00000  Uiso   1.00
O131   O     0.04932   0.81473   0.30666   0.00000  Uiso   1.00
O132   O     0.91118   0.12944   0.37251   0.00000  Uiso   1.00
N133   N     0.66565   0.77949   0.60179   0.00000  Uiso   1.00
N134   N     0.96243   0.85284   0.20660   0.00000  Uiso   1.00
N135   N     0.86400   0.07711   0.54096   0.00000  Uiso   1.00
N136   N     0.73315   0.74384   0.46024   0.00000  Uiso   1.00
N137   N     0.02993   0.81719   0.06506   0.00000  Uiso   1.00
N138   N     0.93150   0.04146   0.39941   0.00000  Uiso   1.00
C139   C     0.67527   0.09371   0.79551   0.00000  Uiso   1.00
C140   C     0.70262   0.13737   0.70752   0.00000  Uiso   1.00
C141   C     0.76322   0.15421   0.71239   0.00000  Uiso   1.00
C142   C     0.77919   0.19469   0.62354   0.00000  Uiso   1.00
C143   C     0.82820   0.25903   0.50071   0.00000  Uiso   1.00
C144   C     0.62083   0.11716   0.87421   0.00000  Uiso   1.00
C145   C     0.61265   0.11701   0.01924   0.00000  Uiso   1.00
C146   C     0.55977   0.14047   0.07072   0.00000  Uiso   1.00
C147   C     0.48178   0.17340   0.20668   0.00000  Uiso   1.00
C148   C     0.64797   0.05535   0.69075   0.00000  Uiso   1.00
C149   C     0.66259   0.00323   0.68154   0.00000  Uiso   1.00
C150   C     0.63254   0.97465   0.57857   0.00000  Uiso   1.00
C151   C     0.59668   0.91162   0.42968   0.00000  Uiso   1.00
C152   C     0.59589   0.13564   0.62906   0.00000  Uiso   1.00
C153   C     0.65950   0.16014   0.61711   0.00000  Uiso   1.00
C154   C     0.67539   0.20060   0.52823   0.00000  Uiso   1.00
C155   C     0.73599   0.21750   0.53296   0.00000  Uiso   1.00
C156   C     0.57771   0.13993   0.78381   0.00000  Uiso   1.00
C157   C     0.52482   0.16340   0.83508   0.00000  Uiso   1.00
C158   C     0.51657   0.16328   0.98015   0.00000  Uiso   1.00
C159   C     0.60485   0.07812   0.60034   0.00000  Uiso   1.00
C160   C     0.57476   0.04962   0.49737   0.00000  Uiso   1.00
C161   C     0.58934   0.99747   0.48800   0.00000  Uiso   1.00
H162   H     0.70884   0.07598   0.86591   0.00000  Uiso   1.00
H163   H     0.79657   0.13658   0.78238   0.00000  Uiso   1.00
H164   H     0.64603   0.09938   0.08918   0.00000  Uiso   1.00
H165   H     0.69596   0.98562   0.75152   0.00000  Uiso   1.00
H166   H     0.87481   0.21382   0.64994   0.00000  Uiso   1.00
H167   H     0.55737   0.13536   0.29684   0.00000  Uiso   1.00
H168   H     0.66267   0.89548   0.58483   0.00000  Uiso   1.00
H169   H     0.56232   0.15337   0.55867   0.00000  Uiso   1.00
H170   H     0.64201   0.21822   0.45828   0.00000  Uiso   1.00
H171   H     0.49147   0.18101   0.76508   0.00000  Uiso   1.00
H172   H     0.54140   0.06725   0.42743   0.00000  Uiso   1.00
H173   H     0.74936   0.28008   0.38689   0.00000  Uiso   1.00
H174   H     0.43192   0.20162   0.03380   0.00000  Uiso   1.00
H175   H     0.53722   0.96174   0.32178   0.00000  Uiso   1.00
O176   O     0.86715   0.28822   0.45795   0.00000  Uiso   1.00
O177   O     0.45068   0.18527   0.30666   0.00000  Uiso   1.00
O178   O     0.58882   0.87056   0.37251   0.00000  Uiso   1.00
N179   N     0.83435   0.22051   0.60179   0.00000  Uiso   1.00
N180   N     0.53757   0.14716   0.20660   0.00000  Uiso   1.00
N181   N     0.63600   0.92289   0.54096   0.00000  Uiso   1.00
N182   N     0.76685   0.25616   0.46024   0.00000  Uiso   1.00
N183   N     0.47007   0.18281   0.06506   0.00000  Uiso   1.00
N184   N     0.56850   0.95854   0.39941   0.00000  Uiso   1.00
C185   C     0.32473   0.59371   0.29551   0.00000  Uiso   1.00
C186   C     0.29738   0.63737   0.20752   0.00000  Uiso   1.00
C187   C     0.23678   0.65421   0.21239   0.00000  Uiso   1.00
C188   C     0.22081   0.69469   0.12354   0.00000  Uiso   1.00
C189   C     0.17180   0.75903   0.00071   0.00000  Uiso   1.00
C190   C     0.37917   0.61716   0.37421   0.00000  Uiso   1.00
C191   C     0.38735   0.61701   0.51924   0.00000  Uiso   1.00
C192   C     0.44023   0.64047   0.57072   0.00000  Uiso   1.00
C193   C     0.51822   0.67340   0.70668   0.00000  Uiso   1.00
C194   C     0.35203   0.55535   0.19075   0.00000  Uiso   1.00
C195   C     0.33741   0.50323   0.18154   0.00000  Uiso   1.00
C196   C     0.36746   0.47465   0.07857   0.00000  Uiso   1.00
C197   C     0.40332   0.41162   0.92968   0.00000  Uiso   1.00
C198   C     0.40411   0.63564   0.12906   0.00000  Uiso   1.00
C199   C     0.34050   0.66014   0.11711   0.00000  Uiso   1.00
C200   C     0.32461   0.70060   0.02823   0.00000  Uiso   1.00
C201   C     0.26401   0.71750   0.03296   0.00000  Uiso   1.00
C202   C     0.42229   0.63993   0.28381   0.00000  Uiso   1.00
C203   C     0.47518   0.66340   0.33508   0.00000  Uiso   1.00
C204   C     0.48343   0.66328   0.48015   0.00000  Uiso   1.00
C205   C     0.39515   0.57812   0.10034   0.00000  Uiso   1.00
C206   C     0.42524   0.54962   0.99737   0.00000  Uiso   1.00
C207   C     0.41066   0.49747   0.98800   0.00000  Uiso   1.00
H208   H     0.29116   0.57598   0.36591   0.00000  Uiso   1.00
H209   H     0.20343   0.63658   0.28238   0.00000  Uiso   1.00
H210   H     0.35397   0.59938   0.58918   0.00000  Uiso   1.00
H211   H     0.30404   0.48562   0.25152   0.00000  Uiso   1.00
H212   H     0.12519   0.71382   0.14994   0.00000  Uiso   1.00
H213   H     0.44263   0.63536   0.79684   0.00000  Uiso   1.00
H214   H     0.33733   0.39548   0.08483   0.00000  Uiso   1.00
H215   H     0.43768   0.65337   0.05867   0.00000  Uiso   1.00
H216   H     0.35799   0.71822   0.95828   0.00000  Uiso   1.00
H217   H     0.50853   0.68101   0.26508   0.00000  Uiso   1.00
H218   H     0.45860   0.56725   0.92743   0.00000  Uiso   1.00
H219   H     0.25064   0.78008   0.88689   0.00000  Uiso   1.00
H220   H     0.56808   0.70162   0.53380   0.00000  Uiso   1.00
H221   H     0.46278   0.46174   0.82178   0.00000  Uiso   1.00
O222   O     0.13285   0.78822   0.95795   0.00000  Uiso   1.00
O223   O     0.54932   0.68527   0.80666   0.00000  Uiso   1.00
O224   O     0.41118   0.37056   0.87251   0.00000  Uiso   1.00
N225   N     0.16565   0.72051   0.10179   0.00000  Uiso   1.00
N226   N     0.46243   0.64716   0.70660   0.00000  Uiso   1.00
N227   N     0.36400   0.42289   0.04096   0.00000  Uiso   1.00
N228   N     0.23315   0.75616   0.96024   0.00000  Uiso   1.00
N229   N     0.52993   0.68281   0.56506   0.00000  Uiso   1.00
N230   N     0.43150   0.45854   0.89941   0.00000  Uiso   1.00
C231   C     0.17527   0.40629   0.29551   0.00000  Uiso   1.00
C232   C     0.20262   0.36263   0.20752   0.00000  Uiso   1.00
C233   C     0.26322   0.34579   0.21239   0.00000  Uiso   1.00
C234   C     0.27919   0.30531   0.12354   0.00000  Uiso   1.00
C235   C     0.32820   0.24097   0.00071   0.00000  Uiso   1.00
C236   C     0.12083   0.38284   0.37421   0.00000  Uiso   1.00
C237   C     0.11265   0.38299   0.51924   0.00000  Uiso   1.00
C238   C     0.05977   0.35953   0.57072   0.00000  Uiso   1.00
C239   C     0.98178   0.32660   0.70668   0.00000  Uiso   1.00
C240   C     0.14797   0.44465   0.19075   0.00000  Uiso   1.00
C241   C     0.16259   0.49677   0.18154   0.00000  Uiso   1.00
C242   C     0.13254   0.52535   0.07857   0.00000  Uiso   1.00
C243   C     0.09668   0.58838   0.92968   0.00000  Uiso   1.00
C244   C     0.09589   0.36436   0.12906   0.00000  Uiso   1.00
C245   C     0.15950   0.33986   0.11711   0.00000  Uiso   1.00
C246   C     0.17539   0.29940   0.02823   0.00000  Uiso   1.00
C247   C     0.23599   0.28250   0.03296   0.00000  Uiso   1.00
C248   C     0.07771   0.36007   0.28381   0.00000  Uiso   1.00
C249   C     0.02482   0.33660   0.33508   0.00000  Uiso   1.00
C250   C     0.01657   0.33672   0.48015   0.00000  Uiso   1.00
C251   C     0.10485   0.42188   0.10034   0.00000  Uiso   1.00
C252   C     0.07476   0.45038   0.99737   0.00000  Uiso   1.00
C253   C     0.08934   0.50253   0.98800   0.00000  Uiso   1.00
H254   H     0.20884   0.42402   0.36591   0.00000  Uiso   1.00
H255   H     0.29657   0.36342   0.28238   0.00000  Uiso   1.00
H256   H     0.14603   0.40062   0.58918   0.00000  Uiso   1.00
H257   H     0.19596   0.51438   0.25152   0.00000  Uiso   1.00
H258   H     0.37481   0.28618   0.14994   0.00000  Uiso   1.00
H259   H     0.05737   0.36464   0.79684   0.00000  Uiso   1.00
H260   H     0.16267   0.60452   0.08483   0.00000  Uiso   1.00
H261   H     0.06232   0.34663   0.05867   0.00000  Uiso   1.00
H262   H     0.14201   0.28178   0.95828   0.00000  Uiso   1.00
H263   H     0.99147   0.31899   0.26508   0.00000  Uiso   1.00
H264   H     0.04140   0.43275   0.92743   0.00000  Uiso   1.00
H265   H     0.24936   0.21992   0.88689   0.00000  Uiso   1.00
H266   H     0.93192   0.29838   0.53380   0.00000  Uiso   1.00
H267   H     0.03722   0.53826   0.82178   0.00000  Uiso   1.00
O268   O     0.36715   0.21178   0.95795   0.00000  Uiso   1.00
O269   O     0.95068   0.31473   0.80666   0.00000  Uiso   1.00
O270   O     0.08882   0.62944   0.87251   0.00000  Uiso   1.00
N271   N     0.33435   0.27949   0.10179   0.00000  Uiso   1.00
N272   N     0.03757   0.35284   0.70660   0.00000  Uiso   1.00
N273   N     0.13600   0.57711   0.04096   0.00000  Uiso   1.00
N274   N     0.26685   0.24384   0.96024   0.00000  Uiso   1.00
N275   N     0.97007   0.31719   0.56506   0.00000  Uiso   1.00
N276   N     0.06850   0.54146   0.89941   0.00000  Uiso   1.00
C277   C     0.17527   0.09371   0.20449   0.00000  Uiso   1.00
C278   C     0.20262   0.13737   0.29248   0.00000  Uiso   1.00
C279   C     0.26322   0.15421   0.28761   0.00000  Uiso   1.00
C280   C     0.27919   0.19469   0.37646   0.00000  Uiso   1.00
C281   C     0.32820   0.25903   0.49929   0.00000  Uiso   1.00
C282   C     0.12083   0.11716   0.12579   0.00000  Uiso   1.00
C283   C     0.11265   0.11701   0.98076   0.00000  Uiso   1.00
C284   C     0.05977   0.14047   0.92928   0.00000  Uiso   1.00
C285   C     0.98178   0.17340   0.79332   0.00000  Uiso   1.00
C286   C     0.14797   0.05535   0.30925   0.00000  Uiso   1.00
C287   C     0.16259   0.00323   0.31846   0.00000  Uiso   1.00
C288   C     0.13254   0.97465   0.42143   0.00000  Uiso   1.00
C289   C     0.09668   0.91162   0.57032   0.00000  Uiso   1.00
C290   C     0.09589   0.13564   0.37094   0.00000  Uiso   1.00
C291   C     0.15950   0.16014   0.38289   0.00000  Uiso   1.00
C292   C     0.17539   0.20060   0.47177   0.00000  Uiso   1.00
C293   C     0.23599   0.21750   0.46704   0.00000  Uiso   1.00
C294   C     0.07771   0.13993   0.21619   0.00000  Uiso   1.00
C295   C     0.02482   0.16340   0.16492   0.00000  Uiso   1.00
C296   C     0.01657   0.16328   0.01985   0.00000  Uiso   1.00
C297   C     0.10485   0.07812   0.39966   0.00000  Uiso   1.00
C298   C     0.07476   0.04962   0.50263   0.00000  Uiso   1.00
C299   C     0.08934   0.99747   0.51200   0.00000  Uiso   1.00
H300   H     0.20884   0.07598   0.13409   0.00000  Uiso   1.00
H301   H     0.29657   0.13658   0.21762   0.00000  Uiso   1.00
H302   H     0.14603   0.09938   0.91082   0.00000  Uiso   1.00
H303   H     0.19596   0.98562   0.24848   0.00000  Uiso   1.00
H304   H     0.37481   0.21382   0.35006   0.00000  Uiso   1.00
H305   H     0.05737   0.13536   0.70316   0.00000  Uiso   1.00
H306   H     0.16267   0.89548   0.41517   0.00000  Uiso   1.00
H307   H     0.06232   0.15337   0.44133   0.00000  Uiso   1.00
H308   H     0.14201   0.21822   0.54172   0.00000  Uiso   1.00
H309   H     0.99147   0.18101   0.23492   0.00000  Uiso   1.00
H310   H     0.04140   0.06725   0.57257   0.00000  Uiso   1.00
H311   H     0.24936   0.28008   0.61311   0.00000  Uiso   1.00
H312   H     0.93192   0.20162   0.96620   0.00000  Uiso   1.00
H313   H     0.03722   0.96174   0.67822   0.00000  Uiso   1.00
O314   O     0.36715   0.28822   0.54205   0.00000  Uiso   1.00
O315   O     0.95068   0.18527   0.69334   0.00000  Uiso   1.00
O316   O     0.08882   0.87056   0.62749   0.00000  Uiso   1.00
N317   N     0.33435   0.22051   0.39821   0.00000  Uiso   1.00
N318   N     0.03757   0.14716   0.79340   0.00000  Uiso   1.00
N319   N     0.13600   0.92289   0.45904   0.00000  Uiso   1.00
N320   N     0.26685   0.25616   0.53976   0.00000  Uiso   1.00
N321   N     0.97007   0.18281   0.93494   0.00000  Uiso   1.00
N322   N     0.06850   0.95854   0.60059   0.00000  Uiso   1.00
C323   C     0.32473   0.90629   0.20449   0.00000  Uiso   1.00
C324   C     0.29738   0.86263   0.29248   0.00000  Uiso   1.00
C325   C     0.23678   0.84579   0.28761   0.00000  Uiso   1.00
C326   C     0.22081   0.80531   0.37646   0.00000  Uiso   1.00
C327   C     0.17180   0.74097   0.49929   0.00000  Uiso   1.00
C328   C     0.37917   0.88284   0.12579   0.00000  Uiso   1.00
C329   C     0.38735   0.88299   0.98076   0.00000  Uiso   1.00
C330   C     0.44023   0.85953   0.92928   0.00000  Uiso   1.00
C331   C     0.51822   0.82660   0.79332   0.00000  Uiso   1.00
C332   C     0.35203   0.94465   0.30925   0.00000  Uiso   1.00
C333   C     0.33741   0.99677   0.31846   0.00000  Uiso   1.00
C334   C     0.36746   0.02535   0.42143   0.00000  Uiso   1.00
C335   C     0.40332   0.08838   0.57032   0.00000  Uiso   1.00
C336   C     0.40411   0.86436   0.37094   0.00000  Uiso   1.00
C337   C     0.34050   0.83986   0.38289   0.00000  Uiso   1.00
C338   C     0.32461   0.79940   0.47177   0.00000  Uiso   1.00
C339   C     0.26401   0.78250   0.46704   0.00000  Uiso   1.00
C340   C     0.42229   0.86007   0.21619   0.00000  Uiso   1.00
C341   C     0.47518   0.83660   0.16492   0.00000  Uiso   1.00
C342   C     0.48343   0.83672   0.01985   0.00000  Uiso   1.00
C343   C     0.39515   0.92188   0.39966   0.00000  Uiso   1.00
C344   C     0.42524   0.95038   0.50263   0.00000  Uiso   1.00
C345   C     0.41066   0.00253   0.51200   0.00000  Uiso   1.00
H346   H     0.29116   0.92402   0.13409   0.00000  Uiso   1.00
H347   H     0.20343   0.86342   0.21762   0.00000  Uiso   1.00
H348   H     0.35397   0.90062   0.91082   0.00000  Uiso   1.00
H349   H     0.30404   0.01438   0.24848   0.00000  Uiso   1.00
H350   H     0.12519   0.78618   0.35006   0.00000  Uiso   1.00
H351   H     0.44263   0.86464   0.70316   0.00000  Uiso   1.00
H352   H     0.33733   0.10452   0.41517   0.00000  Uiso   1.00
H353   H     0.43768   0.84663   0.44133   0.00000  Uiso   1.00
H354   H     0.35799   0.78178   0.54172   0.00000  Uiso   1.00
H355   H     0.50853   0.81899   0.23492   0.00000  Uiso   1.00
H356   H     0.45860   0.93275   0.57257   0.00000  Uiso   1.00
H357   H     0.25064   0.71992   0.61311   0.00000  Uiso   1.00
H358   H     0.56808   0.79838   0.96620   0.00000  Uiso   1.00
H359   H     0.46278   0.03826   0.67822   0.00000  Uiso   1.00
O360   O     0.13285   0.71178   0.54205   0.00000  Uiso   1.00
O361   O     0.54932   0.81473   0.69334   0.00000  Uiso   1.00
O362   O     0.41118   0.12944   0.62749   0.00000  Uiso   1.00
N363   N     0.16565   0.77949   0.39821   0.00000  Uiso   1.00
N364   N     0.46243   0.85284   0.79340   0.00000  Uiso   1.00
N365   N     0.36400   0.07711   0.45904   0.00000  Uiso   1.00
N366   N     0.23315   0.74384   0.53976   0.00000  Uiso   1.00
N367   N     0.52993   0.81719   0.93494   0.00000  Uiso   1.00
N368   N     0.43150   0.04146   0.60059   0.00000  Uiso   1.00
