data_job_00492
_audit_creation_date              2018-12-19
_audit_creation_method            'Materials Studio'
_symmetry_space_group_name_H-M    'P1'
_symmetry_Int_Tables_number       1
_symmetry_cell_setting            triclinic
loop_
_symmetry_equiv_pos_as_xyz
  x,y,z
_cell_length_a                    29.5340
_cell_length_b                    8.8219
_cell_length_c                    20.3025
_cell_angle_alpha                 90.0000
_cell_angle_beta                  99.0126
_cell_angle_gamma                 90.0000
loop_
_atom_site_label
_atom_site_type_symbol
_atom_site_fract_x
_atom_site_fract_y
_atom_site_fract_z
_atom_site_U_iso_or_equiv
_atom_site_adp_type
_atom_site_occupancy
C1     C     0.91043   0.39408   0.70044   0.00000  Uiso   1.00
C2     C     0.86109   0.41135   0.66554   0.00000  Uiso   1.00
C3     C     0.84385   0.53260   0.62579   0.00000  Uiso   1.00
C4     C     0.79776   0.52715   0.59837   0.00000  Uiso   1.00
C5     C     0.72537   0.57262   0.54239   0.00000  Uiso   1.00
C6     C     0.90776   0.37301   0.77428   0.00000  Uiso   1.00
C7     C     0.92978   0.46201   0.82596   0.00000  Uiso   1.00
C8     C     0.92299   0.42426   0.89008   0.00000  Uiso   1.00
C9     C     0.92309   0.41014   0.00293   0.00000  Uiso   1.00
C10    C     0.92735   0.24349   0.67657   0.00000  Uiso   1.00
C11    C     0.96584   0.22357   0.64611   0.00000  Uiso   1.00
C12    C     0.97555   0.07677   0.62798   0.00000  Uiso   1.00
C13    C     0.00606   0.86155   0.58912   0.00000  Uiso   1.00
C14    C     0.85923   0.16878   0.72243   0.00000  Uiso   1.00
C15    C     0.83328   0.28898   0.67749   0.00000  Uiso   1.00
C16    C     0.78720   0.28334   0.65012   0.00000  Uiso   1.00
C17    C     0.76990   0.40456   0.61033   0.00000  Uiso   1.00
C18    C     0.87996   0.25064   0.78623   0.00000  Uiso   1.00
C19    C     0.87313   0.21275   0.85029   0.00000  Uiso   1.00
C20    C     0.89513   0.30167   0.90205   0.00000  Uiso   1.00
C21    C     0.89954   0.12111   0.68852   0.00000  Uiso   1.00
C22    C     0.90919   0.97431   0.67044   0.00000  Uiso   1.00
C23    C     0.94769   0.95418   0.63995   0.00000  Uiso   1.00
H24    H     0.93208   0.48935   0.69114   0.00000  Uiso   1.00
H25    H     0.86538   0.62729   0.61656   0.00000  Uiso   1.00
H26    H     0.95130   0.55669   0.81670   0.00000  Uiso   1.00
H27    H     0.98736   0.31829   0.63687   0.00000  Uiso   1.00
H28    H     0.77917   0.72628   0.53916   0.00000  Uiso   1.00
H29    H     0.96034   0.57739   0.96116   0.00000  Uiso   1.00
H30    H     0.03637   0.07468   0.58196   0.00000  Uiso   1.00
H31    H     0.83758   0.07351   0.73174   0.00000  Uiso   1.00
H32    H     0.76569   0.18863   0.65938   0.00000  Uiso   1.00
H33    H     0.85161   0.11804   0.85952   0.00000  Uiso   1.00
H34    H     0.88766   0.87964   0.67969   0.00000  Uiso   1.00
H35    H     0.69825   0.37025   0.57391   0.00000  Uiso   1.00
H36    H     0.87943   0.22137   0.99592   0.00000  Uiso   1.00
H37    H     0.95546   0.71866   0.61672   0.00000  Uiso   1.00
O38    O     0.69312   0.63152   0.50822   0.00000  Uiso   1.00
O39    O     0.93082   0.43617   0.06188   0.00000  Uiso   1.00
O40    O     0.03057   0.77664   0.56437   0.00000  Uiso   1.00
N41    N     0.76999   0.62667   0.55726   0.00000  Uiso   1.00
N42    N     0.93937   0.48749   0.95181   0.00000  Uiso   1.00
N43    N     0.01046   0.01750   0.59730   0.00000  Uiso   1.00
N44    N     0.72645   0.43510   0.57596   0.00000  Uiso   1.00
N45    N     0.89583   0.29592   0.97051   0.00000  Uiso   1.00
N46    N     0.96692   0.82592   0.61600   0.00000  Uiso   1.00
C47    C     0.41043   0.89408   0.70044   0.00000  Uiso   1.00
C48    C     0.36109   0.91135   0.66554   0.00000  Uiso   1.00
C49    C     0.34385   0.03260   0.62579   0.00000  Uiso   1.00
C50    C     0.29776   0.02715   0.59837   0.00000  Uiso   1.00
C51    C     0.22537   0.07262   0.54239   0.00000  Uiso   1.00
C52    C     0.40776   0.87301   0.77428   0.00000  Uiso   1.00
C53    C     0.42978   0.96201   0.82596   0.00000  Uiso   1.00
C54    C     0.42299   0.92426   0.89008   0.00000  Uiso   1.00
C55    C     0.42309   0.91014   0.00293   0.00000  Uiso   1.00
C56    C     0.42735   0.74349   0.67657   0.00000  Uiso   1.00
C57    C     0.46584   0.72357   0.64611   0.00000  Uiso   1.00
C58    C     0.47555   0.57677   0.62798   0.00000  Uiso   1.00
C59    C     0.50606   0.36155   0.58912   0.00000  Uiso   1.00
C60    C     0.35923   0.66878   0.72243   0.00000  Uiso   1.00
C61    C     0.33328   0.78898   0.67749   0.00000  Uiso   1.00
C62    C     0.28720   0.78334   0.65012   0.00000  Uiso   1.00
C63    C     0.26990   0.90456   0.61033   0.00000  Uiso   1.00
C64    C     0.37996   0.75064   0.78623   0.00000  Uiso   1.00
C65    C     0.37313   0.71275   0.85029   0.00000  Uiso   1.00
C66    C     0.39513   0.80167   0.90205   0.00000  Uiso   1.00
C67    C     0.39954   0.62111   0.68852   0.00000  Uiso   1.00
C68    C     0.40919   0.47431   0.67044   0.00000  Uiso   1.00
C69    C     0.44769   0.45418   0.63995   0.00000  Uiso   1.00
H70    H     0.43208   0.98935   0.69114   0.00000  Uiso   1.00
H71    H     0.36538   0.12729   0.61656   0.00000  Uiso   1.00
H72    H     0.45130   0.05669   0.81670   0.00000  Uiso   1.00
H73    H     0.48736   0.81829   0.63687   0.00000  Uiso   1.00
H74    H     0.27917   0.22628   0.53916   0.00000  Uiso   1.00
H75    H     0.46034   0.07739   0.96116   0.00000  Uiso   1.00
H76    H     0.53637   0.57468   0.58196   0.00000  Uiso   1.00
H77    H     0.33758   0.57351   0.73174   0.00000  Uiso   1.00
H78    H     0.26569   0.68863   0.65938   0.00000  Uiso   1.00
H79    H     0.35161   0.61804   0.85952   0.00000  Uiso   1.00
H80    H     0.38766   0.37964   0.67969   0.00000  Uiso   1.00
H81    H     0.19825   0.87025   0.57391   0.00000  Uiso   1.00
H82    H     0.37943   0.72137   0.99592   0.00000  Uiso   1.00
H83    H     0.45546   0.21866   0.61672   0.00000  Uiso   1.00
O84    O     0.19312   0.13152   0.50822   0.00000  Uiso   1.00
O85    O     0.43082   0.93617   0.06188   0.00000  Uiso   1.00
O86    O     0.53057   0.27664   0.56437   0.00000  Uiso   1.00
N87    N     0.26999   0.12667   0.55726   0.00000  Uiso   1.00
N88    N     0.43937   0.98749   0.95181   0.00000  Uiso   1.00
N89    N     0.51046   0.51750   0.59730   0.00000  Uiso   1.00
N90    N     0.22645   0.93510   0.57596   0.00000  Uiso   1.00
N91    N     0.39583   0.79592   0.97051   0.00000  Uiso   1.00
N92    N     0.46692   0.32592   0.61600   0.00000  Uiso   1.00
C93    C     0.08957   0.39408   0.79956   0.00000  Uiso   1.00
C94    C     0.13891   0.41135   0.83446   0.00000  Uiso   1.00
C95    C     0.15615   0.53260   0.87421   0.00000  Uiso   1.00
C96    C     0.20224   0.52715   0.90163   0.00000  Uiso   1.00
C97    C     0.27463   0.57262   0.95761   0.00000  Uiso   1.00
C98    C     0.09224   0.37301   0.72572   0.00000  Uiso   1.00
C99    C     0.07022   0.46201   0.67404   0.00000  Uiso   1.00
C100   C     0.07701   0.42426   0.60992   0.00000  Uiso   1.00
C101   C     0.07691   0.41014   0.49707   0.00000  Uiso   1.00
C102   C     0.07265   0.24349   0.82343   0.00000  Uiso   1.00
C103   C     0.03416   0.22357   0.85389   0.00000  Uiso   1.00
C104   C     0.02445   0.07677   0.87202   0.00000  Uiso   1.00
C105   C     0.99394   0.86155   0.91088   0.00000  Uiso   1.00
C106   C     0.14077   0.16878   0.77757   0.00000  Uiso   1.00
C107   C     0.16672   0.28898   0.82251   0.00000  Uiso   1.00
C108   C     0.21280   0.28334   0.84988   0.00000  Uiso   1.00
C109   C     0.23010   0.40456   0.88967   0.00000  Uiso   1.00
C110   C     0.12004   0.25064   0.71377   0.00000  Uiso   1.00
C111   C     0.12687   0.21275   0.64971   0.00000  Uiso   1.00
C112   C     0.10487   0.30167   0.59795   0.00000  Uiso   1.00
C113   C     0.10046   0.12111   0.81148   0.00000  Uiso   1.00
C114   C     0.09081   0.97431   0.82956   0.00000  Uiso   1.00
C115   C     0.05231   0.95418   0.86005   0.00000  Uiso   1.00
H116   H     0.06792   0.48935   0.80886   0.00000  Uiso   1.00
H117   H     0.13462   0.62729   0.88344   0.00000  Uiso   1.00
H118   H     0.04870   0.55669   0.68330   0.00000  Uiso   1.00
H119   H     0.01264   0.31829   0.86313   0.00000  Uiso   1.00
H120   H     0.22083   0.72628   0.96084   0.00000  Uiso   1.00
H121   H     0.03966   0.57739   0.53884   0.00000  Uiso   1.00
H122   H     0.96363   0.07468   0.91804   0.00000  Uiso   1.00
H123   H     0.16242   0.07351   0.76826   0.00000  Uiso   1.00
H124   H     0.23431   0.18863   0.84062   0.00000  Uiso   1.00
H125   H     0.14839   0.11804   0.64048   0.00000  Uiso   1.00
H126   H     0.11234   0.87964   0.82031   0.00000  Uiso   1.00
H127   H     0.30175   0.37025   0.92609   0.00000  Uiso   1.00
H128   H     0.12057   0.22137   0.50408   0.00000  Uiso   1.00
H129   H     0.04454   0.71866   0.88328   0.00000  Uiso   1.00
O130   O     0.30688   0.63152   0.99178   0.00000  Uiso   1.00
O131   O     0.06918   0.43617   0.43812   0.00000  Uiso   1.00
O132   O     0.96943   0.77664   0.93563   0.00000  Uiso   1.00
N133   N     0.23001   0.62667   0.94274   0.00000  Uiso   1.00
N134   N     0.06063   0.48749   0.54819   0.00000  Uiso   1.00
N135   N     0.98954   0.01750   0.90270   0.00000  Uiso   1.00
N136   N     0.27355   0.43510   0.92404   0.00000  Uiso   1.00
N137   N     0.10417   0.29592   0.52949   0.00000  Uiso   1.00
N138   N     0.03308   0.82592   0.88400   0.00000  Uiso   1.00
C139   C     0.58957   0.89408   0.79956   0.00000  Uiso   1.00
C140   C     0.63891   0.91135   0.83446   0.00000  Uiso   1.00
C141   C     0.65615   0.03260   0.87421   0.00000  Uiso   1.00
C142   C     0.70224   0.02715   0.90163   0.00000  Uiso   1.00
C143   C     0.77463   0.07262   0.95761   0.00000  Uiso   1.00
C144   C     0.59224   0.87301   0.72572   0.00000  Uiso   1.00
C145   C     0.57022   0.96201   0.67404   0.00000  Uiso   1.00
C146   C     0.57701   0.92426   0.60992   0.00000  Uiso   1.00
C147   C     0.57691   0.91014   0.49707   0.00000  Uiso   1.00
C148   C     0.57265   0.74349   0.82343   0.00000  Uiso   1.00
C149   C     0.53416   0.72357   0.85389   0.00000  Uiso   1.00
C150   C     0.52445   0.57677   0.87202   0.00000  Uiso   1.00
C151   C     0.49394   0.36155   0.91088   0.00000  Uiso   1.00
C152   C     0.64077   0.66878   0.77757   0.00000  Uiso   1.00
C153   C     0.66672   0.78898   0.82251   0.00000  Uiso   1.00
C154   C     0.71280   0.78334   0.84988   0.00000  Uiso   1.00
C155   C     0.73010   0.90456   0.88967   0.00000  Uiso   1.00
C156   C     0.62004   0.75064   0.71377   0.00000  Uiso   1.00
C157   C     0.62687   0.71275   0.64971   0.00000  Uiso   1.00
C158   C     0.60487   0.80167   0.59795   0.00000  Uiso   1.00
C159   C     0.60046   0.62111   0.81148   0.00000  Uiso   1.00
C160   C     0.59081   0.47431   0.82956   0.00000  Uiso   1.00
C161   C     0.55231   0.45418   0.86005   0.00000  Uiso   1.00
H162   H     0.56792   0.98935   0.80886   0.00000  Uiso   1.00
H163   H     0.63462   0.12729   0.88344   0.00000  Uiso   1.00
H164   H     0.54870   0.05669   0.68330   0.00000  Uiso   1.00
H165   H     0.51264   0.81829   0.86313   0.00000  Uiso   1.00
H166   H     0.72083   0.22628   0.96084   0.00000  Uiso   1.00
H167   H     0.53966   0.07739   0.53884   0.00000  Uiso   1.00
H168   H     0.46363   0.57468   0.91804   0.00000  Uiso   1.00
H169   H     0.66242   0.57351   0.76826   0.00000  Uiso   1.00
H170   H     0.73431   0.68863   0.84062   0.00000  Uiso   1.00
H171   H     0.64839   0.61804   0.64048   0.00000  Uiso   1.00
H172   H     0.61234   0.37964   0.82031   0.00000  Uiso   1.00
H173   H     0.80175   0.87025   0.92609   0.00000  Uiso   1.00
H174   H     0.62057   0.72137   0.50408   0.00000  Uiso   1.00
H175   H     0.54454   0.21866   0.88328   0.00000  Uiso   1.00
O176   O     0.80688   0.13152   0.99178   0.00000  Uiso   1.00
O177   O     0.56918   0.93617   0.43812   0.00000  Uiso   1.00
O178   O     0.46943   0.27664   0.93563   0.00000  Uiso   1.00
N179   N     0.73001   0.12667   0.94274   0.00000  Uiso   1.00
N180   N     0.56063   0.98749   0.54819   0.00000  Uiso   1.00
N181   N     0.48954   0.51750   0.90270   0.00000  Uiso   1.00
N182   N     0.77355   0.93510   0.92404   0.00000  Uiso   1.00
N183   N     0.60417   0.79592   0.52949   0.00000  Uiso   1.00
N184   N     0.53308   0.32592   0.88400   0.00000  Uiso   1.00
C185   C     0.08957   0.60592   0.29956   0.00000  Uiso   1.00
C186   C     0.13891   0.58865   0.33446   0.00000  Uiso   1.00
C187   C     0.15615   0.46740   0.37421   0.00000  Uiso   1.00
C188   C     0.20224   0.47285   0.40163   0.00000  Uiso   1.00
C189   C     0.27463   0.42738   0.45761   0.00000  Uiso   1.00
C190   C     0.09224   0.62699   0.22572   0.00000  Uiso   1.00
C191   C     0.07022   0.53799   0.17404   0.00000  Uiso   1.00
C192   C     0.07701   0.57574   0.10992   0.00000  Uiso   1.00
C193   C     0.07691   0.58986   0.99707   0.00000  Uiso   1.00
C194   C     0.07265   0.75651   0.32343   0.00000  Uiso   1.00
C195   C     0.03416   0.77643   0.35389   0.00000  Uiso   1.00
C196   C     0.02445   0.92323   0.37202   0.00000  Uiso   1.00
C197   C     0.99394   0.13845   0.41088   0.00000  Uiso   1.00
C198   C     0.14077   0.83122   0.27757   0.00000  Uiso   1.00
C199   C     0.16672   0.71102   0.32251   0.00000  Uiso   1.00
C200   C     0.21280   0.71666   0.34988   0.00000  Uiso   1.00
C201   C     0.23010   0.59544   0.38967   0.00000  Uiso   1.00
C202   C     0.12004   0.74936   0.21377   0.00000  Uiso   1.00
C203   C     0.12687   0.78725   0.14971   0.00000  Uiso   1.00
C204   C     0.10487   0.69833   0.09795   0.00000  Uiso   1.00
C205   C     0.10046   0.87889   0.31148   0.00000  Uiso   1.00
C206   C     0.09081   0.02569   0.32956   0.00000  Uiso   1.00
C207   C     0.05231   0.04582   0.36005   0.00000  Uiso   1.00
H208   H     0.06792   0.51065   0.30886   0.00000  Uiso   1.00
H209   H     0.13462   0.37271   0.38344   0.00000  Uiso   1.00
H210   H     0.04870   0.44331   0.18330   0.00000  Uiso   1.00
H211   H     0.01264   0.68171   0.36313   0.00000  Uiso   1.00
H212   H     0.22083   0.27372   0.46084   0.00000  Uiso   1.00
H213   H     0.03966   0.42261   0.03884   0.00000  Uiso   1.00
H214   H     0.96363   0.92532   0.41804   0.00000  Uiso   1.00
H215   H     0.16242   0.92649   0.26826   0.00000  Uiso   1.00
H216   H     0.23431   0.81137   0.34062   0.00000  Uiso   1.00
H217   H     0.14839   0.88196   0.14048   0.00000  Uiso   1.00
H218   H     0.11234   0.12036   0.32031   0.00000  Uiso   1.00
H219   H     0.30175   0.62975   0.42609   0.00000  Uiso   1.00
H220   H     0.12057   0.77863   0.00408   0.00000  Uiso   1.00
H221   H     0.04454   0.28134   0.38328   0.00000  Uiso   1.00
O222   O     0.30688   0.36848   0.49178   0.00000  Uiso   1.00
O223   O     0.06918   0.56383   0.93812   0.00000  Uiso   1.00
O224   O     0.96943   0.22336   0.43563   0.00000  Uiso   1.00
N225   N     0.23001   0.37333   0.44274   0.00000  Uiso   1.00
N226   N     0.06063   0.51251   0.04819   0.00000  Uiso   1.00
N227   N     0.98954   0.98250   0.40270   0.00000  Uiso   1.00
N228   N     0.27355   0.56490   0.42404   0.00000  Uiso   1.00
N229   N     0.10417   0.70408   0.02949   0.00000  Uiso   1.00
N230   N     0.03308   0.17408   0.38400   0.00000  Uiso   1.00
C231   C     0.58957   0.10592   0.29956   0.00000  Uiso   1.00
C232   C     0.63891   0.08865   0.33446   0.00000  Uiso   1.00
C233   C     0.65615   0.96740   0.37421   0.00000  Uiso   1.00
C234   C     0.70224   0.97285   0.40163   0.00000  Uiso   1.00
C235   C     0.77463   0.92738   0.45761   0.00000  Uiso   1.00
C236   C     0.59224   0.12699   0.22572   0.00000  Uiso   1.00
C237   C     0.57022   0.03799   0.17404   0.00000  Uiso   1.00
C238   C     0.57701   0.07574   0.10992   0.00000  Uiso   1.00
C239   C     0.57691   0.08986   0.99707   0.00000  Uiso   1.00
C240   C     0.57265   0.25651   0.32343   0.00000  Uiso   1.00
C241   C     0.53416   0.27643   0.35389   0.00000  Uiso   1.00
C242   C     0.52445   0.42323   0.37202   0.00000  Uiso   1.00
C243   C     0.49394   0.63845   0.41088   0.00000  Uiso   1.00
C244   C     0.64077   0.33122   0.27757   0.00000  Uiso   1.00
C245   C     0.66672   0.21102   0.32251   0.00000  Uiso   1.00
C246   C     0.71280   0.21666   0.34988   0.00000  Uiso   1.00
C247   C     0.73010   0.09544   0.38967   0.00000  Uiso   1.00
C248   C     0.62004   0.24936   0.21377   0.00000  Uiso   1.00
C249   C     0.62687   0.28725   0.14971   0.00000  Uiso   1.00
C250   C     0.60487   0.19833   0.09795   0.00000  Uiso   1.00
C251   C     0.60046   0.37889   0.31148   0.00000  Uiso   1.00
C252   C     0.59081   0.52569   0.32956   0.00000  Uiso   1.00
C253   C     0.55231   0.54582   0.36005   0.00000  Uiso   1.00
H254   H     0.56792   0.01065   0.30886   0.00000  Uiso   1.00
H255   H     0.63462   0.87271   0.38344   0.00000  Uiso   1.00
H256   H     0.54870   0.94331   0.18330   0.00000  Uiso   1.00
H257   H     0.51264   0.18171   0.36313   0.00000  Uiso   1.00
H258   H     0.72083   0.77372   0.46084   0.00000  Uiso   1.00
H259   H     0.53966   0.92261   0.03884   0.00000  Uiso   1.00
H260   H     0.46363   0.42532   0.41804   0.00000  Uiso   1.00
H261   H     0.66242   0.42649   0.26826   0.00000  Uiso   1.00
H262   H     0.73431   0.31137   0.34062   0.00000  Uiso   1.00
H263   H     0.64839   0.38196   0.14048   0.00000  Uiso   1.00
H264   H     0.61234   0.62036   0.32031   0.00000  Uiso   1.00
H265   H     0.80175   0.12975   0.42609   0.00000  Uiso   1.00
H266   H     0.62057   0.27863   0.00408   0.00000  Uiso   1.00
H267   H     0.54454   0.78134   0.38328   0.00000  Uiso   1.00
O268   O     0.80688   0.86848   0.49178   0.00000  Uiso   1.00
O269   O     0.56918   0.06383   0.93812   0.00000  Uiso   1.00
O270   O     0.46943   0.72336   0.43563   0.00000  Uiso   1.00
N271   N     0.73001   0.87333   0.44274   0.00000  Uiso   1.00
N272   N     0.56063   0.01251   0.04819   0.00000  Uiso   1.00
N273   N     0.48954   0.48250   0.40270   0.00000  Uiso   1.00
N274   N     0.77355   0.06490   0.42404   0.00000  Uiso   1.00
N275   N     0.60417   0.20408   0.02949   0.00000  Uiso   1.00
N276   N     0.53308   0.67408   0.38400   0.00000  Uiso   1.00
C277   C     0.91043   0.60592   0.20044   0.00000  Uiso   1.00
C278   C     0.86109   0.58865   0.16554   0.00000  Uiso   1.00
C279   C     0.84385   0.46740   0.12579   0.00000  Uiso   1.00
C280   C     0.79776   0.47285   0.09837   0.00000  Uiso   1.00
C281   C     0.72537   0.42738   0.04239   0.00000  Uiso   1.00
C282   C     0.90776   0.62699   0.27428   0.00000  Uiso   1.00
C283   C     0.92978   0.53799   0.32596   0.00000  Uiso   1.00
C284   C     0.92299   0.57574   0.39008   0.00000  Uiso   1.00
C285   C     0.92309   0.58986   0.50293   0.00000  Uiso   1.00
C286   C     0.92735   0.75651   0.17657   0.00000  Uiso   1.00
C287   C     0.96584   0.77643   0.14611   0.00000  Uiso   1.00
C288   C     0.97555   0.92323   0.12798   0.00000  Uiso   1.00
C289   C     0.00606   0.13845   0.08912   0.00000  Uiso   1.00
C290   C     0.85923   0.83122   0.22243   0.00000  Uiso   1.00
C291   C     0.83328   0.71102   0.17749   0.00000  Uiso   1.00
C292   C     0.78720   0.71666   0.15012   0.00000  Uiso   1.00
C293   C     0.76990   0.59544   0.11033   0.00000  Uiso   1.00
C294   C     0.87996   0.74936   0.28623   0.00000  Uiso   1.00
C295   C     0.87313   0.78725   0.35029   0.00000  Uiso   1.00
C296   C     0.89513   0.69833   0.40205   0.00000  Uiso   1.00
C297   C     0.89954   0.87889   0.18852   0.00000  Uiso   1.00
C298   C     0.90919   0.02569   0.17044   0.00000  Uiso   1.00
C299   C     0.94769   0.04582   0.13995   0.00000  Uiso   1.00
H300   H     0.93208   0.51065   0.19114   0.00000  Uiso   1.00
H301   H     0.86538   0.37271   0.11656   0.00000  Uiso   1.00
H302   H     0.95130   0.44331   0.31670   0.00000  Uiso   1.00
H303   H     0.98736   0.68171   0.13687   0.00000  Uiso   1.00
H304   H     0.77917   0.27372   0.03916   0.00000  Uiso   1.00
H305   H     0.96034   0.42261   0.46116   0.00000  Uiso   1.00
H306   H     0.03637   0.92532   0.08196   0.00000  Uiso   1.00
H307   H     0.83758   0.92649   0.23174   0.00000  Uiso   1.00
H308   H     0.76569   0.81137   0.15938   0.00000  Uiso   1.00
H309   H     0.85161   0.88196   0.35952   0.00000  Uiso   1.00
H310   H     0.88766   0.12036   0.17969   0.00000  Uiso   1.00
H311   H     0.69825   0.62975   0.07391   0.00000  Uiso   1.00
H312   H     0.87943   0.77863   0.49592   0.00000  Uiso   1.00
H313   H     0.95546   0.28134   0.11672   0.00000  Uiso   1.00
O314   O     0.69312   0.36848   0.00822   0.00000  Uiso   1.00
O315   O     0.93082   0.56383   0.56188   0.00000  Uiso   1.00
O316   O     0.03057   0.22336   0.06437   0.00000  Uiso   1.00
N317   N     0.76999   0.37333   0.05726   0.00000  Uiso   1.00
N318   N     0.93937   0.51251   0.45181   0.00000  Uiso   1.00
N319   N     0.01046   0.98250   0.09730   0.00000  Uiso   1.00
N320   N     0.72645   0.56490   0.07596   0.00000  Uiso   1.00
N321   N     0.89583   0.70408   0.47051   0.00000  Uiso   1.00
N322   N     0.96692   0.17408   0.11600   0.00000  Uiso   1.00
C323   C     0.41043   0.10592   0.20044   0.00000  Uiso   1.00
C324   C     0.36109   0.08865   0.16554   0.00000  Uiso   1.00
C325   C     0.34385   0.96740   0.12579   0.00000  Uiso   1.00
C326   C     0.29776   0.97285   0.09837   0.00000  Uiso   1.00
C327   C     0.22537   0.92738   0.04239   0.00000  Uiso   1.00
C328   C     0.40776   0.12699   0.27428   0.00000  Uiso   1.00
C329   C     0.42978   0.03799   0.32596   0.00000  Uiso   1.00
C330   C     0.42299   0.07574   0.39008   0.00000  Uiso   1.00
C331   C     0.42309   0.08986   0.50293   0.00000  Uiso   1.00
C332   C     0.42735   0.25651   0.17657   0.00000  Uiso   1.00
C333   C     0.46584   0.27643   0.14611   0.00000  Uiso   1.00
C334   C     0.47555   0.42323   0.12798   0.00000  Uiso   1.00
C335   C     0.50606   0.63845   0.08912   0.00000  Uiso   1.00
C336   C     0.35923   0.33122   0.22243   0.00000  Uiso   1.00
C337   C     0.33328   0.21102   0.17749   0.00000  Uiso   1.00
C338   C     0.28720   0.21666   0.15012   0.00000  Uiso   1.00
C339   C     0.26990   0.09544   0.11033   0.00000  Uiso   1.00
C340   C     0.37996   0.24936   0.28623   0.00000  Uiso   1.00
C341   C     0.37313   0.28725   0.35029   0.00000  Uiso   1.00
C342   C     0.39513   0.19833   0.40205   0.00000  Uiso   1.00
C343   C     0.39954   0.37889   0.18852   0.00000  Uiso   1.00
C344   C     0.40919   0.52569   0.17044   0.00000  Uiso   1.00
C345   C     0.44769   0.54582   0.13995   0.00000  Uiso   1.00
H346   H     0.43208   0.01065   0.19114   0.00000  Uiso   1.00
H347   H     0.36538   0.87271   0.11656   0.00000  Uiso   1.00
H348   H     0.45130   0.94331   0.31670   0.00000  Uiso   1.00
H349   H     0.48736   0.18171   0.13687   0.00000  Uiso   1.00
H350   H     0.27917   0.77372   0.03916   0.00000  Uiso   1.00
H351   H     0.46034   0.92261   0.46116   0.00000  Uiso   1.00
H352   H     0.53637   0.42532   0.08196   0.00000  Uiso   1.00
H353   H     0.33758   0.42649   0.23174   0.00000  Uiso   1.00
H354   H     0.26569   0.31137   0.15938   0.00000  Uiso   1.00
H355   H     0.35161   0.38196   0.35952   0.00000  Uiso   1.00
H356   H     0.38766   0.62036   0.17969   0.00000  Uiso   1.00
H357   H     0.19825   0.12975   0.07391   0.00000  Uiso   1.00
H358   H     0.37943   0.27863   0.49592   0.00000  Uiso   1.00
H359   H     0.45546   0.78134   0.11672   0.00000  Uiso   1.00
O360   O     0.19312   0.86848   0.00822   0.00000  Uiso   1.00
O361   O     0.43082   0.06383   0.56188   0.00000  Uiso   1.00
O362   O     0.53057   0.72336   0.06437   0.00000  Uiso   1.00
N363   N     0.26999   0.87333   0.05726   0.00000  Uiso   1.00
N364   N     0.43937   0.01251   0.45181   0.00000  Uiso   1.00
N365   N     0.51046   0.48250   0.09730   0.00000  Uiso   1.00
N366   N     0.22645   0.06490   0.07596   0.00000  Uiso   1.00
N367   N     0.39583   0.20408   0.47051   0.00000  Uiso   1.00
N368   N     0.46692   0.67408   0.11600   0.00000  Uiso   1.00
