data_job_02459
_audit_creation_date              2018-12-19
_audit_creation_method            'Materials Studio'
_symmetry_space_group_name_H-M    'P1'
_symmetry_Int_Tables_number       1
_symmetry_cell_setting            triclinic
loop_
_symmetry_equiv_pos_as_xyz
  x,y,z
_cell_length_a                    12.3475
_cell_length_b                    13.9698
_cell_length_c                    16.4915
_cell_angle_alpha                 90.0000
_cell_angle_beta                  80.9065
_cell_angle_gamma                 90.0000
loop_
_atom_site_label
_atom_site_type_symbol
_atom_site_fract_x
_atom_site_fract_y
_atom_site_fract_z
_atom_site_U_iso_or_equiv
_atom_site_adp_type
_atom_site_occupancy
C1     C     0.23627   0.41493   0.21092   0.00000  Uiso   1.00
C2     C     0.32114   0.48986   0.17670   0.00000  Uiso   1.00
C3     C     0.42376   0.47111   0.13181   0.00000  Uiso   1.00
C4     C     0.48936   0.54951   0.10603   0.00000  Uiso   1.00
C5     C     0.62663   0.65159   0.05011   0.00000  Uiso   1.00
C6     C     0.21019   0.43356   0.30305   0.00000  Uiso   1.00
C7     C     0.21951   0.36746   0.36440   0.00000  Uiso   1.00
C8     C     0.19170   0.39846   0.44499   0.00000  Uiso   1.00
C9     C     0.15663   0.41311   0.58524   0.00000  Uiso   1.00
C10    C     0.13225   0.43966   0.17635   0.00000  Uiso   1.00
C11    C     0.07602   0.37868   0.13118   0.00000  Uiso   1.00
C12    C     0.98257   0.41482   0.10511   0.00000  Uiso   1.00
C13    C     0.82649   0.43893   0.04864   0.00000  Uiso   1.00
C14    C     0.17027   0.58752   0.24497   0.00000  Uiso   1.00
C15    C     0.28529   0.58360   0.19520   0.00000  Uiso   1.00
C16    C     0.35075   0.66206   0.16948   0.00000  Uiso   1.00
C17    C     0.45346   0.64342   0.12455   0.00000  Uiso   1.00
C18    C     0.17435   0.52730   0.32155   0.00000  Uiso   1.00
C19    C     0.14650   0.55841   0.40207   0.00000  Uiso   1.00
C20    C     0.15579   0.49238   0.46352   0.00000  Uiso   1.00
C21    C     0.09640   0.53340   0.19484   0.00000  Uiso   1.00
C22    C     0.00302   0.56963   0.16885   0.00000  Uiso   1.00
C23    C     0.94666   0.50873   0.12364   0.00000  Uiso   1.00
H24    H     0.26417   0.34195   0.19653   0.00000  Uiso   1.00
H25    H     0.45148   0.39855   0.11751   0.00000  Uiso   1.00
H26    H     0.24724   0.29492   0.35007   0.00000  Uiso   1.00
H27    H     0.10378   0.30614   0.11688   0.00000  Uiso   1.00
H28    H     0.64335   0.50264   0.03809   0.00000  Uiso   1.00
H29    H     0.21268   0.28411   0.52844   0.00000  Uiso   1.00
H30    H     0.91016   0.30778   0.03673   0.00000  Uiso   1.00
H31    H     0.14237   0.66051   0.25937   0.00000  Uiso   1.00
H32    H     0.32299   0.73459   0.18380   0.00000  Uiso   1.00
H33    H     0.11876   0.63095   0.41636   0.00000  Uiso   1.00
H34    H     0.97530   0.64218   0.18317   0.00000  Uiso   1.00
H35    H     0.53907   0.77539   0.09190   0.00000  Uiso   1.00
H36    H     0.10840   0.55685   0.58226   0.00000  Uiso   1.00
H37    H     0.80588   0.58053   0.09054   0.00000  Uiso   1.00
O38    O     0.71224   0.68200   0.01417   0.00000  Uiso   1.00
O39    O     0.14720   0.39529   0.65750   0.00000  Uiso   1.00
O40    O     0.75031   0.42635   0.01237   0.00000  Uiso   1.00
N41    N     0.59401   0.55667   0.06111   0.00000  Uiso   1.00
N42    N     0.19138   0.35236   0.51956   0.00000  Uiso   1.00
N43    N     0.90853   0.37448   0.05987   0.00000  Uiso   1.00
N44    N     0.53790   0.70343   0.09006   0.00000  Uiso   1.00
N45    N     0.13527   0.49912   0.54852   0.00000  Uiso   1.00
N46    N     0.85242   0.52124   0.08882   0.00000  Uiso   1.00
C47    C     0.76373   0.91493   0.28908   0.00000  Uiso   1.00
C48    C     0.67886   0.98986   0.32330   0.00000  Uiso   1.00
C49    C     0.57624   0.97111   0.36819   0.00000  Uiso   1.00
C50    C     0.51064   0.04951   0.39397   0.00000  Uiso   1.00
C51    C     0.37337   0.15159   0.44989   0.00000  Uiso   1.00
C52    C     0.78981   0.93356   0.19695   0.00000  Uiso   1.00
C53    C     0.78049   0.86746   0.13560   0.00000  Uiso   1.00
C54    C     0.80830   0.89846   0.05501   0.00000  Uiso   1.00
C55    C     0.84337   0.91311   0.91476   0.00000  Uiso   1.00
C56    C     0.86775   0.93966   0.32365   0.00000  Uiso   1.00
C57    C     0.92398   0.87868   0.36882   0.00000  Uiso   1.00
C58    C     0.01743   0.91482   0.39489   0.00000  Uiso   1.00
C59    C     0.17351   0.93893   0.45136   0.00000  Uiso   1.00
C60    C     0.82973   0.08752   0.25503   0.00000  Uiso   1.00
C61    C     0.71471   0.08360   0.30480   0.00000  Uiso   1.00
C62    C     0.64925   0.16206   0.33052   0.00000  Uiso   1.00
C63    C     0.54654   0.14342   0.37545   0.00000  Uiso   1.00
C64    C     0.82565   0.02730   0.17845   0.00000  Uiso   1.00
C65    C     0.85350   0.05841   0.09793   0.00000  Uiso   1.00
C66    C     0.84421   0.99238   0.03648   0.00000  Uiso   1.00
C67    C     0.90360   0.03340   0.30516   0.00000  Uiso   1.00
C68    C     0.99698   0.06963   0.33115   0.00000  Uiso   1.00
C69    C     0.05334   0.00873   0.37636   0.00000  Uiso   1.00
H70    H     0.73583   0.84195   0.30347   0.00000  Uiso   1.00
H71    H     0.54852   0.89855   0.38249   0.00000  Uiso   1.00
H72    H     0.75276   0.79492   0.14993   0.00000  Uiso   1.00
H73    H     0.89622   0.80614   0.38312   0.00000  Uiso   1.00
H74    H     0.35665   0.00264   0.46191   0.00000  Uiso   1.00
H75    H     0.78732   0.78411   0.97156   0.00000  Uiso   1.00
H76    H     0.08984   0.80778   0.46327   0.00000  Uiso   1.00
H77    H     0.85763   0.16051   0.24063   0.00000  Uiso   1.00
H78    H     0.67701   0.23459   0.31620   0.00000  Uiso   1.00
H79    H     0.88124   0.13095   0.08364   0.00000  Uiso   1.00
H80    H     0.02470   0.14218   0.31683   0.00000  Uiso   1.00
H81    H     0.46093   0.27539   0.40810   0.00000  Uiso   1.00
H82    H     0.89160   0.05685   0.91774   0.00000  Uiso   1.00
H83    H     0.19412   0.08053   0.40946   0.00000  Uiso   1.00
O84    O     0.28776   0.18200   0.48583   0.00000  Uiso   1.00
O85    O     0.85280   0.89529   0.84250   0.00000  Uiso   1.00
O86    O     0.24969   0.92635   0.48763   0.00000  Uiso   1.00
N87    N     0.40599   0.05667   0.43889   0.00000  Uiso   1.00
N88    N     0.80862   0.85236   0.98044   0.00000  Uiso   1.00
N89    N     0.09147   0.87448   0.44013   0.00000  Uiso   1.00
N90    N     0.46210   0.20343   0.40994   0.00000  Uiso   1.00
N91    N     0.86473   0.99912   0.95148   0.00000  Uiso   1.00
N92    N     0.14758   0.02124   0.41118   0.00000  Uiso   1.00
C93    C     0.76373   0.58507   0.78908   0.00000  Uiso   1.00
C94    C     0.67886   0.51014   0.82330   0.00000  Uiso   1.00
C95    C     0.57624   0.52889   0.86819   0.00000  Uiso   1.00
C96    C     0.51064   0.45049   0.89397   0.00000  Uiso   1.00
C97    C     0.37337   0.34841   0.94989   0.00000  Uiso   1.00
C98    C     0.78981   0.56644   0.69695   0.00000  Uiso   1.00
C99    C     0.78049   0.63254   0.63560   0.00000  Uiso   1.00
C100   C     0.80830   0.60154   0.55501   0.00000  Uiso   1.00
C101   C     0.84337   0.58689   0.41476   0.00000  Uiso   1.00
C102   C     0.86775   0.56034   0.82365   0.00000  Uiso   1.00
C103   C     0.92398   0.62132   0.86882   0.00000  Uiso   1.00
C104   C     0.01743   0.58518   0.89489   0.00000  Uiso   1.00
C105   C     0.17351   0.56107   0.95136   0.00000  Uiso   1.00
C106   C     0.82973   0.41248   0.75503   0.00000  Uiso   1.00
C107   C     0.71471   0.41640   0.80480   0.00000  Uiso   1.00
C108   C     0.64925   0.33794   0.83052   0.00000  Uiso   1.00
C109   C     0.54654   0.35658   0.87545   0.00000  Uiso   1.00
C110   C     0.82565   0.47270   0.67845   0.00000  Uiso   1.00
C111   C     0.85350   0.44159   0.59793   0.00000  Uiso   1.00
C112   C     0.84421   0.50762   0.53648   0.00000  Uiso   1.00
C113   C     0.90360   0.46660   0.80516   0.00000  Uiso   1.00
C114   C     0.99698   0.43037   0.83115   0.00000  Uiso   1.00
C115   C     0.05334   0.49127   0.87636   0.00000  Uiso   1.00
H116   H     0.73583   0.65805   0.80347   0.00000  Uiso   1.00
H117   H     0.54852   0.60145   0.88249   0.00000  Uiso   1.00
H118   H     0.75276   0.70508   0.64993   0.00000  Uiso   1.00
H119   H     0.89622   0.69386   0.88312   0.00000  Uiso   1.00
H120   H     0.35665   0.49736   0.96191   0.00000  Uiso   1.00
H121   H     0.78732   0.71589   0.47156   0.00000  Uiso   1.00
H122   H     0.08984   0.69222   0.96327   0.00000  Uiso   1.00
H123   H     0.85763   0.33949   0.74063   0.00000  Uiso   1.00
H124   H     0.67701   0.26541   0.81620   0.00000  Uiso   1.00
H125   H     0.88124   0.36905   0.58364   0.00000  Uiso   1.00
H126   H     0.02470   0.35782   0.81683   0.00000  Uiso   1.00
H127   H     0.46093   0.22461   0.90810   0.00000  Uiso   1.00
H128   H     0.89160   0.44315   0.41774   0.00000  Uiso   1.00
H129   H     0.19412   0.41947   0.90946   0.00000  Uiso   1.00
O130   O     0.28776   0.31800   0.98583   0.00000  Uiso   1.00
O131   O     0.85280   0.60471   0.34250   0.00000  Uiso   1.00
O132   O     0.24969   0.57365   0.98763   0.00000  Uiso   1.00
N133   N     0.40599   0.44333   0.93889   0.00000  Uiso   1.00
N134   N     0.80862   0.64764   0.48044   0.00000  Uiso   1.00
N135   N     0.09147   0.62552   0.94013   0.00000  Uiso   1.00
N136   N     0.46210   0.29657   0.90994   0.00000  Uiso   1.00
N137   N     0.86473   0.50088   0.45148   0.00000  Uiso   1.00
N138   N     0.14758   0.47876   0.91118   0.00000  Uiso   1.00
C139   C     0.23627   0.08507   0.71092   0.00000  Uiso   1.00
C140   C     0.32114   0.01014   0.67670   0.00000  Uiso   1.00
C141   C     0.42376   0.02889   0.63181   0.00000  Uiso   1.00
C142   C     0.48936   0.95049   0.60603   0.00000  Uiso   1.00
C143   C     0.62663   0.84841   0.55011   0.00000  Uiso   1.00
C144   C     0.21019   0.06644   0.80305   0.00000  Uiso   1.00
C145   C     0.21951   0.13254   0.86440   0.00000  Uiso   1.00
C146   C     0.19170   0.10154   0.94499   0.00000  Uiso   1.00
C147   C     0.15663   0.08689   0.08524   0.00000  Uiso   1.00
C148   C     0.13225   0.06034   0.67635   0.00000  Uiso   1.00
C149   C     0.07602   0.12132   0.63118   0.00000  Uiso   1.00
C150   C     0.98257   0.08518   0.60511   0.00000  Uiso   1.00
C151   C     0.82649   0.06107   0.54864   0.00000  Uiso   1.00
C152   C     0.17027   0.91248   0.74497   0.00000  Uiso   1.00
C153   C     0.28529   0.91640   0.69520   0.00000  Uiso   1.00
C154   C     0.35075   0.83794   0.66948   0.00000  Uiso   1.00
C155   C     0.45346   0.85658   0.62455   0.00000  Uiso   1.00
C156   C     0.17435   0.97270   0.82155   0.00000  Uiso   1.00
C157   C     0.14650   0.94159   0.90207   0.00000  Uiso   1.00
C158   C     0.15579   0.00762   0.96352   0.00000  Uiso   1.00
C159   C     0.09640   0.96660   0.69484   0.00000  Uiso   1.00
C160   C     0.00302   0.93037   0.66885   0.00000  Uiso   1.00
C161   C     0.94666   0.99127   0.62364   0.00000  Uiso   1.00
H162   H     0.26417   0.15805   0.69653   0.00000  Uiso   1.00
H163   H     0.45148   0.10145   0.61751   0.00000  Uiso   1.00
H164   H     0.24724   0.20508   0.85007   0.00000  Uiso   1.00
H165   H     0.10378   0.19386   0.61688   0.00000  Uiso   1.00
H166   H     0.64335   0.99736   0.53809   0.00000  Uiso   1.00
H167   H     0.21268   0.21589   0.02844   0.00000  Uiso   1.00
H168   H     0.91016   0.19222   0.53673   0.00000  Uiso   1.00
H169   H     0.14237   0.83949   0.75937   0.00000  Uiso   1.00
H170   H     0.32299   0.76541   0.68380   0.00000  Uiso   1.00
H171   H     0.11876   0.86905   0.91636   0.00000  Uiso   1.00
H172   H     0.97530   0.85782   0.68317   0.00000  Uiso   1.00
H173   H     0.53907   0.72461   0.59190   0.00000  Uiso   1.00
H174   H     0.10840   0.94315   0.08226   0.00000  Uiso   1.00
H175   H     0.80588   0.91947   0.59054   0.00000  Uiso   1.00
O176   O     0.71224   0.81800   0.51417   0.00000  Uiso   1.00
O177   O     0.14720   0.10471   0.15750   0.00000  Uiso   1.00
O178   O     0.75031   0.07365   0.51237   0.00000  Uiso   1.00
N179   N     0.59401   0.94333   0.56111   0.00000  Uiso   1.00
N180   N     0.19138   0.14764   0.01956   0.00000  Uiso   1.00
N181   N     0.90853   0.12552   0.55987   0.00000  Uiso   1.00
N182   N     0.53790   0.79657   0.59006   0.00000  Uiso   1.00
N183   N     0.13527   0.00088   0.04852   0.00000  Uiso   1.00
N184   N     0.85242   0.97876   0.58882   0.00000  Uiso   1.00
