data_job_01540
_audit_creation_date              2018-12-19
_audit_creation_method            'Materials Studio'
_symmetry_space_group_name_H-M    'P1'
_symmetry_Int_Tables_number       1
_symmetry_cell_setting            triclinic
loop_
_symmetry_equiv_pos_as_xyz
  x,y,z
_cell_length_a                    25.2141
_cell_length_b                    12.7752
_cell_length_c                    19.4417
_cell_angle_alpha                 90.0000
_cell_angle_beta                  90.0000
_cell_angle_gamma                 90.0000
loop_
_atom_site_label
_atom_site_type_symbol
_atom_site_fract_x
_atom_site_fract_y
_atom_site_fract_z
_atom_site_U_iso_or_equiv
_atom_site_adp_type
_atom_site_occupancy
C1     C     0.14355   0.69780   0.89680   0.00000  Uiso   1.00
C2     C     0.11467   0.59444   0.88514   0.00000  Uiso   1.00
C3     C     0.08988   0.56396   0.82464   0.00000  Uiso   1.00
C4     C     0.06565   0.46638   0.82433   0.00000  Uiso   1.00
C5     C     0.02068   0.31575   0.79740   0.00000  Uiso   1.00
C6     C     0.11714   0.74837   0.95905   0.00000  Uiso   1.00
C7     C     0.09445   0.84731   0.96068   0.00000  Uiso   1.00
C8     C     0.07231   0.87931   0.02260   0.00000  Uiso   1.00
C9     C     0.03123   0.96769   0.11042   0.00000  Uiso   1.00
C10    C     0.19955   0.66898   0.91957   0.00000  Uiso   1.00
C11    C     0.24615   0.70119   0.88803   0.00000  Uiso   1.00
C12    C     0.29339   0.66636   0.91672   0.00000  Uiso   1.00
C13    C     0.38026   0.63147   0.94325   0.00000  Uiso   1.00
C14    C     0.14459   0.57870   0.00385   0.00000  Uiso   1.00
C15    C     0.11523   0.52976   0.94329   0.00000  Uiso   1.00
C16    C     0.09102   0.43219   0.94308   0.00000  Uiso   1.00
C17    C     0.06621   0.40157   0.88258   0.00000  Uiso   1.00
C18    C     0.11770   0.68368   0.01720   0.00000  Uiso   1.00
C19    C     0.09559   0.71554   0.07912   0.00000  Uiso   1.00
C20    C     0.07287   0.81450   0.08085   0.00000  Uiso   1.00
C21    C     0.20011   0.60429   0.97772   0.00000  Uiso   1.00
C22    C     0.24729   0.56941   0.00647   0.00000  Uiso   1.00
C23    C     0.29395   0.60156   0.97497   0.00000  Uiso   1.00
H24    H     0.14312   0.74817   0.85153   0.00000  Uiso   1.00
H25    H     0.08945   0.61405   0.77965   0.00000  Uiso   1.00
H26    H     0.09403   0.89736   0.91568   0.00000  Uiso   1.00
H27    H     0.24570   0.75125   0.84303   0.00000  Uiso   1.00
H28    H     0.03019   0.43684   0.72561   0.00000  Uiso   1.00
H29    H     0.03985   0.03423   0.01243   0.00000  Uiso   1.00
H30    H     0.35969   0.72614   0.85925   0.00000  Uiso   1.00
H31    H     0.14502   0.52834   0.04913   0.00000  Uiso   1.00
H32    H     0.09146   0.38215   0.98809   0.00000  Uiso   1.00
H33    H     0.09604   0.66546   0.12411   0.00000  Uiso   1.00
H34    H     0.24771   0.51935   0.05147   0.00000  Uiso   1.00
H35    H     0.03182   0.24862   0.89478   0.00000  Uiso   1.00
H36    H     0.04148   0.84602   0.18161   0.00000  Uiso   1.00
H37    H     0.36132   0.53792   0.02842   0.00000  Uiso   1.00
O38    O     0.99572   0.25055   0.76648   0.00000  Uiso   1.00
O39    O     0.00841   0.03431   0.14279   0.00000  Uiso   1.00
O40    O     0.42802   0.63009   0.94181   0.00000  Uiso   1.00
N41    N     0.03793   0.41260   0.77380   0.00000  Uiso   1.00
N42    N     0.04696   0.97111   0.04196   0.00000  Uiso   1.00
N43    N     0.34598   0.68309   0.89875   0.00000  Uiso   1.00
N44    N     0.03881   0.31132   0.86483   0.00000  Uiso   1.00
N45    N     0.04783   0.86984   0.13299   0.00000  Uiso   1.00
N46    N     0.34686   0.58181   0.98978   0.00000  Uiso   1.00
C47    C     0.35645   0.30220   0.39680   0.00000  Uiso   1.00
C48    C     0.38533   0.40556   0.38514   0.00000  Uiso   1.00
C49    C     0.41012   0.43604   0.32464   0.00000  Uiso   1.00
C50    C     0.43435   0.53362   0.32433   0.00000  Uiso   1.00
C51    C     0.47932   0.68425   0.29740   0.00000  Uiso   1.00
C52    C     0.38286   0.25163   0.45905   0.00000  Uiso   1.00
C53    C     0.40555   0.15269   0.46068   0.00000  Uiso   1.00
C54    C     0.42769   0.12069   0.52260   0.00000  Uiso   1.00
C55    C     0.46877   0.03231   0.61042   0.00000  Uiso   1.00
C56    C     0.30045   0.33102   0.41957   0.00000  Uiso   1.00
C57    C     0.25385   0.29881   0.38803   0.00000  Uiso   1.00
C58    C     0.20661   0.33364   0.41672   0.00000  Uiso   1.00
C59    C     0.11974   0.36853   0.44325   0.00000  Uiso   1.00
C60    C     0.35541   0.42130   0.50385   0.00000  Uiso   1.00
C61    C     0.38477   0.47024   0.44329   0.00000  Uiso   1.00
C62    C     0.40898   0.56781   0.44308   0.00000  Uiso   1.00
C63    C     0.43379   0.59843   0.38258   0.00000  Uiso   1.00
C64    C     0.38230   0.31632   0.51720   0.00000  Uiso   1.00
C65    C     0.40441   0.28446   0.57912   0.00000  Uiso   1.00
C66    C     0.42713   0.18550   0.58085   0.00000  Uiso   1.00
C67    C     0.29989   0.39571   0.47772   0.00000  Uiso   1.00
C68    C     0.25271   0.43059   0.50647   0.00000  Uiso   1.00
C69    C     0.20605   0.39844   0.47497   0.00000  Uiso   1.00
H70    H     0.35688   0.25183   0.35153   0.00000  Uiso   1.00
H71    H     0.41055   0.38595   0.27965   0.00000  Uiso   1.00
H72    H     0.40597   0.10264   0.41568   0.00000  Uiso   1.00
H73    H     0.25430   0.24875   0.34303   0.00000  Uiso   1.00
H74    H     0.46981   0.56316   0.22561   0.00000  Uiso   1.00
H75    H     0.46015   0.96577   0.51243   0.00000  Uiso   1.00
H76    H     0.14031   0.27386   0.35925   0.00000  Uiso   1.00
H77    H     0.35498   0.47166   0.54913   0.00000  Uiso   1.00
H78    H     0.40854   0.61785   0.48809   0.00000  Uiso   1.00
H79    H     0.40396   0.33454   0.62411   0.00000  Uiso   1.00
H80    H     0.25229   0.48065   0.55147   0.00000  Uiso   1.00
H81    H     0.46818   0.75138   0.39478   0.00000  Uiso   1.00
H82    H     0.45852   0.15398   0.68161   0.00000  Uiso   1.00
H83    H     0.13868   0.46208   0.52842   0.00000  Uiso   1.00
O84    O     0.50428   0.74945   0.26648   0.00000  Uiso   1.00
O85    O     0.49159   0.96569   0.64279   0.00000  Uiso   1.00
O86    O     0.07198   0.36991   0.44181   0.00000  Uiso   1.00
N87    N     0.46207   0.58740   0.27380   0.00000  Uiso   1.00
N88    N     0.45304   0.02889   0.54196   0.00000  Uiso   1.00
N89    N     0.15402   0.31691   0.39875   0.00000  Uiso   1.00
N90    N     0.46119   0.68868   0.36483   0.00000  Uiso   1.00
N91    N     0.45217   0.13016   0.63299   0.00000  Uiso   1.00
N92    N     0.15314   0.41819   0.48978   0.00000  Uiso   1.00
C93    C     0.85645   0.19780   0.60320   0.00000  Uiso   1.00
C94    C     0.88533   0.09444   0.61486   0.00000  Uiso   1.00
C95    C     0.91012   0.06396   0.67536   0.00000  Uiso   1.00
C96    C     0.93435   0.96638   0.67567   0.00000  Uiso   1.00
C97    C     0.97932   0.81575   0.70260   0.00000  Uiso   1.00
C98    C     0.88286   0.24837   0.54095   0.00000  Uiso   1.00
C99    C     0.90555   0.34731   0.53932   0.00000  Uiso   1.00
C100   C     0.92769   0.37931   0.47740   0.00000  Uiso   1.00
C101   C     0.96877   0.46769   0.38958   0.00000  Uiso   1.00
C102   C     0.80045   0.16898   0.58043   0.00000  Uiso   1.00
C103   C     0.75385   0.20119   0.61197   0.00000  Uiso   1.00
C104   C     0.70661   0.16636   0.58328   0.00000  Uiso   1.00
C105   C     0.61974   0.13147   0.55675   0.00000  Uiso   1.00
C106   C     0.85541   0.07870   0.49615   0.00000  Uiso   1.00
C107   C     0.88477   0.02976   0.55671   0.00000  Uiso   1.00
C108   C     0.90898   0.93219   0.55692   0.00000  Uiso   1.00
C109   C     0.93379   0.90157   0.61742   0.00000  Uiso   1.00
C110   C     0.88230   0.18368   0.48280   0.00000  Uiso   1.00
C111   C     0.90441   0.21554   0.42088   0.00000  Uiso   1.00
C112   C     0.92713   0.31450   0.41915   0.00000  Uiso   1.00
C113   C     0.79989   0.10429   0.52228   0.00000  Uiso   1.00
C114   C     0.75271   0.06941   0.49353   0.00000  Uiso   1.00
C115   C     0.70605   0.10156   0.52503   0.00000  Uiso   1.00
H116   H     0.85688   0.24817   0.64847   0.00000  Uiso   1.00
H117   H     0.91055   0.11405   0.72035   0.00000  Uiso   1.00
H118   H     0.90597   0.39736   0.58432   0.00000  Uiso   1.00
H119   H     0.75430   0.25125   0.65697   0.00000  Uiso   1.00
H120   H     0.96981   0.93684   0.77439   0.00000  Uiso   1.00
H121   H     0.96015   0.53423   0.48757   0.00000  Uiso   1.00
H122   H     0.64031   0.22614   0.64075   0.00000  Uiso   1.00
H123   H     0.85498   0.02834   0.45087   0.00000  Uiso   1.00
H124   H     0.90854   0.88215   0.51191   0.00000  Uiso   1.00
H125   H     0.90396   0.16546   0.37589   0.00000  Uiso   1.00
H126   H     0.75229   0.01935   0.44853   0.00000  Uiso   1.00
H127   H     0.96818   0.74862   0.60522   0.00000  Uiso   1.00
H128   H     0.95852   0.34602   0.31839   0.00000  Uiso   1.00
H129   H     0.63868   0.03792   0.47158   0.00000  Uiso   1.00
O130   O     0.00428   0.75055   0.73352   0.00000  Uiso   1.00
O131   O     0.99159   0.53431   0.35721   0.00000  Uiso   1.00
O132   O     0.57198   0.13009   0.55819   0.00000  Uiso   1.00
N133   N     0.96207   0.91260   0.72620   0.00000  Uiso   1.00
N134   N     0.95304   0.47111   0.45804   0.00000  Uiso   1.00
N135   N     0.65402   0.18309   0.60125   0.00000  Uiso   1.00
N136   N     0.96119   0.81132   0.63517   0.00000  Uiso   1.00
N137   N     0.95217   0.36984   0.36701   0.00000  Uiso   1.00
N138   N     0.65314   0.08181   0.51022   0.00000  Uiso   1.00
C139   C     0.64355   0.80220   0.10320   0.00000  Uiso   1.00
C140   C     0.61467   0.90556   0.11486   0.00000  Uiso   1.00
C141   C     0.58988   0.93604   0.17536   0.00000  Uiso   1.00
C142   C     0.56565   0.03362   0.17567   0.00000  Uiso   1.00
C143   C     0.52068   0.18425   0.20260   0.00000  Uiso   1.00
C144   C     0.61714   0.75163   0.04095   0.00000  Uiso   1.00
C145   C     0.59445   0.65269   0.03932   0.00000  Uiso   1.00
C146   C     0.57231   0.62069   0.97740   0.00000  Uiso   1.00
C147   C     0.53123   0.53231   0.88958   0.00000  Uiso   1.00
C148   C     0.69955   0.83102   0.08043   0.00000  Uiso   1.00
C149   C     0.74615   0.79881   0.11197   0.00000  Uiso   1.00
C150   C     0.79339   0.83364   0.08328   0.00000  Uiso   1.00
C151   C     0.88026   0.86853   0.05675   0.00000  Uiso   1.00
C152   C     0.64459   0.92130   0.99615   0.00000  Uiso   1.00
C153   C     0.61523   0.97024   0.05671   0.00000  Uiso   1.00
C154   C     0.59102   0.06781   0.05692   0.00000  Uiso   1.00
C155   C     0.56621   0.09843   0.11742   0.00000  Uiso   1.00
C156   C     0.61770   0.81632   0.98280   0.00000  Uiso   1.00
C157   C     0.59559   0.78446   0.92088   0.00000  Uiso   1.00
C158   C     0.57287   0.68550   0.91915   0.00000  Uiso   1.00
C159   C     0.70011   0.89571   0.02228   0.00000  Uiso   1.00
C160   C     0.74729   0.93059   0.99353   0.00000  Uiso   1.00
C161   C     0.79395   0.89844   0.02503   0.00000  Uiso   1.00
H162   H     0.64312   0.75183   0.14847   0.00000  Uiso   1.00
H163   H     0.58945   0.88595   0.22035   0.00000  Uiso   1.00
H164   H     0.59403   0.60264   0.08432   0.00000  Uiso   1.00
H165   H     0.74570   0.74875   0.15697   0.00000  Uiso   1.00
H166   H     0.53019   0.06316   0.27439   0.00000  Uiso   1.00
H167   H     0.53985   0.46577   0.98757   0.00000  Uiso   1.00
H168   H     0.85969   0.77386   0.14075   0.00000  Uiso   1.00
H169   H     0.64502   0.97166   0.95087   0.00000  Uiso   1.00
H170   H     0.59146   0.11785   0.01191   0.00000  Uiso   1.00
H171   H     0.59604   0.83454   0.87589   0.00000  Uiso   1.00
H172   H     0.74771   0.98065   0.94853   0.00000  Uiso   1.00
H173   H     0.53182   0.25138   0.10522   0.00000  Uiso   1.00
H174   H     0.54148   0.65398   0.81839   0.00000  Uiso   1.00
H175   H     0.86132   0.96208   0.97158   0.00000  Uiso   1.00
O176   O     0.49572   0.24945   0.23352   0.00000  Uiso   1.00
O177   O     0.50841   0.46569   0.85721   0.00000  Uiso   1.00
O178   O     0.92802   0.86991   0.05819   0.00000  Uiso   1.00
N179   N     0.53793   0.08740   0.22620   0.00000  Uiso   1.00
N180   N     0.54696   0.52889   0.95804   0.00000  Uiso   1.00
N181   N     0.84598   0.81691   0.10125   0.00000  Uiso   1.00
N182   N     0.53881   0.18868   0.13517   0.00000  Uiso   1.00
N183   N     0.54783   0.63016   0.86701   0.00000  Uiso   1.00
N184   N     0.84686   0.91819   0.01022   0.00000  Uiso   1.00
C185   C     0.85645   0.30220   0.10320   0.00000  Uiso   1.00
C186   C     0.88533   0.40556   0.11486   0.00000  Uiso   1.00
C187   C     0.91012   0.43604   0.17536   0.00000  Uiso   1.00
C188   C     0.93435   0.53362   0.17567   0.00000  Uiso   1.00
C189   C     0.97932   0.68425   0.20260   0.00000  Uiso   1.00
C190   C     0.88286   0.25163   0.04095   0.00000  Uiso   1.00
C191   C     0.90555   0.15269   0.03932   0.00000  Uiso   1.00
C192   C     0.92769   0.12069   0.97740   0.00000  Uiso   1.00
C193   C     0.96877   0.03231   0.88958   0.00000  Uiso   1.00
C194   C     0.80045   0.33102   0.08043   0.00000  Uiso   1.00
C195   C     0.75385   0.29881   0.11197   0.00000  Uiso   1.00
C196   C     0.70661   0.33364   0.08328   0.00000  Uiso   1.00
C197   C     0.61974   0.36853   0.05675   0.00000  Uiso   1.00
C198   C     0.85541   0.42130   0.99615   0.00000  Uiso   1.00
C199   C     0.88477   0.47024   0.05671   0.00000  Uiso   1.00
C200   C     0.90898   0.56781   0.05692   0.00000  Uiso   1.00
C201   C     0.93379   0.59843   0.11742   0.00000  Uiso   1.00
C202   C     0.88230   0.31632   0.98280   0.00000  Uiso   1.00
C203   C     0.90441   0.28446   0.92088   0.00000  Uiso   1.00
C204   C     0.92713   0.18550   0.91915   0.00000  Uiso   1.00
C205   C     0.79989   0.39571   0.02228   0.00000  Uiso   1.00
C206   C     0.75271   0.43059   0.99353   0.00000  Uiso   1.00
C207   C     0.70605   0.39844   0.02503   0.00000  Uiso   1.00
H208   H     0.85688   0.25183   0.14847   0.00000  Uiso   1.00
H209   H     0.91055   0.38595   0.22035   0.00000  Uiso   1.00
H210   H     0.90597   0.10264   0.08432   0.00000  Uiso   1.00
H211   H     0.75430   0.24875   0.15697   0.00000  Uiso   1.00
H212   H     0.96981   0.56316   0.27439   0.00000  Uiso   1.00
H213   H     0.96015   0.96577   0.98757   0.00000  Uiso   1.00
H214   H     0.64031   0.27386   0.14075   0.00000  Uiso   1.00
H215   H     0.85498   0.47166   0.95087   0.00000  Uiso   1.00
H216   H     0.90854   0.61785   0.01191   0.00000  Uiso   1.00
H217   H     0.90396   0.33454   0.87589   0.00000  Uiso   1.00
H218   H     0.75229   0.48065   0.94853   0.00000  Uiso   1.00
H219   H     0.96818   0.75138   0.10522   0.00000  Uiso   1.00
H220   H     0.95852   0.15398   0.81839   0.00000  Uiso   1.00
H221   H     0.63868   0.46208   0.97158   0.00000  Uiso   1.00
O222   O     0.00428   0.74945   0.23352   0.00000  Uiso   1.00
O223   O     0.99159   0.96569   0.85721   0.00000  Uiso   1.00
O224   O     0.57198   0.36991   0.05819   0.00000  Uiso   1.00
N225   N     0.96207   0.58740   0.22620   0.00000  Uiso   1.00
N226   N     0.95304   0.02889   0.95804   0.00000  Uiso   1.00
N227   N     0.65402   0.31691   0.10125   0.00000  Uiso   1.00
N228   N     0.96119   0.68868   0.13517   0.00000  Uiso   1.00
N229   N     0.95217   0.13016   0.86701   0.00000  Uiso   1.00
N230   N     0.65314   0.41819   0.01022   0.00000  Uiso   1.00
C231   C     0.64355   0.69780   0.60320   0.00000  Uiso   1.00
C232   C     0.61467   0.59444   0.61486   0.00000  Uiso   1.00
C233   C     0.58988   0.56396   0.67536   0.00000  Uiso   1.00
C234   C     0.56565   0.46638   0.67567   0.00000  Uiso   1.00
C235   C     0.52068   0.31575   0.70260   0.00000  Uiso   1.00
C236   C     0.61714   0.74837   0.54095   0.00000  Uiso   1.00
C237   C     0.59445   0.84731   0.53932   0.00000  Uiso   1.00
C238   C     0.57231   0.87931   0.47740   0.00000  Uiso   1.00
C239   C     0.53123   0.96769   0.38958   0.00000  Uiso   1.00
C240   C     0.69955   0.66898   0.58043   0.00000  Uiso   1.00
C241   C     0.74615   0.70119   0.61197   0.00000  Uiso   1.00
C242   C     0.79339   0.66636   0.58328   0.00000  Uiso   1.00
C243   C     0.88026   0.63147   0.55675   0.00000  Uiso   1.00
C244   C     0.64459   0.57870   0.49615   0.00000  Uiso   1.00
C245   C     0.61523   0.52976   0.55671   0.00000  Uiso   1.00
C246   C     0.59102   0.43219   0.55692   0.00000  Uiso   1.00
C247   C     0.56621   0.40157   0.61742   0.00000  Uiso   1.00
C248   C     0.61770   0.68368   0.48280   0.00000  Uiso   1.00
C249   C     0.59559   0.71554   0.42088   0.00000  Uiso   1.00
C250   C     0.57287   0.81450   0.41915   0.00000  Uiso   1.00
C251   C     0.70011   0.60429   0.52228   0.00000  Uiso   1.00
C252   C     0.74729   0.56941   0.49353   0.00000  Uiso   1.00
C253   C     0.79395   0.60156   0.52503   0.00000  Uiso   1.00
H254   H     0.64312   0.74817   0.64847   0.00000  Uiso   1.00
H255   H     0.58945   0.61405   0.72035   0.00000  Uiso   1.00
H256   H     0.59403   0.89736   0.58432   0.00000  Uiso   1.00
H257   H     0.74570   0.75125   0.65697   0.00000  Uiso   1.00
H258   H     0.53019   0.43684   0.77439   0.00000  Uiso   1.00
H259   H     0.53985   0.03423   0.48757   0.00000  Uiso   1.00
H260   H     0.85969   0.72614   0.64075   0.00000  Uiso   1.00
H261   H     0.64502   0.52834   0.45087   0.00000  Uiso   1.00
H262   H     0.59146   0.38215   0.51191   0.00000  Uiso   1.00
H263   H     0.59604   0.66546   0.37589   0.00000  Uiso   1.00
H264   H     0.74771   0.51935   0.44853   0.00000  Uiso   1.00
H265   H     0.53182   0.24862   0.60522   0.00000  Uiso   1.00
H266   H     0.54148   0.84602   0.31839   0.00000  Uiso   1.00
H267   H     0.86132   0.53792   0.47158   0.00000  Uiso   1.00
O268   O     0.49572   0.25055   0.73352   0.00000  Uiso   1.00
O269   O     0.50841   0.03431   0.35721   0.00000  Uiso   1.00
O270   O     0.92802   0.63009   0.55819   0.00000  Uiso   1.00
N271   N     0.53793   0.41260   0.72620   0.00000  Uiso   1.00
N272   N     0.54696   0.97111   0.45804   0.00000  Uiso   1.00
N273   N     0.84598   0.68309   0.60125   0.00000  Uiso   1.00
N274   N     0.53881   0.31132   0.63517   0.00000  Uiso   1.00
N275   N     0.54783   0.86984   0.36701   0.00000  Uiso   1.00
N276   N     0.84686   0.58181   0.51022   0.00000  Uiso   1.00
C277   C     0.14355   0.80220   0.39680   0.00000  Uiso   1.00
C278   C     0.11467   0.90556   0.38514   0.00000  Uiso   1.00
C279   C     0.08988   0.93604   0.32464   0.00000  Uiso   1.00
C280   C     0.06565   0.03362   0.32433   0.00000  Uiso   1.00
C281   C     0.02068   0.18425   0.29740   0.00000  Uiso   1.00
C282   C     0.11714   0.75163   0.45905   0.00000  Uiso   1.00
C283   C     0.09445   0.65269   0.46068   0.00000  Uiso   1.00
C284   C     0.07231   0.62069   0.52260   0.00000  Uiso   1.00
C285   C     0.03123   0.53231   0.61042   0.00000  Uiso   1.00
C286   C     0.19955   0.83102   0.41957   0.00000  Uiso   1.00
C287   C     0.24615   0.79881   0.38803   0.00000  Uiso   1.00
C288   C     0.29339   0.83364   0.41672   0.00000  Uiso   1.00
C289   C     0.38026   0.86853   0.44325   0.00000  Uiso   1.00
C290   C     0.14459   0.92130   0.50385   0.00000  Uiso   1.00
C291   C     0.11523   0.97024   0.44329   0.00000  Uiso   1.00
C292   C     0.09102   0.06781   0.44308   0.00000  Uiso   1.00
C293   C     0.06621   0.09843   0.38258   0.00000  Uiso   1.00
C294   C     0.11770   0.81632   0.51720   0.00000  Uiso   1.00
C295   C     0.09559   0.78446   0.57912   0.00000  Uiso   1.00
C296   C     0.07287   0.68550   0.58085   0.00000  Uiso   1.00
C297   C     0.20011   0.89571   0.47772   0.00000  Uiso   1.00
C298   C     0.24729   0.93059   0.50647   0.00000  Uiso   1.00
C299   C     0.29395   0.89844   0.47497   0.00000  Uiso   1.00
H300   H     0.14312   0.75183   0.35153   0.00000  Uiso   1.00
H301   H     0.08945   0.88595   0.27965   0.00000  Uiso   1.00
H302   H     0.09403   0.60264   0.41568   0.00000  Uiso   1.00
H303   H     0.24570   0.74875   0.34303   0.00000  Uiso   1.00
H304   H     0.03019   0.06316   0.22561   0.00000  Uiso   1.00
H305   H     0.03985   0.46577   0.51243   0.00000  Uiso   1.00
H306   H     0.35969   0.77386   0.35925   0.00000  Uiso   1.00
H307   H     0.14502   0.97166   0.54913   0.00000  Uiso   1.00
H308   H     0.09146   0.11785   0.48809   0.00000  Uiso   1.00
H309   H     0.09604   0.83454   0.62411   0.00000  Uiso   1.00
H310   H     0.24771   0.98065   0.55147   0.00000  Uiso   1.00
H311   H     0.03182   0.25138   0.39478   0.00000  Uiso   1.00
H312   H     0.04148   0.65398   0.68161   0.00000  Uiso   1.00
H313   H     0.36132   0.96208   0.52842   0.00000  Uiso   1.00
O314   O     0.99572   0.24945   0.26648   0.00000  Uiso   1.00
O315   O     0.00841   0.46569   0.64279   0.00000  Uiso   1.00
O316   O     0.42802   0.86991   0.44181   0.00000  Uiso   1.00
N317   N     0.03793   0.08740   0.27380   0.00000  Uiso   1.00
N318   N     0.04696   0.52889   0.54196   0.00000  Uiso   1.00
N319   N     0.34598   0.81691   0.39875   0.00000  Uiso   1.00
N320   N     0.03881   0.18868   0.36483   0.00000  Uiso   1.00
N321   N     0.04783   0.63016   0.63299   0.00000  Uiso   1.00
N322   N     0.34686   0.91819   0.48978   0.00000  Uiso   1.00
C323   C     0.35645   0.19780   0.89680   0.00000  Uiso   1.00
C324   C     0.38533   0.09444   0.88514   0.00000  Uiso   1.00
C325   C     0.41012   0.06396   0.82464   0.00000  Uiso   1.00
C326   C     0.43435   0.96638   0.82433   0.00000  Uiso   1.00
C327   C     0.47932   0.81575   0.79740   0.00000  Uiso   1.00
C328   C     0.38286   0.24837   0.95905   0.00000  Uiso   1.00
C329   C     0.40555   0.34731   0.96068   0.00000  Uiso   1.00
C330   C     0.42769   0.37931   0.02260   0.00000  Uiso   1.00
C331   C     0.46877   0.46769   0.11042   0.00000  Uiso   1.00
C332   C     0.30045   0.16898   0.91957   0.00000  Uiso   1.00
C333   C     0.25385   0.20119   0.88803   0.00000  Uiso   1.00
C334   C     0.20661   0.16636   0.91672   0.00000  Uiso   1.00
C335   C     0.11974   0.13147   0.94325   0.00000  Uiso   1.00
C336   C     0.35541   0.07870   0.00385   0.00000  Uiso   1.00
C337   C     0.38477   0.02976   0.94329   0.00000  Uiso   1.00
C338   C     0.40898   0.93219   0.94308   0.00000  Uiso   1.00
C339   C     0.43379   0.90157   0.88258   0.00000  Uiso   1.00
C340   C     0.38230   0.18368   0.01720   0.00000  Uiso   1.00
C341   C     0.40441   0.21554   0.07912   0.00000  Uiso   1.00
C342   C     0.42713   0.31450   0.08085   0.00000  Uiso   1.00
C343   C     0.29989   0.10429   0.97772   0.00000  Uiso   1.00
C344   C     0.25271   0.06941   0.00647   0.00000  Uiso   1.00
C345   C     0.20605   0.10156   0.97497   0.00000  Uiso   1.00
H346   H     0.35688   0.24817   0.85153   0.00000  Uiso   1.00
H347   H     0.41055   0.11405   0.77965   0.00000  Uiso   1.00
H348   H     0.40597   0.39736   0.91568   0.00000  Uiso   1.00
H349   H     0.25430   0.25125   0.84303   0.00000  Uiso   1.00
H350   H     0.46981   0.93684   0.72561   0.00000  Uiso   1.00
H351   H     0.46015   0.53423   0.01243   0.00000  Uiso   1.00
H352   H     0.14031   0.22614   0.85925   0.00000  Uiso   1.00
H353   H     0.35498   0.02834   0.04913   0.00000  Uiso   1.00
H354   H     0.40854   0.88215   0.98809   0.00000  Uiso   1.00
H355   H     0.40396   0.16546   0.12411   0.00000  Uiso   1.00
H356   H     0.25229   0.01935   0.05147   0.00000  Uiso   1.00
H357   H     0.46818   0.74862   0.89478   0.00000  Uiso   1.00
H358   H     0.45852   0.34602   0.18161   0.00000  Uiso   1.00
H359   H     0.13868   0.03792   0.02842   0.00000  Uiso   1.00
O360   O     0.50428   0.75055   0.76648   0.00000  Uiso   1.00
O361   O     0.49159   0.53431   0.14279   0.00000  Uiso   1.00
O362   O     0.07198   0.13009   0.94181   0.00000  Uiso   1.00
N363   N     0.46207   0.91260   0.77380   0.00000  Uiso   1.00
N364   N     0.45304   0.47111   0.04196   0.00000  Uiso   1.00
N365   N     0.15402   0.18309   0.89875   0.00000  Uiso   1.00
N366   N     0.46119   0.81132   0.86483   0.00000  Uiso   1.00
N367   N     0.45217   0.36984   0.13299   0.00000  Uiso   1.00
N368   N     0.15314   0.08181   0.98978   0.00000  Uiso   1.00
