data_job_07107
_audit_creation_date              2018-12-19
_audit_creation_method            'Materials Studio'
_symmetry_space_group_name_H-M    'P1'
_symmetry_Int_Tables_number       1
_symmetry_cell_setting            triclinic
loop_
_symmetry_equiv_pos_as_xyz
  x,y,z
_cell_length_a                    24.4434
_cell_length_b                    24.9294
_cell_length_c                    23.9565
_cell_angle_alpha                 96.5934
_cell_angle_beta                  95.6664
_cell_angle_gamma                 94.9923
loop_
_atom_site_label
_atom_site_type_symbol
_atom_site_fract_x
_atom_site_fract_y
_atom_site_fract_z
_atom_site_U_iso_or_equiv
_atom_site_adp_type
_atom_site_occupancy
C1     C     0.23962   0.57830   0.50925   0.00000  Uiso   1.00
C2     C     0.22439   0.63450   0.53054   0.00000  Uiso   1.00
C3     C     0.17928   0.65885   0.50903   0.00000  Uiso   1.00
C4     C     0.17252   0.71045   0.53433   0.00000  Uiso   1.00
C5     C     0.14326   0.79373   0.56050   0.00000  Uiso   1.00
C6     C     0.29858   0.58660   0.49390   0.00000  Uiso   1.00
C7     C     0.31585   0.57067   0.44158   0.00000  Uiso   1.00
C8     C     0.37155   0.58195   0.43605   0.00000  Uiso   1.00
C9     C     0.45747   0.59083   0.40534   0.00000  Uiso   1.00
C10    C     0.24264   0.54695   0.56033   0.00000  Uiso   1.00
C11    C     0.21288   0.49767   0.56386   0.00000  Uiso   1.00
C12    C     0.22148   0.47556   0.61424   0.00000  Uiso   1.00
C13    C     0.22054   0.42287   0.68666   0.00000  Uiso   1.00
C14    C     0.30783   0.62666   0.59245   0.00000  Uiso   1.00
C15    C     0.26144   0.66076   0.57573   0.00000  Uiso   1.00
C16    C     0.25475   0.71235   0.60108   0.00000  Uiso   1.00
C17    C     0.20964   0.73677   0.57961   0.00000  Uiso   1.00
C18    C     0.33563   0.61287   0.53909   0.00000  Uiso   1.00
C19    C     0.39132   0.62417   0.53363   0.00000  Uiso   1.00
C20    C     0.40867   0.60826   0.48132   0.00000  Uiso   1.00
C21    C     0.27968   0.57321   0.60552   0.00000  Uiso   1.00
C22    C     0.28834   0.55117   0.65590   0.00000  Uiso   1.00
C23    C     0.25860   0.50187   0.65951   0.00000  Uiso   1.00
H24    H     0.21078   0.55786   0.47407   0.00000  Uiso   1.00
H25    H     0.15062   0.63851   0.47405   0.00000  Uiso   1.00
H26    H     0.28717   0.55034   0.40663   0.00000  Uiso   1.00
H27    H     0.18421   0.47736   0.52888   0.00000  Uiso   1.00
H28    H     0.10028   0.73952   0.49395   0.00000  Uiso   1.00
H29    H     0.38820   0.55360   0.35178   0.00000  Uiso   1.00
H30    H     0.17109   0.39969   0.60957   0.00000  Uiso   1.00
H31    H     0.33668   0.64711   0.62763   0.00000  Uiso   1.00
H32    H     0.28343   0.73266   0.63605   0.00000  Uiso   1.00
H33    H     0.41998   0.64449   0.56861   0.00000  Uiso   1.00
H34    H     0.31702   0.57151   0.69086   0.00000  Uiso   1.00
H35    H     0.20807   0.81594   0.62543   0.00000  Uiso   1.00
H36    H     0.49599   0.63001   0.48325   0.00000  Uiso   1.00
H37    H     0.27888   0.47611   0.74104   0.00000  Uiso   1.00
O38    O     0.11688   0.83241   0.56244   0.00000  Uiso   1.00
O39    O     0.49463   0.58847   0.37591   0.00000  Uiso   1.00
O40    O     0.20978   0.38655   0.71413   0.00000  Uiso   1.00
N41    N     0.13295   0.74576   0.52375   0.00000  Uiso   1.00
N42    N     0.40214   0.57194   0.39082   0.00000  Uiso   1.00
N43    N     0.19916   0.42804   0.63183   0.00000  Uiso   1.00
N44    N     0.19095   0.78688   0.59449   0.00000  Uiso   1.00
N45    N     0.46014   0.61306   0.46156   0.00000  Uiso   1.00
N46    N     0.25717   0.46916   0.70257   0.00000  Uiso   1.00
C47    C     0.62817   0.22794   0.53135   0.00000  Uiso   1.00
C48    C     0.63291   0.21600   0.59256   0.00000  Uiso   1.00
C49    C     0.60472   0.17279   0.61277   0.00000  Uiso   1.00
C50    C     0.61473   0.16895   0.67017   0.00000  Uiso   1.00
C51    C     0.61646   0.14464   0.75977   0.00000  Uiso   1.00
C52    C     0.61143   0.28554   0.53248   0.00000  Uiso   1.00
C53    C     0.56519   0.30080   0.50216   0.00000  Uiso   1.00
C54    C     0.55713   0.35551   0.50897   0.00000  Uiso   1.00
C55    C     0.52554   0.43916   0.50526   0.00000  Uiso   1.00
C56    C     0.68670   0.23028   0.51424   0.00000  Uiso   1.00
C57    C     0.70375   0.19909   0.46857   0.00000  Uiso   1.00
C58    C     0.75906   0.20729   0.46002   0.00000  Uiso   1.00
C59    C     0.84433   0.20515   0.42799   0.00000  Uiso   1.00
C60    C     0.69608   0.29797   0.59735   0.00000  Uiso   1.00
C61    C     0.66980   0.25404   0.62841   0.00000  Uiso   1.00
C62    C     0.67986   0.25027   0.68580   0.00000  Uiso   1.00
C63    C     0.65169   0.20706   0.70608   0.00000  Uiso   1.00
C64    C     0.64832   0.32358   0.56833   0.00000  Uiso   1.00
C65    C     0.64033   0.37828   0.57518   0.00000  Uiso   1.00
C66    C     0.59408   0.39362   0.54489   0.00000  Uiso   1.00
C67    C     0.72359   0.26832   0.55009   0.00000  Uiso   1.00
C68    C     0.77889   0.27658   0.54160   0.00000  Uiso   1.00
C69    C     0.79601   0.24540   0.49594   0.00000  Uiso   1.00
H70    H     0.59945   0.19833   0.50343   0.00000  Uiso   1.00
H71    H     0.57617   0.14336   0.58501   0.00000  Uiso   1.00
H72    H     0.53665   0.27135   0.47441   0.00000  Uiso   1.00
H73    H     0.67519   0.16966   0.44084   0.00000  Uiso   1.00
H74    H     0.56662   0.09920   0.69127   0.00000  Uiso   1.00
H75    H     0.48330   0.36908   0.45805   0.00000  Uiso   1.00
H76    H     0.77543   0.15465   0.38724   0.00000  Uiso   1.00
H77    H     0.72480   0.32759   0.62527   0.00000  Uiso   1.00
H78    H     0.70841   0.27971   0.71353   0.00000  Uiso   1.00
H79    H     0.66889   0.40771   0.60293   0.00000  Uiso   1.00
H80    H     0.80742   0.30602   0.56936   0.00000  Uiso   1.00
H81    H     0.67394   0.20987   0.79558   0.00000  Uiso   1.00
H82    H     0.59062   0.47976   0.56236   0.00000  Uiso   1.00
H83    H     0.88275   0.26532   0.49156   0.00000  Uiso   1.00
O84    O     0.60722   0.12072   0.79929   0.00000  Uiso   1.00
O85    O     0.49791   0.47480   0.49331   0.00000  Uiso   1.00
O86    O     0.88118   0.19346   0.40042   0.00000  Uiso   1.00
N87    N     0.59414   0.13181   0.70370   0.00000  Uiso   1.00
N88    N     0.51623   0.38414   0.48566   0.00000  Uiso   1.00
N89    N     0.78935   0.18367   0.41946   0.00000  Uiso   1.00
N90    N     0.65189   0.19136   0.75983   0.00000  Uiso   1.00
N91    N     0.57398   0.44369   0.54179   0.00000  Uiso   1.00
N92    N     0.84710   0.24322   0.47559   0.00000  Uiso   1.00
C93    C     0.59578   0.61076   0.08165   0.00000  Uiso   1.00
C94    C     0.65358   0.59548   0.09882   0.00000  Uiso   1.00
C95    C     0.68165   0.55858   0.06771   0.00000  Uiso   1.00
C96    C     0.73415   0.55021   0.09071   0.00000  Uiso   1.00
C97    C     0.82031   0.52226   0.10944   0.00000  Uiso   1.00
C98    C     0.56190   0.59937   0.12989   0.00000  Uiso   1.00
C99    C     0.51289   0.56575   0.12489   0.00000  Uiso   1.00
C100   C     0.48822   0.56066   0.17405   0.00000  Uiso   1.00
C101   C     0.43202   0.53878   0.24101   0.00000  Uiso   1.00
C102   C     0.60155   0.67222   0.08215   0.00000  Uiso   1.00
C103   C     0.58585   0.69986   0.03702   0.00000  Uiso   1.00
C104   C     0.59455   0.75611   0.04599   0.00000  Uiso   1.00
C105   C     0.59991   0.84735   0.03883   0.00000  Uiso   1.00
C106   C     0.63911   0.66152   0.17783   0.00000  Uiso   1.00
C107   C     0.67711   0.62304   0.15107   0.00000  Uiso   1.00
C108   C     0.72959   0.61473   0.17412   0.00000  Uiso   1.00
C109   C     0.75773   0.57783   0.14305   0.00000  Uiso   1.00
C110   C     0.58544   0.62693   0.18213   0.00000  Uiso   1.00
C111   C     0.56083   0.62190   0.23131   0.00000  Uiso   1.00
C112   C     0.51179   0.58828   0.22639   0.00000  Uiso   1.00
C113   C     0.62509   0.69979   0.13440   0.00000  Uiso   1.00
C114   C     0.63380   0.75601   0.14344   0.00000  Uiso   1.00
C115   C     0.61813   0.78373   0.09833   0.00000  Uiso   1.00
H116   H     0.57745   0.58930   0.04098   0.00000  Uiso   1.00
H117   H     0.66341   0.53725   0.02728   0.00000  Uiso   1.00
H118   H     0.49468   0.54442   0.08446   0.00000  Uiso   1.00
H119   H     0.56764   0.67851   0.99660   0.00000  Uiso   1.00
H120   H     0.76909   0.49168   0.03514   0.00000  Uiso   1.00
H121   H     0.41330   0.50682   0.15570   0.00000  Uiso   1.00
H122   H     0.56715   0.78958   0.97043   0.00000  Uiso   1.00
H123   H     0.65744   0.68298   0.21851   0.00000  Uiso   1.00
H124   H     0.74779   0.63607   0.21455   0.00000  Uiso   1.00
H125   H     0.57906   0.64324   0.27173   0.00000  Uiso   1.00
H126   H     0.65202   0.77733   0.18387   0.00000  Uiso   1.00
H127   H     0.83758   0.57189   0.18714   0.00000  Uiso   1.00
H128   H     0.48178   0.58703   0.30770   0.00000  Uiso   1.00
H129   H     0.63563   0.86978   0.12243   0.00000  Uiso   1.00
O130   O     0.86132   0.49922   0.10535   0.00000  Uiso   1.00
O131   O     0.39453   0.51909   0.26351   0.00000  Uiso   1.00
O132   O     0.59638   0.89006   0.02044   0.00000  Uiso   1.00
N133   N     0.77282   0.51701   0.07145   0.00000  Uiso   1.00
N134   N     0.44017   0.53115   0.18417   0.00000  Uiso   1.00
N135   N     0.58399   0.79551   0.01096   0.00000  Uiso   1.00
N136   N     0.80967   0.56016   0.15324   0.00000  Uiso   1.00
N137   N     0.47702   0.57431   0.26596   0.00000  Uiso   1.00
N138   N     0.62084   0.83866   0.09275   0.00000  Uiso   1.00
C139   C     0.75165   0.01820   0.02057   0.00000  Uiso   1.00
C140   C     0.73354   0.02771   0.07972   0.00000  Uiso   1.00
C141   C     0.69053   0.99803   0.09968   0.00000  Uiso   1.00
C142   C     0.68051   0.01308   0.15507   0.00000  Uiso   1.00
C143   C     0.64756   0.02125   0.24174   0.00000  Uiso   1.00
C144   C     0.81274   0.00944   0.02881   0.00000  Uiso   1.00
C145   C     0.83633   0.96442   0.00594   0.00000  Uiso   1.00
C146   C     0.89298   0.96411   0.01846   0.00000  Uiso   1.00
C147   C     0.98300   0.94394   0.02605   0.00000  Uiso   1.00
C148   C     0.74886   0.07194   0.99627   0.00000  Uiso   1.00
C149   C     0.71875   0.07946   0.94604   0.00000  Uiso   1.00
C150   C     0.72162   0.13177   0.93116   0.00000  Uiso   1.00
C151   C     0.71246   0.20864   0.88822   0.00000  Uiso   1.00
C152   C     0.81031   0.09771   0.08346   0.00000  Uiso   1.00
C153   C     0.76541   0.07089   0.11388   0.00000  Uiso   1.00
C154   C     0.75544   0.08599   0.16926   0.00000  Uiso   1.00
C155   C     0.71243   0.05635   0.18929   0.00000  Uiso   1.00
C156   C     0.84461   0.05263   0.06296   0.00000  Uiso   1.00
C157   C     0.90124   0.05238   0.07552   0.00000  Uiso   1.00
C158   C     0.92490   0.00737   0.05268   0.00000  Uiso   1.00
C159   C     0.78073   0.11513   0.03043   0.00000  Uiso   1.00
C160   C     0.78365   0.16743   0.01562   0.00000  Uiso   1.00
C161   C     0.75355   0.17503   0.96538   0.00000  Uiso   1.00
H162   H     0.72684   0.98458   0.99397   0.00000  Uiso   1.00
H163   H     0.66589   0.96461   0.07323   0.00000  Uiso   1.00
H164   H     0.81166   0.93101   0.97950   0.00000  Uiso   1.00
H165   H     0.69409   0.04604   0.91961   0.00000  Uiso   1.00
H166   H     0.61237   0.96150   0.17617   0.00000  Uiso   1.00
H167   H     0.91974   0.89066   0.97853   0.00000  Uiso   1.00
H168   H     0.67184   0.13321   0.85224   0.00000  Uiso   1.00
H169   H     0.83512   0.13133   0.11005   0.00000  Uiso   1.00
H170   H     0.78011   0.11941   0.19568   0.00000  Uiso   1.00
H171   H     0.92588   0.08581   0.10195   0.00000  Uiso   1.00
H172   H     0.80832   0.20084   0.04206   0.00000  Uiso   1.00
H173   H     0.70508   0.08714   0.27556   0.00000  Uiso   1.00
H174   H     0.01246   0.01630   0.07791   0.00000  Uiso   1.00
H175   H     0.76455   0.25886   0.95163   0.00000  Uiso   1.00
O176   O     0.62060   0.01382   0.28011   0.00000  Uiso   1.00
O177   O     0.02386   0.92088   0.02080   0.00000  Uiso   1.00
O178   O     0.69860   0.23911   0.85511   0.00000  Uiso   1.00
N179   N     0.64173   0.99271   0.18781   0.00000  Uiso   1.00
N180   N     0.92911   0.92647   0.00303   0.00000  Uiso   1.00
N181   N     0.69735   0.15324   0.88495   0.00000  Uiso   1.00
N182   N     0.69162   0.06032   0.24129   0.00000  Uiso   1.00
N183   N     0.97899   0.99408   0.05651   0.00000  Uiso   1.00
N184   N     0.74723   0.22085   0.93843   0.00000  Uiso   1.00
C185   C     0.13331   0.07934   0.68667   0.00000  Uiso   1.00
C186   C     0.13897   0.13862   0.67607   0.00000  Uiso   1.00
C187   C     0.11112   0.15994   0.63169   0.00000  Uiso   1.00
C188   C     0.12198   0.21520   0.62943   0.00000  Uiso   1.00
C189   C     0.12506   0.30228   0.60680   0.00000  Uiso   1.00
C190   C     0.11664   0.07926   0.74635   0.00000  Uiso   1.00
C191   C     0.07003   0.05066   0.76106   0.00000  Uiso   1.00
C192   C     0.06211   0.05594   0.81795   0.00000  Uiso   1.00
C193   C     0.03055   0.05083   0.90443   0.00000  Uiso   1.00
C194   C     0.19147   0.06140   0.68891   0.00000  Uiso   1.00
C195   C     0.20778   0.01778   0.65534   0.00000  Uiso   1.00
C196   C     0.26286   0.00802   0.66389   0.00000  Uiso   1.00
C197   C     0.34749   0.97519   0.66119   0.00000  Uiso   1.00
C198   C     0.20213   0.13956   0.76155   0.00000  Uiso   1.00
C199   C     0.17634   0.17133   0.71675   0.00000  Uiso   1.00
C200   C     0.18726   0.22657   0.71454   0.00000  Uiso   1.00
C201   C     0.15943   0.24797   0.67017   0.00000  Uiso   1.00
C202   C     0.15402   0.11196   0.78702   0.00000  Uiso   1.00
C203   C     0.14617   0.11729   0.84391   0.00000  Uiso   1.00
C204   C     0.09956   0.08871   0.85870   0.00000  Uiso   1.00
C205   C     0.22885   0.09411   0.72959   0.00000  Uiso   1.00
C206   C     0.28392   0.08441   0.73819   0.00000  Uiso   1.00
C207   C     0.30031   0.04079   0.70464   0.00000  Uiso   1.00
H208   H     0.10421   0.05387   0.65501   0.00000  Uiso   1.00
H209   H     0.08219   0.13462   0.60023   0.00000  Uiso   1.00
H210   H     0.04112   0.02534   0.72957   0.00000  Uiso   1.00
H211   H     0.17884   0.99248   0.62387   0.00000  Uiso   1.00
H212   H     0.07425   0.23857   0.55745   0.00000  Uiso   1.00
H213   H     0.98765   0.00815   0.83018   0.00000  Uiso   1.00
H214   H     0.27808   0.93884   0.60729   0.00000  Uiso   1.00
H215   H     0.23123   0.16502   0.79322   0.00000  Uiso   1.00
H216   H     0.21618   0.25187   0.74602   0.00000  Uiso   1.00
H217   H     0.17510   0.14260   0.87537   0.00000  Uiso   1.00
H218   H     0.31283   0.10973   0.76967   0.00000  Uiso   1.00
H219   H     0.18300   0.33374   0.67578   0.00000  Uiso   1.00
H220   H     0.09640   0.10332   0.94851   0.00000  Uiso   1.00
H221   H     0.38683   0.03401   0.72562   0.00000  Uiso   1.00
O222   O     0.11642   0.34128   0.58308   0.00000  Uiso   1.00
O223   O     0.00281   0.03897   0.94089   0.00000  Uiso   1.00
O224   O     0.38385   0.94804   0.64847   0.00000  Uiso   1.00
N225   N     0.10192   0.24905   0.59177   0.00000  Uiso   1.00
N226   N     0.02095   0.03362   0.84675   0.00000  Uiso   1.00
N227   N     0.29247   0.96882   0.63838   0.00000  Uiso   1.00
N228   N     0.16044   0.30026   0.65544   0.00000  Uiso   1.00
N229   N     0.07947   0.08483   0.91043   0.00000  Uiso   1.00
N230   N     0.35099   0.02003   0.70205   0.00000  Uiso   1.00
C231   C     0.16356   0.71880   0.04263   0.00000  Uiso   1.00
C232   C     0.22434   0.70855   0.04862   0.00000  Uiso   1.00
C233   C     0.24710   0.66620   0.01932   0.00000  Uiso   1.00
C234   C     0.30359   0.66391   0.03080   0.00000  Uiso   1.00
C235   C     0.39302   0.64213   0.03411   0.00000  Uiso   1.00
C236   C     0.16200   0.77632   0.02711   0.00000  Uiso   1.00
C237   C     0.13233   0.79096   0.97973   0.00000  Uiso   1.00
C238   C     0.13633   0.84571   0.97311   0.00000  Uiso   1.00
C239   C     0.12894   0.92916   0.94304   0.00000  Uiso   1.00
C240   C     0.14536   0.72033   0.10182   0.00000  Uiso   1.00
C241   C     0.10169   0.68789   0.11724   0.00000  Uiso   1.00
C242   C     0.09168   0.69552   0.17351   0.00000  Uiso   1.00
C243   C     0.05846   0.69203   0.25943   0.00000  Uiso   1.00
C244   C     0.22341   0.79003   0.11512   0.00000  Uiso   1.00
C245   C     0.25685   0.74724   0.08800   0.00000  Uiso   1.00
C246   C     0.31332   0.74501   0.09953   0.00000  Uiso   1.00
C247   C     0.33615   0.70266   0.07025   0.00000  Uiso   1.00
C248   C     0.19450   0.81501   0.06649   0.00000  Uiso   1.00
C249   C     0.19854   0.86976   0.05994   0.00000  Uiso   1.00
C250   C     0.16889   0.88447   0.01256   0.00000  Uiso   1.00
C251   C     0.17787   0.75902   0.14120   0.00000  Uiso   1.00
C252   C     0.16791   0.76670   0.19745   0.00000  Uiso   1.00
C253   C     0.12424   0.73428   0.21296   0.00000  Uiso   1.00
H254   H     0.13825   0.68868   0.01197   0.00000  Uiso   1.00
H255   H     0.22193   0.63627   0.98885   0.00000  Uiso   1.00
H256   H     0.10717   0.76101   0.94927   0.00000  Uiso   1.00
H257   H     0.07655   0.65796   0.08676   0.00000  Uiso   1.00
H258   H     0.32904   0.59524   0.98057   0.00000  Uiso   1.00
H259   H     0.08705   0.85826   0.89712   0.00000  Uiso   1.00
H260   H     0.02247   0.64096   0.18704   0.00000  Uiso   1.00
H261   H     0.24872   0.82015   0.14578   0.00000  Uiso   1.00
H262   H     0.33846   0.77496   0.13001   0.00000  Uiso   1.00
H263   H     0.22370   0.89969   0.09042   0.00000  Uiso   1.00
H264   H     0.19308   0.79665   0.22791   0.00000  Uiso   1.00
H265   H     0.42362   0.70781   0.09513   0.00000  Uiso   1.00
H266   H     0.18163   0.97082   0.01168   0.00000  Uiso   1.00
H267   H     0.11705   0.75353   0.30161   0.00000  Uiso   1.00
O268   O     0.43337   0.61943   0.02504   0.00000  Uiso   1.00
O269   O     0.11589   0.96449   0.91557   0.00000  Uiso   1.00
O270   O     0.03116   0.67941   0.29595   0.00000  Uiso   1.00
N271   N     0.33898   0.62793   0.00970   0.00000  Uiso   1.00
N272   N     0.11275   0.87383   0.93168   0.00000  Uiso   1.00
N273   N     0.05236   0.67069   0.20273   0.00000  Uiso   1.00
N274   N     0.38988   0.68850   0.07135   0.00000  Uiso   1.00
N275   N     0.16364   0.93440   0.99333   0.00000  Uiso   1.00
N276   N     0.10325   0.73126   0.26438   0.00000  Uiso   1.00
C277   C     0.91918   0.49016   0.43949   0.00000  Uiso   1.00
C278   C     0.93374   0.43211   0.44154   0.00000  Uiso   1.00
C279   C     0.97641   0.41624   0.47661   0.00000  Uiso   1.00
C280   C     0.98295   0.36119   0.47209   0.00000  Uiso   1.00
C281   C     0.01085   0.27680   0.48110   0.00000  Uiso   1.00
C282   C     0.85874   0.48975   0.45038   0.00000  Uiso   1.00
C283   C     0.83835   0.52233   0.49290   0.00000  Uiso   1.00
C284   C     0.78175   0.51581   0.49582   0.00000  Uiso   1.00
C285   C     0.69320   0.52092   0.51854   0.00000  Uiso   1.00
C286   C     0.92103   0.50098   0.37830   0.00000  Uiso   1.00
C287   C     0.95301   0.54302   0.36020   0.00000  Uiso   1.00
C288   C     0.94885   0.54596   0.30244   0.00000  Uiso   1.00
C289   C     0.95702   0.56852   0.21324   0.00000  Uiso   1.00
C290   C     0.85492   0.42064   0.36908   0.00000  Uiso   1.00
C291   C     0.89883   0.39435   0.40329   0.00000  Uiso   1.00
C292   C     0.90531   0.33932   0.39871   0.00000  Uiso   1.00
C293   C     0.94799   0.32337   0.43378   0.00000  Uiso   1.00
C294   C     0.82383   0.45199   0.41214   0.00000  Uiso   1.00
C295   C     0.76725   0.44542   0.41500   0.00000  Uiso   1.00
C296   C     0.74678   0.47798   0.45750   0.00000  Uiso   1.00
C297   C     0.88613   0.46322   0.34006   0.00000  Uiso   1.00
C298   C     0.88192   0.46610   0.28231   0.00000  Uiso   1.00
C299   C     0.91388   0.50814   0.26412   0.00000  Uiso   1.00
H300   H     0.94636   0.51956   0.46926   0.00000  Uiso   1.00
H301   H     0.00341   0.44547   0.50621   0.00000  Uiso   1.00
H302   H     0.86537   0.55155   0.52248   0.00000  Uiso   1.00
H303   H     0.98002   0.57223   0.38981   0.00000  Uiso   1.00
H304   H     0.05126   0.34667   0.53031   0.00000  Uiso   1.00
H305   H     0.76020   0.57037   0.56462   0.00000  Uiso   1.00
H306   H     0.00195   0.61398   0.28486   0.00000  Uiso   1.00
H307   H     0.82774   0.39124   0.33930   0.00000  Uiso   1.00
H308   H     0.87830   0.31011   0.36911   0.00000  Uiso   1.00
H309   H     0.74025   0.41620   0.38539   0.00000  Uiso   1.00
H310   H     0.85490   0.43688   0.25272   0.00000  Uiso   1.00
H311   H     0.94971   0.23681   0.41905   0.00000  Uiso   1.00
H312   H     0.65864   0.46051   0.45335   0.00000  Uiso   1.00
H313   H     0.90040   0.50412   0.17359   0.00000  Uiso   1.00
O314   O     0.03587   0.24069   0.49665   0.00000  Uiso   1.00
O315   O     0.65400   0.53417   0.54165   0.00000  Uiso   1.00
O316   O     0.97118   0.59139   0.17461   0.00000  Uiso   1.00
N317   N     0.02043   0.33195   0.50003   0.00000  Uiso   1.00
N318   N     0.74830   0.54109   0.53211   0.00000  Uiso   1.00
N319   N     0.97431   0.58187   0.27056   0.00000  Uiso   1.00
N320   N     0.96579   0.27284   0.44015   0.00000  Uiso   1.00
N321   N     0.69366   0.48197   0.47224   0.00000  Uiso   1.00
N322   N     0.91967   0.52275   0.21068   0.00000  Uiso   1.00
C323   C     0.56099   0.84636   0.46643   0.00000  Uiso   1.00
C324   C     0.55457   0.84603   0.40242   0.00000  Uiso   1.00
C325   C     0.57201   0.88852   0.37364   0.00000  Uiso   1.00
C326   C     0.56233   0.88022   0.31506   0.00000  Uiso   1.00
C327   C     0.55636   0.88715   0.22004   0.00000  Uiso   1.00
C328   C     0.59239   0.79783   0.47796   0.00000  Uiso   1.00
C329   C     0.64163   0.79979   0.51269   0.00000  Uiso   1.00
C330   C     0.66378   0.75092   0.51770   0.00000  Uiso   1.00
C331   C     0.71651   0.68302   0.53998   0.00000  Uiso   1.00
C332   C     0.50299   0.83335   0.48268   0.00000  Uiso   1.00
C333   C     0.47706   0.86517   0.52141   0.00000  Uiso   1.00
C334   C     0.42394   0.84619   0.53041   0.00000  Uiso   1.00
C335   C     0.33786   0.83344   0.56003   0.00000  Uiso   1.00
C336   C     0.51278   0.75608   0.41357   0.00000  Uiso   1.00
C337   C     0.52838   0.79699   0.37371   0.00000  Uiso   1.00
C338   C     0.51866   0.78863   0.31515   0.00000  Uiso   1.00
C339   C     0.53609   0.83109   0.28629   0.00000  Uiso   1.00
C340   C     0.56620   0.74880   0.44925   0.00000  Uiso   1.00
C341   C     0.58828   0.69990   0.45421   0.00000  Uiso   1.00
C342   C     0.63754   0.70179   0.48894   0.00000  Uiso   1.00
C343   C     0.47680   0.78431   0.45397   0.00000  Uiso   1.00
C344   C     0.42371   0.76528   0.46292   0.00000  Uiso   1.00
C345   C     0.39771   0.79706   0.50165   0.00000  Uiso   1.00
H346   H     0.58138   0.88454   0.48878   0.00000  Uiso   1.00
H347   H     0.59228   0.92646   0.39588   0.00000  Uiso   1.00
H348   H     0.66188   0.83775   0.53491   0.00000  Uiso   1.00
H349   H     0.49734   0.90312   0.54362   0.00000  Uiso   1.00
H350   H     0.59283   0.95130   0.28021   0.00000  Uiso   1.00
H351   H     0.73958   0.76425   0.57339   0.00000  Uiso   1.00
H352   H     0.39260   0.90209   0.59175   0.00000  Uiso   1.00
H353   H     0.49239   0.71790   0.39121   0.00000  Uiso   1.00
H354   H     0.49840   0.75067   0.29295   0.00000  Uiso   1.00
H355   H     0.56800   0.66196   0.43198   0.00000  Uiso   1.00
H356   H     0.40346   0.72733   0.44069   0.00000  Uiso   1.00
H357   H     0.51663   0.80862   0.19667   0.00000  Uiso   1.00
H358   H     0.66339   0.62157   0.48985   0.00000  Uiso   1.00
H359   H     0.31641   0.75941   0.50821   0.00000  Uiso   1.00
O360   O     0.56031   0.90452   0.17556   0.00000  Uiso   1.00
O361   O     0.75283   0.65911   0.56020   0.00000  Uiso   1.00
O362   O     0.29761   0.83996   0.58429   0.00000  Uiso   1.00
N363   N     0.57406   0.91323   0.27403   0.00000  Uiso   1.00
N364   N     0.71127   0.73834   0.54813   0.00000  Uiso   1.00
N365   N     0.38688   0.86721   0.56531   0.00000  Uiso   1.00
N366   N     0.53306   0.83645   0.22908   0.00000  Uiso   1.00
N367   N     0.67027   0.66157   0.50318   0.00000  Uiso   1.00
N368   N     0.34588   0.79043   0.52036   0.00000  Uiso   1.00
C369   C     0.57341   0.54104   0.81570   0.00000  Uiso   1.00
C370   C     0.51776   0.52468   0.83576   0.00000  Uiso   1.00
C371   C     0.49577   0.55091   0.88141   0.00000  Uiso   1.00
C372   C     0.44427   0.52964   0.89291   0.00000  Uiso   1.00
C373   C     0.36217   0.51122   0.92907   0.00000  Uiso   1.00
C374   C     0.56116   0.54938   0.75380   0.00000  Uiso   1.00
C375   C     0.57567   0.59638   0.73054   0.00000  Uiso   1.00
C376   C     0.56070   0.59590   0.67303   0.00000  Uiso   1.00
C377   C     0.54602   0.61581   0.58194   0.00000  Uiso   1.00
C378   C     0.60542   0.49121   0.81588   0.00000  Uiso   1.00
C379   C     0.65716   0.48932   0.84480   0.00000  Uiso   1.00
C380   C     0.67947   0.43987   0.83954   0.00000  Uiso   1.00
C381   C     0.73351   0.36948   0.84484   0.00000  Uiso   1.00
C382   C     0.52105   0.45660   0.75493   0.00000  Uiso   1.00
C383   C     0.48932   0.47881   0.80275   0.00000  Uiso   1.00
C384   C     0.43784   0.45749   0.81418   0.00000  Uiso   1.00
C385   C     0.41578   0.48369   0.85984   0.00000  Uiso   1.00
C386   C     0.53272   0.50351   0.72079   0.00000  Uiso   1.00
C387   C     0.51774   0.50296   0.66331   0.00000  Uiso   1.00
C388   C     0.53221   0.54995   0.63996   0.00000  Uiso   1.00
C389   C     0.57699   0.44535   0.78287   0.00000  Uiso   1.00
C390   C     0.59923   0.39589   0.77757   0.00000  Uiso   1.00
C391   C     0.65098   0.39392   0.80648   0.00000  Uiso   1.00
H392   H     0.59555   0.57675   0.84139   0.00000  Uiso   1.00
H393   H     0.51779   0.58641   0.90694   0.00000  Uiso   1.00
H394   H     0.59768   0.63187   0.75609   0.00000  Uiso   1.00
H395   H     0.67915   0.52482   0.87033   0.00000  Uiso   1.00
H396   H     0.41902   0.57691   0.96505   0.00000  Uiso   1.00
H397   H     0.58749   0.67275   0.64697   0.00000  Uiso   1.00
H398   H     0.75930   0.44701   0.88787   0.00000  Uiso   1.00
H399   H     0.49891   0.42089   0.72923   0.00000  Uiso   1.00
H400   H     0.41584   0.42200   0.78863   0.00000  Uiso   1.00
H401   H     0.49574   0.46746   0.63778   0.00000  Uiso   1.00
H402   H     0.57721   0.36041   0.75202   0.00000  Uiso   1.00
H403   H     0.33628   0.44347   0.86903   0.00000  Uiso   1.00
H404   H     0.50475   0.53931   0.55094   0.00000  Uiso   1.00
H405   H     0.67655   0.31357   0.79185   0.00000  Uiso   1.00
O406   O     0.32474   0.51374   0.95813   0.00000  Uiso   1.00
O407   O     0.54578   0.63947   0.54081   0.00000  Uiso   1.00
O408   O     0.77118   0.34332   0.85688   0.00000  Uiso   1.00
N409   N     0.41095   0.54534   0.93431   0.00000  Uiso   1.00
N410   N     0.56846   0.63495   0.63692   0.00000  Uiso   1.00
N411   N     0.72908   0.42391   0.86213   0.00000  Uiso   1.00
N412   N     0.36643   0.47354   0.88264   0.00000  Uiso   1.00
N413   N     0.52393   0.56315   0.58525   0.00000  Uiso   1.00
N414   N     0.68456   0.35211   0.81046   0.00000  Uiso   1.00
C415   C     0.42343   0.01477   0.96835   0.00000  Uiso   1.00
C416   C     0.43665   0.00783   0.90720   0.00000  Uiso   1.00
C417   C     0.47887   0.03717   0.88568   0.00000  Uiso   1.00
C418   C     0.48417   0.02475   0.82859   0.00000  Uiso   1.00
C419   C     0.51012   0.02013   0.73885   0.00000  Uiso   1.00
C420   C     0.36312   0.02654   0.96610   0.00000  Uiso   1.00
C421   C     0.34350   0.07160   0.99411   0.00000  Uiso   1.00
C422   C     0.28690   0.07491   0.98661   0.00000  Uiso   1.00
C423   C     0.19867   0.09932   0.98836   0.00000  Uiso   1.00
C424   C     0.42551   0.95907   0.98849   0.00000  Uiso   1.00
C425   C     0.45835   0.94740   0.03534   0.00000  Uiso   1.00
C426   C     0.45427   0.89391   0.04670   0.00000  Uiso   1.00
C427   C     0.46292   0.81355   0.08321   0.00000  Uiso   1.00
C428   C     0.35777   0.94053   0.90524   0.00000  Uiso   1.00
C429   C     0.40099   0.96751   0.87292   0.00000  Uiso   1.00
C430   C     0.40623   0.95503   0.81586   0.00000  Uiso   1.00
C431   C     0.44845   0.98435   0.79425   0.00000  Uiso   1.00
C432   C     0.32745   0.98622   0.93183   0.00000  Uiso   1.00
C433   C     0.27086   0.98946   0.92429   0.00000  Uiso   1.00
C434   C     0.25117   0.03452   0.95228   0.00000  Uiso   1.00
C435   C     0.38985   0.91874   0.95422   0.00000  Uiso   1.00
C436   C     0.38571   0.86526   0.96552   0.00000  Uiso   1.00
C437   C     0.41854   0.85351   0.01237   0.00000  Uiso   1.00
H438   H     0.45119   0.04617   0.99503   0.00000  Uiso   1.00
H439   H     0.50646   0.06838   0.91222   0.00000  Uiso   1.00
H440   H     0.37111   0.10280   0.02064   0.00000  Uiso   1.00
H441   H     0.48594   0.97862   0.06185   0.00000  Uiso   1.00
H442   H     0.55199   0.07524   0.80528   0.00000  Uiso   1.00
H443   H     0.26660   0.14780   0.03390   0.00000  Uiso   1.00
H444   H     0.50875   0.88594   0.12082   0.00000  Uiso   1.00
H445   H     0.33001   0.90914   0.87856   0.00000  Uiso   1.00
H446   H     0.37863   0.92383   0.78934   0.00000  Uiso   1.00
H447   H     0.24328   0.95825   0.89777   0.00000  Uiso   1.00
H448   H     0.35811   0.83407   0.93898   0.00000  Uiso   1.00
H449   H     0.44824   0.95792   0.70555   0.00000  Uiso   1.00
H450   H     0.16285   0.03048   0.93418   0.00000  Uiso   1.00
H451   H     0.40500   0.76862   0.02109   0.00000  Uiso   1.00
O452   O     0.53428   0.02873   0.69882   0.00000  Uiso   1.00
O453   O     0.15986   0.12392   0.99878   0.00000  Uiso   1.00
O454   O     0.47755   0.78037   0.11281   0.00000  Uiso   1.00
N455   N     0.52091   0.04560   0.79405   0.00000  Uiso   1.00
N456   N     0.25409   0.11345   0.00780   0.00000  Uiso   1.00
N457   N     0.48046   0.86863   0.08907   0.00000  Uiso   1.00
N458   N     0.46508   0.98247   0.74039   0.00000  Uiso   1.00
N459   N     0.19826   0.05032   0.95413   0.00000  Uiso   1.00
N460   N     0.42463   0.80550   0.03540   0.00000  Uiso   1.00
C461   C     0.03540   0.98538   0.32446   0.00000  Uiso   1.00
C462   C     0.03002   0.92739   0.33920   0.00000  Uiso   1.00
C463   C     0.05418   0.91003   0.38798   0.00000  Uiso   1.00
C464   C     0.04428   0.85532   0.39357   0.00000  Uiso   1.00
C465   C     0.04095   0.77075   0.42279   0.00000  Uiso   1.00
C466   C     0.05811   0.98240   0.26726   0.00000  Uiso   1.00
C467   C     0.10588   0.01130   0.25555   0.00000  Uiso   1.00
C468   C     0.11961   0.00291   0.20056   0.00000  Uiso   1.00
C469   C     0.15986   0.00377   0.11808   0.00000  Uiso   1.00
C470   C     0.97659   0.00091   0.31427   0.00000  Uiso   1.00
C471   C     0.95583   0.04539   0.34208   0.00000  Uiso   1.00
C472   C     0.90094   0.05259   0.32667   0.00000  Uiso   1.00
C473   C     0.81463   0.08220   0.31718   0.00000  Uiso   1.00
C474   C     0.97485   0.91907   0.24763   0.00000  Uiso   1.00
C475   C     0.99713   0.89137   0.29747   0.00000  Uiso   1.00
C476   C     0.98719   0.83667   0.30299   0.00000  Uiso   1.00
C477   C     0.01133   0.81924   0.35177   0.00000  Uiso   1.00
C478   C     0.02522   0.94639   0.22553   0.00000  Uiso   1.00
C479   C     0.03889   0.93795   0.17055   0.00000  Uiso   1.00
C480   C     0.08667   0.96683   0.15876   0.00000  Uiso   1.00
C481   C     0.94370   0.96490   0.27254   0.00000  Uiso   1.00
C482   C     0.88884   0.97203   0.25708   0.00000  Uiso   1.00
C483   C     0.86799   0.01651   0.28486   0.00000  Uiso   1.00
H484   H     0.06101   0.01342   0.35694   0.00000  Uiso   1.00
H485   H     0.07963   0.93791   0.42026   0.00000  Uiso   1.00
H486   H     0.13132   0.03917   0.28784   0.00000  Uiso   1.00
H487   H     0.98129   0.07325   0.37436   0.00000  Uiso   1.00
H488   H     0.08579   0.83832   0.47205   0.00000  Uiso   1.00
H489   H     0.19476   0.05185   0.19284   0.00000  Uiso   1.00
H490   H     0.87841   0.12371   0.37528   0.00000  Uiso   1.00
H491   H     0.94925   0.89104   0.21514   0.00000  Uiso   1.00
H492   H     0.96174   0.80881   0.27069   0.00000  Uiso   1.00
H493   H     0.01342   0.91008   0.13827   0.00000  Uiso   1.00
H494   H     0.86340   0.94415   0.22479   0.00000  Uiso   1.00
H495   H     0.99011   0.73354   0.35065   0.00000  Uiso   1.00
H496   H     0.09908   0.94707   0.07143   0.00000  Uiso   1.00
H497   H     0.78272   0.01893   0.25388   0.00000  Uiso   1.00
O498   O     0.04820   0.73405   0.45044   0.00000  Uiso   1.00
O499   O     0.19116   0.01419   0.08412   0.00000  Uiso   1.00
O500   O     0.77610   0.10847   0.32348   0.00000  Uiso   1.00
N501   N     0.06155   0.82494   0.43586   0.00000  Uiso   1.00
N502   N     0.16344   0.02457   0.17482   0.00000  Uiso   1.00
N503   N     0.86767   0.09177   0.34538   0.00000  Uiso   1.00
N504   N     0.01006   0.76856   0.37054   0.00000  Uiso   1.00
N505   N     0.11195   0.96819   0.10949   0.00000  Uiso   1.00
N506   N     0.81618   0.03538   0.28005   0.00000  Uiso   1.00
C507   C     0.06077   0.34364   0.02094   0.00000  Uiso   1.00
C508   C     0.00376   0.35773   0.99895   0.00000  Uiso   1.00
C509   C     0.97458   0.39711   0.02480   0.00000  Uiso   1.00
C510   C     0.92306   0.40380   0.99798   0.00000  Uiso   1.00
C511   C     0.83780   0.43046   0.97158   0.00000  Uiso   1.00
C512   C     0.05431   0.28310   0.02626   0.00000  Uiso   1.00
C513   C     0.06764   0.25975   0.07506   0.00000  Uiso   1.00
C514   C     0.05869   0.20362   0.07123   0.00000  Uiso   1.00
C515   C     0.05195   0.11442   0.08721   0.00000  Uiso   1.00
C516   C     0.09710   0.35023   0.97348   0.00000  Uiso   1.00
C517   C     0.14642   0.38330   0.97791   0.00000  Uiso   1.00
C518   C     0.17349   0.38368   0.92964   0.00000  Uiso   1.00
C519   C     0.23319   0.39870   0.86368   0.00000  Uiso   1.00
C520   C     0.02117   0.28547   0.92735   0.00000  Uiso   1.00
C521   C     0.98225   0.32613   0.94811   0.00000  Uiso   1.00
C522   C     0.93076   0.33276   0.92125   0.00000  Uiso   1.00
C523   C     0.90151   0.37215   0.94705   0.00000  Uiso   1.00
C524   C     0.03280   0.25151   0.97542   0.00000  Uiso   1.00
C525   C     0.02383   0.19539   0.97151   0.00000  Uiso   1.00
C526   C     0.03714   0.17197   0.02030   0.00000  Uiso   1.00
C527   C     0.07559   0.31863   0.92264   0.00000  Uiso   1.00
C528   C     0.10260   0.31895   0.87436   0.00000  Uiso   1.00
C529   C     0.15195   0.35202   0.87871   0.00000  Uiso   1.00
H530   H     0.07752   0.36824   0.06052   0.00000  Uiso   1.00
H531   H     0.99124   0.42156   0.06414   0.00000  Uiso   1.00
H532   H     0.08429   0.28421   0.11439   0.00000  Uiso   1.00
H533   H     0.16305   0.40775   0.01725   0.00000  Uiso   1.00
H534   H     0.88608   0.46672   0.04575   0.00000  Uiso   1.00
H535   H     0.08232   0.17713   0.15171   0.00000  Uiso   1.00
H536   H     0.24839   0.43763   0.94687   0.00000  Uiso   1.00
H537   H     0.00442   0.26087   0.88777   0.00000  Uiso   1.00
H538   H     0.91413   0.30830   0.88191   0.00000  Uiso   1.00
H539   H     0.00719   0.17096   0.93217   0.00000  Uiso   1.00
H540   H     0.08594   0.29449   0.83503   0.00000  Uiso   1.00
H541   H     0.82350   0.37480   0.89784   0.00000  Uiso   1.00
H542   H     0.01974   0.08520   0.00380   0.00000  Uiso   1.00
H543   H     0.18581   0.34570   0.79896   0.00000  Uiso   1.00
O544   O     0.79671   0.45388   0.97107   0.00000  Uiso   1.00
O545   O     0.05417   0.07395   0.11008   0.00000  Uiso   1.00
O546   O     0.27205   0.41572   0.84134   0.00000  Uiso   1.00
N547   N     0.88375   0.43858   0.01174   0.00000  Uiso   1.00
N548   N     0.06721   0.16783   0.11081   0.00000  Uiso   1.00
N549   N     0.22248   0.41137   0.91930   0.00000  Uiso   1.00
N550   N     0.85008   0.38912   0.93215   0.00000  Uiso   1.00
N551   N     0.03353   0.11837   0.03122   0.00000  Uiso   1.00
N552   N     0.18881   0.36190   0.83972   0.00000  Uiso   1.00
