data_job_04993
_audit_creation_date              2018-12-19
_audit_creation_method            'Materials Studio'
_symmetry_space_group_name_H-M    'P1'
_symmetry_Int_Tables_number       1
_symmetry_cell_setting            triclinic
loop_
_symmetry_equiv_pos_as_xyz
  x,y,z
_cell_length_a                    10.0613
_cell_length_b                    13.6085
_cell_length_c                    32.3313
_cell_angle_alpha                 90.0000
_cell_angle_beta                  90.0000
_cell_angle_gamma                 90.0000
loop_
_atom_site_label
_atom_site_type_symbol
_atom_site_fract_x
_atom_site_fract_y
_atom_site_fract_z
_atom_site_U_iso_or_equiv
_atom_site_adp_type
_atom_site_occupancy
C1     C     0.74656   0.65323   0.09583   0.00000  Uiso   1.00
C2     C     0.85372   0.71984   0.11390   0.00000  Uiso   1.00
C3     C     0.98983   0.70501   0.11085   0.00000  Uiso   1.00
C4     C     0.07142   0.77438   0.12947   0.00000  Uiso   1.00
C5     C     0.24584   0.86548   0.15433   0.00000  Uiso   1.00
C6     C     0.66171   0.71840   0.06799   0.00000  Uiso   1.00
C7     C     0.63638   0.70235   0.02634   0.00000  Uiso   1.00
C8     C     0.55633   0.77050   0.00632   0.00000  Uiso   1.00
C9     C     0.43258   0.85932   0.95991   0.00000  Uiso   1.00
C10    C     0.65767   0.62395   0.13199   0.00000  Uiso   1.00
C11    C     0.62890   0.52848   0.14415   0.00000  Uiso   1.00
C12    C     0.54541   0.51711   0.17800   0.00000  Uiso   1.00
C13    C     0.41538   0.45929   0.23096   0.00000  Uiso   1.00
C14    C     0.64942   0.80279   0.13434   0.00000  Uiso   1.00
C15    C     0.80095   0.80108   0.13482   0.00000  Uiso   1.00
C16    C     0.88236   0.87049   0.15345   0.00000  Uiso   1.00
C17    C     0.01857   0.85576   0.15043   0.00000  Uiso   1.00
C18    C     0.60895   0.79964   0.08891   0.00000  Uiso   1.00
C19    C     0.52891   0.86782   0.06895   0.00000  Uiso   1.00
C20    C     0.50347   0.85188   0.02728   0.00000  Uiso   1.00
C21    C     0.60491   0.70519   0.15291   0.00000  Uiso   1.00
C22    C     0.52143   0.69396   0.18675   0.00000  Uiso   1.00
C23    C     0.49255   0.59850   0.19896   0.00000  Uiso   1.00
H24    H     0.78763   0.58999   0.07955   0.00000  Uiso   1.00
H25    H     0.03062   0.64214   0.09466   0.00000  Uiso   1.00
H26    H     0.67721   0.63947   0.01017   0.00000  Uiso   1.00
H27    H     0.66974   0.46564   0.12795   0.00000  Uiso   1.00
H28    H     0.27675   0.73581   0.12062   0.00000  Uiso   1.00
H29    H     0.53155   0.73016   0.94247   0.00000  Uiso   1.00
H30    H     0.51578   0.36360   0.19084   0.00000  Uiso   1.00
H31    H     0.60834   0.86604   0.15063   0.00000  Uiso   1.00
H32    H     0.84150   0.93334   0.16964   0.00000  Uiso   1.00
H33    H     0.48809   0.93067   0.08514   0.00000  Uiso   1.00
H34    H     0.48062   0.75684   0.20293   0.00000  Uiso   1.00
H35    H     0.12326   0.97216   0.18147   0.00000  Uiso   1.00
H36    H     0.37804   0.96651   0.00332   0.00000  Uiso   1.00
H37    H     0.36229   0.59995   0.25170   0.00000  Uiso   1.00
O38    O     0.35662   0.89329   0.16226   0.00000  Uiso   1.00
O39    O     0.37892   0.88587   0.92853   0.00000  Uiso   1.00
O40    O     0.35825   0.40495   0.25440   0.00000  Uiso   1.00
N41    N     0.20863   0.78219   0.13234   0.00000  Uiso   1.00
N42    N     0.51192   0.77691   0.96578   0.00000  Uiso   1.00
N43    N     0.49716   0.43421   0.19798   0.00000  Uiso   1.00
N44    N     0.12604   0.90936   0.16508   0.00000  Uiso   1.00
N45    N     0.42933   0.90409   0.99852   0.00000  Uiso   1.00
N46    N     0.41456   0.56139   0.23073   0.00000  Uiso   1.00
C47    C     0.44635   0.14196   0.89748   0.00000  Uiso   1.00
C48    C     0.33530   0.20946   0.88254   0.00000  Uiso   1.00
C49    C     0.20012   0.19042   0.88547   0.00000  Uiso   1.00
C50    C     0.11447   0.26146   0.86999   0.00000  Uiso   1.00
C51    C     0.93474   0.35306   0.84951   0.00000  Uiso   1.00
C52    C     0.52939   0.20278   0.92751   0.00000  Uiso   1.00
C53    C     0.55742   0.17812   0.96824   0.00000  Uiso   1.00
C54    C     0.63517   0.24353   0.99061   0.00000  Uiso   1.00
C55    C     0.75686   0.32474   0.03993   0.00000  Uiso   1.00
C56    C     0.53484   0.12332   0.86001   0.00000  Uiso   1.00
C57    C     0.56748   0.03183   0.84399   0.00000  Uiso   1.00
C58    C     0.64985   0.03034   0.80954   0.00000  Uiso   1.00
C59    C     0.78000   0.98816   0.75405   0.00000  Uiso   1.00
C60    C     0.53461   0.30199   0.86480   0.00000  Uiso   1.00
C61    C     0.38325   0.29638   0.86479   0.00000  Uiso   1.00
C62    C     0.29778   0.36746   0.84930   0.00000  Uiso   1.00
C63    C     0.16249   0.34853   0.85220   0.00000  Uiso   1.00
C64    C     0.57733   0.28970   0.90976   0.00000  Uiso   1.00
C65    C     0.65507   0.35516   0.93207   0.00000  Uiso   1.00
C66    C     0.68320   0.33061   0.97283   0.00000  Uiso   1.00
C67    C     0.58278   0.21023   0.84225   0.00000  Uiso   1.00
C68    C     0.66513   0.20888   0.80782   0.00000  Uiso   1.00
C69    C     0.69788   0.11742   0.79175   0.00000  Uiso   1.00
H70    H     0.40903   0.07430   0.91131   0.00000  Uiso   1.00
H71    H     0.16306   0.12315   0.89921   0.00000  Uiso   1.00
H72    H     0.52031   0.11085   0.98196   0.00000  Uiso   1.00
H73    H     0.53036   0.96459   0.85773   0.00000  Uiso   1.00
H74    H     0.91150   0.21566   0.87798   0.00000  Uiso   1.00
H75    H     0.66482   0.18970   0.05247   0.00000  Uiso   1.00
H76    H     0.68602   0.88128   0.79051   0.00000  Uiso   1.00
H77    H     0.57194   0.36966   0.85098   0.00000  Uiso   1.00
H78    H     0.33491   0.43472   0.83557   0.00000  Uiso   1.00
H79    H     0.69216   0.42242   0.91832   0.00000  Uiso   1.00
H80    H     0.70221   0.27616   0.79409   0.00000  Uiso   1.00
H81    H     0.05097   0.46854   0.82633   0.00000  Uiso   1.00
H82    H     0.80431   0.44258   0.00082   0.00000  Uiso   1.00
H83    H     0.82550   0.13417   0.73885   0.00000  Uiso   1.00
O84    O     0.82236   0.37958   0.84312   0.00000  Uiso   1.00
O85    O     0.81072   0.34552   0.07204   0.00000  Uiso   1.00
O86    O     0.83853   0.94088   0.72835   0.00000  Uiso   1.00
N87    N     0.97685   0.26624   0.86793   0.00000  Uiso   1.00
N88    N     0.68115   0.24198   0.03107   0.00000  Uiso   1.00
N89    N     0.70100   0.95363   0.78616   0.00000  Uiso   1.00
N90    N     0.05190   0.40231   0.84014   0.00000  Uiso   1.00
N91    N     0.75620   0.37805   0.00328   0.00000  Uiso   1.00
N92    N     0.77605   0.08970   0.75837   0.00000  Uiso   1.00
C93    C     0.25344   0.34677   0.59583   0.00000  Uiso   1.00
C94    C     0.14628   0.28016   0.61390   0.00000  Uiso   1.00
C95    C     0.01017   0.29499   0.61085   0.00000  Uiso   1.00
C96    C     0.92858   0.22562   0.62947   0.00000  Uiso   1.00
C97    C     0.75416   0.13452   0.65433   0.00000  Uiso   1.00
C98    C     0.33829   0.28160   0.56799   0.00000  Uiso   1.00
C99    C     0.36362   0.29765   0.52634   0.00000  Uiso   1.00
C100   C     0.44367   0.22950   0.50632   0.00000  Uiso   1.00
C101   C     0.56742   0.14068   0.45991   0.00000  Uiso   1.00
C102   C     0.34233   0.37605   0.63199   0.00000  Uiso   1.00
C103   C     0.37110   0.47152   0.64415   0.00000  Uiso   1.00
C104   C     0.45459   0.48289   0.67800   0.00000  Uiso   1.00
C105   C     0.58462   0.54071   0.73096   0.00000  Uiso   1.00
C106   C     0.35058   0.19721   0.63434   0.00000  Uiso   1.00
C107   C     0.19905   0.19892   0.63482   0.00000  Uiso   1.00
C108   C     0.11764   0.12951   0.65345   0.00000  Uiso   1.00
C109   C     0.98143   0.14424   0.65043   0.00000  Uiso   1.00
C110   C     0.39105   0.20036   0.58891   0.00000  Uiso   1.00
C111   C     0.47109   0.13218   0.56895   0.00000  Uiso   1.00
C112   C     0.49653   0.14812   0.52728   0.00000  Uiso   1.00
C113   C     0.39509   0.29481   0.65291   0.00000  Uiso   1.00
C114   C     0.47857   0.30604   0.68675   0.00000  Uiso   1.00
C115   C     0.50745   0.40150   0.69896   0.00000  Uiso   1.00
H116   H     0.21237   0.41001   0.57955   0.00000  Uiso   1.00
H117   H     0.96938   0.35786   0.59466   0.00000  Uiso   1.00
H118   H     0.32279   0.36053   0.51017   0.00000  Uiso   1.00
H119   H     0.33026   0.53436   0.62795   0.00000  Uiso   1.00
H120   H     0.72325   0.26419   0.62062   0.00000  Uiso   1.00
H121   H     0.46845   0.26984   0.44247   0.00000  Uiso   1.00
H122   H     0.48422   0.63640   0.69084   0.00000  Uiso   1.00
H123   H     0.39166   0.13396   0.65063   0.00000  Uiso   1.00
H124   H     0.15850   0.06666   0.66964   0.00000  Uiso   1.00
H125   H     0.51191   0.06933   0.58514   0.00000  Uiso   1.00
H126   H     0.51938   0.24316   0.70293   0.00000  Uiso   1.00
H127   H     0.87674   0.02784   0.68147   0.00000  Uiso   1.00
H128   H     0.62196   0.03349   0.50332   0.00000  Uiso   1.00
H129   H     0.63771   0.40005   0.75170   0.00000  Uiso   1.00
O130   O     0.64338   0.10671   0.66226   0.00000  Uiso   1.00
O131   O     0.62108   0.11413   0.42853   0.00000  Uiso   1.00
O132   O     0.64175   0.59505   0.75440   0.00000  Uiso   1.00
N133   N     0.79137   0.21781   0.63234   0.00000  Uiso   1.00
N134   N     0.48808   0.22309   0.46578   0.00000  Uiso   1.00
N135   N     0.50284   0.56579   0.69798   0.00000  Uiso   1.00
N136   N     0.87396   0.09064   0.66508   0.00000  Uiso   1.00
N137   N     0.57067   0.09591   0.49852   0.00000  Uiso   1.00
N138   N     0.58544   0.43861   0.73073   0.00000  Uiso   1.00
C139   C     0.55365   0.85804   0.39748   0.00000  Uiso   1.00
C140   C     0.66470   0.79054   0.38254   0.00000  Uiso   1.00
C141   C     0.79988   0.80958   0.38547   0.00000  Uiso   1.00
C142   C     0.88553   0.73854   0.36999   0.00000  Uiso   1.00
C143   C     0.06526   0.64694   0.34951   0.00000  Uiso   1.00
C144   C     0.47061   0.79722   0.42751   0.00000  Uiso   1.00
C145   C     0.44258   0.82188   0.46824   0.00000  Uiso   1.00
C146   C     0.36483   0.75647   0.49061   0.00000  Uiso   1.00
C147   C     0.24314   0.67526   0.53993   0.00000  Uiso   1.00
C148   C     0.46516   0.87668   0.36001   0.00000  Uiso   1.00
C149   C     0.43252   0.96817   0.34399   0.00000  Uiso   1.00
C150   C     0.35015   0.96966   0.30954   0.00000  Uiso   1.00
C151   C     0.22000   0.01184   0.25405   0.00000  Uiso   1.00
C152   C     0.46539   0.69801   0.36480   0.00000  Uiso   1.00
C153   C     0.61675   0.70362   0.36479   0.00000  Uiso   1.00
C154   C     0.70222   0.63254   0.34930   0.00000  Uiso   1.00
C155   C     0.83751   0.65147   0.35220   0.00000  Uiso   1.00
C156   C     0.42267   0.71030   0.40976   0.00000  Uiso   1.00
C157   C     0.34493   0.64484   0.43207   0.00000  Uiso   1.00
C158   C     0.31680   0.66939   0.47283   0.00000  Uiso   1.00
C159   C     0.41722   0.78977   0.34225   0.00000  Uiso   1.00
C160   C     0.33487   0.79112   0.30782   0.00000  Uiso   1.00
C161   C     0.30212   0.88258   0.29175   0.00000  Uiso   1.00
H162   H     0.59097   0.92570   0.41131   0.00000  Uiso   1.00
H163   H     0.83694   0.87685   0.39921   0.00000  Uiso   1.00
H164   H     0.47969   0.88915   0.48196   0.00000  Uiso   1.00
H165   H     0.46964   0.03541   0.35773   0.00000  Uiso   1.00
H166   H     0.08850   0.78434   0.37798   0.00000  Uiso   1.00
H167   H     0.33518   0.81030   0.55247   0.00000  Uiso   1.00
H168   H     0.31398   0.11872   0.29051   0.00000  Uiso   1.00
H169   H     0.42806   0.63034   0.35098   0.00000  Uiso   1.00
H170   H     0.66509   0.56528   0.33557   0.00000  Uiso   1.00
H171   H     0.30784   0.57758   0.41832   0.00000  Uiso   1.00
H172   H     0.29779   0.72384   0.29409   0.00000  Uiso   1.00
H173   H     0.94903   0.53146   0.32633   0.00000  Uiso   1.00
H174   H     0.19569   0.55742   0.50082   0.00000  Uiso   1.00
H175   H     0.17450   0.86583   0.23885   0.00000  Uiso   1.00
O176   O     0.17764   0.62042   0.34312   0.00000  Uiso   1.00
O177   O     0.18928   0.65448   0.57204   0.00000  Uiso   1.00
O178   O     0.16147   0.05912   0.22835   0.00000  Uiso   1.00
N179   N     0.02315   0.73376   0.36793   0.00000  Uiso   1.00
N180   N     0.31885   0.75802   0.53107   0.00000  Uiso   1.00
N181   N     0.29900   0.04637   0.28616   0.00000  Uiso   1.00
N182   N     0.94810   0.59769   0.34014   0.00000  Uiso   1.00
N183   N     0.24380   0.62195   0.50328   0.00000  Uiso   1.00
N184   N     0.22395   0.91030   0.25837   0.00000  Uiso   1.00
C185   C     0.24656   0.34677   0.09583   0.00000  Uiso   1.00
C186   C     0.35372   0.28016   0.11390   0.00000  Uiso   1.00
C187   C     0.48983   0.29499   0.11085   0.00000  Uiso   1.00
C188   C     0.57142   0.22562   0.12947   0.00000  Uiso   1.00
C189   C     0.74584   0.13452   0.15433   0.00000  Uiso   1.00
C190   C     0.16171   0.28160   0.06799   0.00000  Uiso   1.00
C191   C     0.13638   0.29765   0.02634   0.00000  Uiso   1.00
C192   C     0.05633   0.22950   0.00632   0.00000  Uiso   1.00
C193   C     0.93258   0.14068   0.95991   0.00000  Uiso   1.00
C194   C     0.15767   0.37605   0.13199   0.00000  Uiso   1.00
C195   C     0.12890   0.47152   0.14415   0.00000  Uiso   1.00
C196   C     0.04541   0.48289   0.17800   0.00000  Uiso   1.00
C197   C     0.91538   0.54071   0.23096   0.00000  Uiso   1.00
C198   C     0.14942   0.19721   0.13434   0.00000  Uiso   1.00
C199   C     0.30095   0.19892   0.13482   0.00000  Uiso   1.00
C200   C     0.38236   0.12951   0.15345   0.00000  Uiso   1.00
C201   C     0.51857   0.14424   0.15043   0.00000  Uiso   1.00
C202   C     0.10895   0.20036   0.08891   0.00000  Uiso   1.00
C203   C     0.02891   0.13218   0.06895   0.00000  Uiso   1.00
C204   C     0.00347   0.14812   0.02728   0.00000  Uiso   1.00
C205   C     0.10491   0.29481   0.15291   0.00000  Uiso   1.00
C206   C     0.02143   0.30604   0.18675   0.00000  Uiso   1.00
C207   C     0.99255   0.40150   0.19896   0.00000  Uiso   1.00
H208   H     0.28763   0.41001   0.07955   0.00000  Uiso   1.00
H209   H     0.53062   0.35786   0.09466   0.00000  Uiso   1.00
H210   H     0.17721   0.36053   0.01017   0.00000  Uiso   1.00
H211   H     0.16974   0.53436   0.12795   0.00000  Uiso   1.00
H212   H     0.77675   0.26419   0.12062   0.00000  Uiso   1.00
H213   H     0.03155   0.26984   0.94247   0.00000  Uiso   1.00
H214   H     0.01578   0.63640   0.19084   0.00000  Uiso   1.00
H215   H     0.10834   0.13396   0.15063   0.00000  Uiso   1.00
H216   H     0.34150   0.06666   0.16964   0.00000  Uiso   1.00
H217   H     0.98809   0.06933   0.08514   0.00000  Uiso   1.00
H218   H     0.98062   0.24316   0.20293   0.00000  Uiso   1.00
H219   H     0.62326   0.02784   0.18147   0.00000  Uiso   1.00
H220   H     0.87804   0.03349   0.00332   0.00000  Uiso   1.00
H221   H     0.86229   0.40005   0.25170   0.00000  Uiso   1.00
O222   O     0.85662   0.10671   0.16226   0.00000  Uiso   1.00
O223   O     0.87892   0.11413   0.92853   0.00000  Uiso   1.00
O224   O     0.85825   0.59505   0.25440   0.00000  Uiso   1.00
N225   N     0.70863   0.21781   0.13234   0.00000  Uiso   1.00
N226   N     0.01192   0.22309   0.96578   0.00000  Uiso   1.00
N227   N     0.99716   0.56579   0.19798   0.00000  Uiso   1.00
N228   N     0.62604   0.09064   0.16508   0.00000  Uiso   1.00
N229   N     0.92933   0.09591   0.99852   0.00000  Uiso   1.00
N230   N     0.91456   0.43861   0.23073   0.00000  Uiso   1.00
C231   C     0.94635   0.85804   0.89748   0.00000  Uiso   1.00
C232   C     0.83530   0.79054   0.88254   0.00000  Uiso   1.00
C233   C     0.70012   0.80958   0.88547   0.00000  Uiso   1.00
C234   C     0.61447   0.73854   0.86999   0.00000  Uiso   1.00
C235   C     0.43474   0.64694   0.84951   0.00000  Uiso   1.00
C236   C     0.02939   0.79722   0.92751   0.00000  Uiso   1.00
C237   C     0.05742   0.82188   0.96824   0.00000  Uiso   1.00
C238   C     0.13517   0.75647   0.99061   0.00000  Uiso   1.00
C239   C     0.25686   0.67526   0.03993   0.00000  Uiso   1.00
C240   C     0.03484   0.87668   0.86001   0.00000  Uiso   1.00
C241   C     0.06748   0.96817   0.84399   0.00000  Uiso   1.00
C242   C     0.14985   0.96966   0.80954   0.00000  Uiso   1.00
C243   C     0.28000   0.01184   0.75405   0.00000  Uiso   1.00
C244   C     0.03461   0.69801   0.86480   0.00000  Uiso   1.00
C245   C     0.88325   0.70362   0.86479   0.00000  Uiso   1.00
C246   C     0.79778   0.63254   0.84930   0.00000  Uiso   1.00
C247   C     0.66249   0.65147   0.85220   0.00000  Uiso   1.00
C248   C     0.07733   0.71030   0.90976   0.00000  Uiso   1.00
C249   C     0.15507   0.64484   0.93207   0.00000  Uiso   1.00
C250   C     0.18320   0.66939   0.97283   0.00000  Uiso   1.00
C251   C     0.08278   0.78977   0.84225   0.00000  Uiso   1.00
C252   C     0.16513   0.79112   0.80782   0.00000  Uiso   1.00
C253   C     0.19788   0.88258   0.79175   0.00000  Uiso   1.00
H254   H     0.90903   0.92570   0.91131   0.00000  Uiso   1.00
H255   H     0.66306   0.87685   0.89921   0.00000  Uiso   1.00
H256   H     0.02031   0.88915   0.98196   0.00000  Uiso   1.00
H257   H     0.03036   0.03541   0.85773   0.00000  Uiso   1.00
H258   H     0.41150   0.78434   0.87798   0.00000  Uiso   1.00
H259   H     0.16482   0.81030   0.05247   0.00000  Uiso   1.00
H260   H     0.18602   0.11872   0.79051   0.00000  Uiso   1.00
H261   H     0.07194   0.63034   0.85098   0.00000  Uiso   1.00
H262   H     0.83491   0.56528   0.83557   0.00000  Uiso   1.00
H263   H     0.19216   0.57758   0.91832   0.00000  Uiso   1.00
H264   H     0.20221   0.72384   0.79409   0.00000  Uiso   1.00
H265   H     0.55097   0.53146   0.82633   0.00000  Uiso   1.00
H266   H     0.30431   0.55742   0.00082   0.00000  Uiso   1.00
H267   H     0.32550   0.86583   0.73885   0.00000  Uiso   1.00
O268   O     0.32236   0.62042   0.84312   0.00000  Uiso   1.00
O269   O     0.31072   0.65448   0.07204   0.00000  Uiso   1.00
O270   O     0.33853   0.05912   0.72835   0.00000  Uiso   1.00
N271   N     0.47685   0.73376   0.86793   0.00000  Uiso   1.00
N272   N     0.18115   0.75802   0.03107   0.00000  Uiso   1.00
N273   N     0.20100   0.04637   0.78616   0.00000  Uiso   1.00
N274   N     0.55190   0.59769   0.84014   0.00000  Uiso   1.00
N275   N     0.25620   0.62195   0.00328   0.00000  Uiso   1.00
N276   N     0.27605   0.91030   0.75837   0.00000  Uiso   1.00
C277   C     0.75344   0.65323   0.59583   0.00000  Uiso   1.00
C278   C     0.64628   0.71984   0.61390   0.00000  Uiso   1.00
C279   C     0.51017   0.70501   0.61085   0.00000  Uiso   1.00
C280   C     0.42858   0.77438   0.62947   0.00000  Uiso   1.00
C281   C     0.25416   0.86548   0.65433   0.00000  Uiso   1.00
C282   C     0.83829   0.71840   0.56799   0.00000  Uiso   1.00
C283   C     0.86362   0.70235   0.52634   0.00000  Uiso   1.00
C284   C     0.94367   0.77050   0.50632   0.00000  Uiso   1.00
C285   C     0.06742   0.85932   0.45991   0.00000  Uiso   1.00
C286   C     0.84233   0.62395   0.63199   0.00000  Uiso   1.00
C287   C     0.87110   0.52848   0.64415   0.00000  Uiso   1.00
C288   C     0.95459   0.51711   0.67800   0.00000  Uiso   1.00
C289   C     0.08462   0.45929   0.73096   0.00000  Uiso   1.00
C290   C     0.85058   0.80279   0.63434   0.00000  Uiso   1.00
C291   C     0.69905   0.80108   0.63482   0.00000  Uiso   1.00
C292   C     0.61764   0.87049   0.65345   0.00000  Uiso   1.00
C293   C     0.48143   0.85576   0.65043   0.00000  Uiso   1.00
C294   C     0.89105   0.79964   0.58891   0.00000  Uiso   1.00
C295   C     0.97109   0.86782   0.56895   0.00000  Uiso   1.00
C296   C     0.99653   0.85188   0.52728   0.00000  Uiso   1.00
C297   C     0.89509   0.70519   0.65291   0.00000  Uiso   1.00
C298   C     0.97857   0.69396   0.68675   0.00000  Uiso   1.00
C299   C     0.00745   0.59850   0.69896   0.00000  Uiso   1.00
H300   H     0.71237   0.58999   0.57955   0.00000  Uiso   1.00
H301   H     0.46938   0.64214   0.59466   0.00000  Uiso   1.00
H302   H     0.82279   0.63947   0.51017   0.00000  Uiso   1.00
H303   H     0.83026   0.46564   0.62795   0.00000  Uiso   1.00
H304   H     0.22325   0.73581   0.62062   0.00000  Uiso   1.00
H305   H     0.96845   0.73016   0.44247   0.00000  Uiso   1.00
H306   H     0.98422   0.36360   0.69084   0.00000  Uiso   1.00
H307   H     0.89166   0.86604   0.65063   0.00000  Uiso   1.00
H308   H     0.65850   0.93334   0.66964   0.00000  Uiso   1.00
H309   H     0.01191   0.93067   0.58514   0.00000  Uiso   1.00
H310   H     0.01938   0.75684   0.70293   0.00000  Uiso   1.00
H311   H     0.37674   0.97216   0.68147   0.00000  Uiso   1.00
H312   H     0.12196   0.96651   0.50332   0.00000  Uiso   1.00
H313   H     0.13771   0.59995   0.75170   0.00000  Uiso   1.00
O314   O     0.14338   0.89329   0.66226   0.00000  Uiso   1.00
O315   O     0.12108   0.88587   0.42853   0.00000  Uiso   1.00
O316   O     0.14175   0.40495   0.75440   0.00000  Uiso   1.00
N317   N     0.29137   0.78219   0.63234   0.00000  Uiso   1.00
N318   N     0.98808   0.77691   0.46578   0.00000  Uiso   1.00
N319   N     0.00284   0.43421   0.69798   0.00000  Uiso   1.00
N320   N     0.37396   0.90936   0.66508   0.00000  Uiso   1.00
N321   N     0.07067   0.90409   0.49852   0.00000  Uiso   1.00
N322   N     0.08544   0.56139   0.73073   0.00000  Uiso   1.00
C323   C     0.05365   0.14196   0.39748   0.00000  Uiso   1.00
C324   C     0.16470   0.20946   0.38254   0.00000  Uiso   1.00
C325   C     0.29988   0.19042   0.38547   0.00000  Uiso   1.00
C326   C     0.38553   0.26146   0.36999   0.00000  Uiso   1.00
C327   C     0.56526   0.35306   0.34951   0.00000  Uiso   1.00
C328   C     0.97061   0.20278   0.42751   0.00000  Uiso   1.00
C329   C     0.94258   0.17812   0.46824   0.00000  Uiso   1.00
C330   C     0.86483   0.24353   0.49061   0.00000  Uiso   1.00
C331   C     0.74314   0.32474   0.53993   0.00000  Uiso   1.00
C332   C     0.96516   0.12332   0.36001   0.00000  Uiso   1.00
C333   C     0.93252   0.03183   0.34399   0.00000  Uiso   1.00
C334   C     0.85015   0.03034   0.30954   0.00000  Uiso   1.00
C335   C     0.72000   0.98816   0.25405   0.00000  Uiso   1.00
C336   C     0.96539   0.30199   0.36480   0.00000  Uiso   1.00
C337   C     0.11675   0.29638   0.36479   0.00000  Uiso   1.00
C338   C     0.20222   0.36746   0.34930   0.00000  Uiso   1.00
C339   C     0.33751   0.34853   0.35220   0.00000  Uiso   1.00
C340   C     0.92267   0.28970   0.40976   0.00000  Uiso   1.00
C341   C     0.84493   0.35516   0.43207   0.00000  Uiso   1.00
C342   C     0.81680   0.33061   0.47283   0.00000  Uiso   1.00
C343   C     0.91722   0.21023   0.34225   0.00000  Uiso   1.00
C344   C     0.83487   0.20888   0.30782   0.00000  Uiso   1.00
C345   C     0.80212   0.11742   0.29175   0.00000  Uiso   1.00
H346   H     0.09097   0.07430   0.41131   0.00000  Uiso   1.00
H347   H     0.33694   0.12315   0.39921   0.00000  Uiso   1.00
H348   H     0.97969   0.11085   0.48196   0.00000  Uiso   1.00
H349   H     0.96964   0.96459   0.35773   0.00000  Uiso   1.00
H350   H     0.58850   0.21566   0.37798   0.00000  Uiso   1.00
H351   H     0.83518   0.18970   0.55247   0.00000  Uiso   1.00
H352   H     0.81398   0.88128   0.29051   0.00000  Uiso   1.00
H353   H     0.92806   0.36966   0.35098   0.00000  Uiso   1.00
H354   H     0.16509   0.43472   0.33557   0.00000  Uiso   1.00
H355   H     0.80784   0.42242   0.41832   0.00000  Uiso   1.00
H356   H     0.79779   0.27616   0.29409   0.00000  Uiso   1.00
H357   H     0.44903   0.46854   0.32633   0.00000  Uiso   1.00
H358   H     0.69569   0.44258   0.50082   0.00000  Uiso   1.00
H359   H     0.67450   0.13417   0.23885   0.00000  Uiso   1.00
O360   O     0.67764   0.37958   0.34312   0.00000  Uiso   1.00
O361   O     0.68928   0.34552   0.57204   0.00000  Uiso   1.00
O362   O     0.66147   0.94088   0.22835   0.00000  Uiso   1.00
N363   N     0.52315   0.26624   0.36793   0.00000  Uiso   1.00
N364   N     0.81885   0.24198   0.53107   0.00000  Uiso   1.00
N365   N     0.79900   0.95363   0.28616   0.00000  Uiso   1.00
N366   N     0.44810   0.40231   0.34014   0.00000  Uiso   1.00
N367   N     0.74380   0.37805   0.50328   0.00000  Uiso   1.00
N368   N     0.72395   0.08970   0.25837   0.00000  Uiso   1.00
