data_job_01308
_audit_creation_date              2018-12-19
_audit_creation_method            'Materials Studio'
_symmetry_space_group_name_H-M    'P1'
_symmetry_Int_Tables_number       1
_symmetry_cell_setting            triclinic
loop_
_symmetry_equiv_pos_as_xyz
  x,y,z
_cell_length_a                    12.4498
_cell_length_b                    6.9705
_cell_length_c                    21.8042
_cell_angle_alpha                 90.0000
_cell_angle_beta                  73.4255
_cell_angle_gamma                 90.0000
loop_
_atom_site_label
_atom_site_type_symbol
_atom_site_fract_x
_atom_site_fract_y
_atom_site_fract_z
_atom_site_U_iso_or_equiv
_atom_site_adp_type
_atom_site_occupancy
C1     C     0.36510   0.70808   0.82464   0.00000  Uiso   1.00
C2     C     0.24143   0.74352   0.85828   0.00000  Uiso   1.00
C3     C     0.16330   0.60431   0.88658   0.00000  Uiso   1.00
C4     C     0.05433   0.66582   0.91488   0.00000  Uiso   1.00
C5     C     0.86679   0.69136   0.96709   0.00000  Uiso   1.00
C6     C     0.38627   0.78948   0.75732   0.00000  Uiso   1.00
C7     C     0.42994   0.68891   0.70074   0.00000  Uiso   1.00
C8     C     0.44291   0.78913   0.64406   0.00000  Uiso   1.00
C9     C     0.48033   0.88606   0.53952   0.00000  Uiso   1.00
C10    C     0.43019   0.83574   0.85827   0.00000  Uiso   1.00
C11    C     0.51081   0.77409   0.88657   0.00000  Uiso   1.00
C12    C     0.56078   0.91326   0.91487   0.00000  Uiso   1.00
C13    C     0.66638   0.08201   0.96708   0.00000  Uiso   1.00
C14    C     0.31050   0.06486   0.82457   0.00000  Uiso   1.00
C15    C     0.21177   0.93731   0.85824   0.00000  Uiso   1.00
C16    C     0.10289   0.99905   0.88651   0.00000  Uiso   1.00
C17    C     0.02462   0.85996   0.91485   0.00000  Uiso   1.00
C18    C     0.35661   0.98326   0.75728   0.00000  Uiso   1.00
C19    C     0.36953   0.08365   0.70067   0.00000  Uiso   1.00
C20    C     0.41320   0.98327   0.64402   0.00000  Uiso   1.00
C21    C     0.40053   0.02953   0.85824   0.00000  Uiso   1.00
C22    C     0.45039   0.16883   0.88649   0.00000  Uiso   1.00
C23    C     0.53107   0.10740   0.91483   0.00000  Uiso   1.00
H24    H     0.38820   0.55720   0.82466   0.00000  Uiso   1.00
H25    H     0.18629   0.45435   0.88659   0.00000  Uiso   1.00
H26    H     0.45290   0.53895   0.70078   0.00000  Uiso   1.00
H27    H     0.53374   0.62411   0.88658   0.00000  Uiso   1.00
H28    H     0.94935   0.42577   0.95522   0.00000  Uiso   1.00
H29    H     0.51154   0.60418   0.56343   0.00000  Uiso   1.00
H30    H     0.68203   0.78375   0.95522   0.00000  Uiso   1.00
H31    H     0.28741   0.21574   0.82454   0.00000  Uiso   1.00
H32    H     0.07996   0.14903   0.88647   0.00000  Uiso   1.00
H33    H     0.34657   0.23362   0.70066   0.00000  Uiso   1.00
H34    H     0.42742   0.31878   0.88646   0.00000  Uiso   1.00
H35    H     0.86304   0.98960   0.95511   0.00000  Uiso   1.00
H36    H     0.42525   0.16800   0.56332   0.00000  Uiso   1.00
H37    H     0.59573   0.34757   0.95512   0.00000  Uiso   1.00
O38    O     0.77154   0.65191   0.99588   0.00000  Uiso   1.00
O39    O     0.50914   0.88597   0.48187   0.00000  Uiso   1.00
O40    O     0.73281   0.12156   0.99590   0.00000  Uiso   1.00
N41    N     0.95751   0.56763   0.94670   0.00000  Uiso   1.00
N42    N     0.48311   0.73442   0.58040   0.00000  Uiso   1.00
N43    N     0.64252   0.90231   0.94669   0.00000  Uiso   1.00
N44    N     0.91107   0.87102   0.94665   0.00000  Uiso   1.00
N45    N     0.43668   0.03780   0.58035   0.00000  Uiso   1.00
N46    N     0.59609   0.20569   0.94663   0.00000  Uiso   1.00
C47    C     0.63490   0.20808   0.17536   0.00000  Uiso   1.00
C48    C     0.75857   0.24352   0.14172   0.00000  Uiso   1.00
C49    C     0.83670   0.10431   0.11342   0.00000  Uiso   1.00
C50    C     0.94567   0.16582   0.08512   0.00000  Uiso   1.00
C51    C     0.13321   0.19136   0.03291   0.00000  Uiso   1.00
C52    C     0.61373   0.28948   0.24268   0.00000  Uiso   1.00
C53    C     0.57006   0.18891   0.29926   0.00000  Uiso   1.00
C54    C     0.55709   0.28913   0.35594   0.00000  Uiso   1.00
C55    C     0.51967   0.38606   0.46048   0.00000  Uiso   1.00
C56    C     0.56981   0.33574   0.14173   0.00000  Uiso   1.00
C57    C     0.48919   0.27409   0.11343   0.00000  Uiso   1.00
C58    C     0.43922   0.41326   0.08513   0.00000  Uiso   1.00
C59    C     0.33362   0.58201   0.03292   0.00000  Uiso   1.00
C60    C     0.68950   0.56486   0.17543   0.00000  Uiso   1.00
C61    C     0.78823   0.43731   0.14176   0.00000  Uiso   1.00
C62    C     0.89711   0.49905   0.11349   0.00000  Uiso   1.00
C63    C     0.97538   0.35996   0.08515   0.00000  Uiso   1.00
C64    C     0.64339   0.48326   0.24272   0.00000  Uiso   1.00
C65    C     0.63047   0.58365   0.29933   0.00000  Uiso   1.00
C66    C     0.58680   0.48327   0.35598   0.00000  Uiso   1.00
C67    C     0.59947   0.52953   0.14176   0.00000  Uiso   1.00
C68    C     0.54961   0.66883   0.11351   0.00000  Uiso   1.00
C69    C     0.46893   0.60740   0.08517   0.00000  Uiso   1.00
H70    H     0.61180   0.05720   0.17534   0.00000  Uiso   1.00
H71    H     0.81371   0.95435   0.11341   0.00000  Uiso   1.00
H72    H     0.54710   0.03895   0.29922   0.00000  Uiso   1.00
H73    H     0.46626   0.12411   0.11342   0.00000  Uiso   1.00
H74    H     0.05065   0.92577   0.04478   0.00000  Uiso   1.00
H75    H     0.48846   0.10418   0.43657   0.00000  Uiso   1.00
H76    H     0.31797   0.28375   0.04478   0.00000  Uiso   1.00
H77    H     0.71259   0.71574   0.17546   0.00000  Uiso   1.00
H78    H     0.92004   0.64903   0.11353   0.00000  Uiso   1.00
H79    H     0.65343   0.73362   0.29934   0.00000  Uiso   1.00
H80    H     0.57258   0.81878   0.11354   0.00000  Uiso   1.00
H81    H     0.13696   0.48960   0.04489   0.00000  Uiso   1.00
H82    H     0.57475   0.66800   0.43668   0.00000  Uiso   1.00
H83    H     0.40427   0.84757   0.04488   0.00000  Uiso   1.00
O84    O     0.22846   0.15191   0.00412   0.00000  Uiso   1.00
O85    O     0.49086   0.38597   0.51813   0.00000  Uiso   1.00
O86    O     0.26719   0.62156   0.00410   0.00000  Uiso   1.00
N87    N     0.04249   0.06763   0.05330   0.00000  Uiso   1.00
N88    N     0.51689   0.23442   0.41960   0.00000  Uiso   1.00
N89    N     0.35748   0.40231   0.05331   0.00000  Uiso   1.00
N90    N     0.08893   0.37102   0.05335   0.00000  Uiso   1.00
N91    N     0.56332   0.53780   0.41965   0.00000  Uiso   1.00
N92    N     0.40391   0.70569   0.05337   0.00000  Uiso   1.00
