data_job_00214
_audit_creation_date              2018-12-19
_audit_creation_method            'Materials Studio'
_symmetry_space_group_name_H-M    'P1'
_symmetry_Int_Tables_number       1
_symmetry_cell_setting            triclinic
loop_
_symmetry_equiv_pos_as_xyz
  x,y,z
_cell_length_a                    20.9291
_cell_length_b                    14.8513
_cell_length_c                    18.5161
_cell_angle_alpha                 90.0000
_cell_angle_beta                  99.0308
_cell_angle_gamma                 90.0000
loop_
_atom_site_label
_atom_site_type_symbol
_atom_site_fract_x
_atom_site_fract_y
_atom_site_fract_z
_atom_site_U_iso_or_equiv
_atom_site_adp_type
_atom_site_occupancy
C1     C     0.82523   0.12213   0.30527   0.00000  Uiso   1.00
C2     C     0.86257   0.19883   0.34739   0.00000  Uiso   1.00
C3     C     0.88506   0.19988   0.42200   0.00000  Uiso   1.00
C4     C     0.91815   0.27635   0.45012   0.00000  Uiso   1.00
C5     C     0.97455   0.38441   0.52237   0.00000  Uiso   1.00
C6     C     0.76225   0.16326   0.26669   0.00000  Uiso   1.00
C7     C     0.70039   0.13439   0.27343   0.00000  Uiso   1.00
C8     C     0.64904   0.18092   0.23361   0.00000  Uiso   1.00
C9     C     0.54968   0.23371   0.18053   0.00000  Uiso   1.00
C10    C     0.86374   0.09609   0.24503   0.00000  Uiso   1.00
C11    C     0.88720   0.01074   0.23354   0.00000  Uiso   1.00
C12    C     0.92128   0.00071   0.17547   0.00000  Uiso   1.00
C13    C     0.97950   0.94921   0.08876   0.00000  Uiso   1.00
C14    C     0.84401   0.25609   0.22254   0.00000  Uiso   1.00
C15    C     0.87276   0.27159   0.30246   0.00000  Uiso   1.00
C16    C     0.90583   0.34809   0.33048   0.00000  Uiso   1.00
C17    C     0.92837   0.34925   0.40511   0.00000  Uiso   1.00
C18    C     0.77244   0.23602   0.22176   0.00000  Uiso   1.00
C19    C     0.72117   0.28260   0.18191   0.00000  Uiso   1.00
C20    C     0.65925   0.25381   0.18860   0.00000  Uiso   1.00
C21    C     0.87394   0.16886   0.20010   0.00000  Uiso   1.00
C22    C     0.90798   0.15896   0.14202   0.00000  Uiso   1.00
C23    C     0.93149   0.07361   0.13046   0.00000  Uiso   1.00
H24    H     0.81729   0.06548   0.34025   0.00000  Uiso   1.00
H25    H     0.87715   0.14356   0.45675   0.00000  Uiso   1.00
H26    H     0.69252   0.07808   0.30820   0.00000  Uiso   1.00
H27    H     0.87930   0.95445   0.26833   0.00000  Uiso   1.00
H28    H     0.94800   0.26222   0.56611   0.00000  Uiso   1.00
H29    H     0.55869   0.12413   0.25287   0.00000  Uiso   1.00
H30    H     0.95255   0.86344   0.16877   0.00000  Uiso   1.00
H31    H     0.85195   0.31274   0.18756   0.00000  Uiso   1.00
H32    H     0.91372   0.40439   0.29569   0.00000  Uiso   1.00
H33    H     0.72908   0.33890   0.14714   0.00000  Uiso   1.00
H34    H     0.91586   0.21528   0.10726   0.00000  Uiso   1.00
H35    H     0.97767   0.47392   0.43539   0.00000  Uiso   1.00
H36    H     0.58836   0.33583   0.12215   0.00000  Uiso   1.00
H37    H     0.98223   0.07514   0.03805   0.00000  Uiso   1.00
O38    O     0.00283   0.42391   0.57464   0.00000  Uiso   1.00
O39    O     0.49206   0.24273   0.16367   0.00000  Uiso   1.00
O40    O     0.00881   0.90071   0.05334   0.00000  Uiso   1.00
N41    N     0.94652   0.29946   0.52051   0.00000  Uiso   1.00
N42    N     0.58253   0.17036   0.22765   0.00000  Uiso   1.00
N43    N     0.95075   0.92663   0.14902   0.00000  Uiso   1.00
N44    N     0.96249   0.41337   0.45016   0.00000  Uiso   1.00
N45    N     0.59850   0.28428   0.15731   0.00000  Uiso   1.00
N46    N     0.96672   0.04054   0.07868   0.00000  Uiso   1.00
C47    C     0.32523   0.62213   0.30527   0.00000  Uiso   1.00
C48    C     0.36257   0.69883   0.34739   0.00000  Uiso   1.00
C49    C     0.38506   0.69988   0.42200   0.00000  Uiso   1.00
C50    C     0.41815   0.77635   0.45012   0.00000  Uiso   1.00
C51    C     0.47455   0.88441   0.52237   0.00000  Uiso   1.00
C52    C     0.26225   0.66326   0.26669   0.00000  Uiso   1.00
C53    C     0.20039   0.63439   0.27343   0.00000  Uiso   1.00
C54    C     0.14904   0.68092   0.23361   0.00000  Uiso   1.00
C55    C     0.04968   0.73371   0.18053   0.00000  Uiso   1.00
C56    C     0.36374   0.59609   0.24503   0.00000  Uiso   1.00
C57    C     0.38720   0.51074   0.23354   0.00000  Uiso   1.00
C58    C     0.42128   0.50071   0.17547   0.00000  Uiso   1.00
C59    C     0.47950   0.44921   0.08876   0.00000  Uiso   1.00
C60    C     0.34401   0.75609   0.22254   0.00000  Uiso   1.00
C61    C     0.37276   0.77159   0.30246   0.00000  Uiso   1.00
C62    C     0.40583   0.84809   0.33048   0.00000  Uiso   1.00
C63    C     0.42837   0.84925   0.40511   0.00000  Uiso   1.00
C64    C     0.27244   0.73602   0.22176   0.00000  Uiso   1.00
C65    C     0.22117   0.78260   0.18191   0.00000  Uiso   1.00
C66    C     0.15925   0.75381   0.18860   0.00000  Uiso   1.00
C67    C     0.37394   0.66886   0.20010   0.00000  Uiso   1.00
C68    C     0.40798   0.65896   0.14202   0.00000  Uiso   1.00
C69    C     0.43149   0.57361   0.13046   0.00000  Uiso   1.00
H70    H     0.31729   0.56548   0.34025   0.00000  Uiso   1.00
H71    H     0.37715   0.64356   0.45675   0.00000  Uiso   1.00
H72    H     0.19252   0.57808   0.30820   0.00000  Uiso   1.00
H73    H     0.37930   0.45445   0.26833   0.00000  Uiso   1.00
H74    H     0.44800   0.76222   0.56611   0.00000  Uiso   1.00
H75    H     0.05869   0.62413   0.25287   0.00000  Uiso   1.00
H76    H     0.45255   0.36344   0.16877   0.00000  Uiso   1.00
H77    H     0.35195   0.81274   0.18756   0.00000  Uiso   1.00
H78    H     0.41372   0.90439   0.29569   0.00000  Uiso   1.00
H79    H     0.22908   0.83890   0.14714   0.00000  Uiso   1.00
H80    H     0.41586   0.71528   0.10726   0.00000  Uiso   1.00
H81    H     0.47767   0.97392   0.43539   0.00000  Uiso   1.00
H82    H     0.08836   0.83583   0.12215   0.00000  Uiso   1.00
H83    H     0.48223   0.57514   0.03805   0.00000  Uiso   1.00
O84    O     0.50283   0.92391   0.57464   0.00000  Uiso   1.00
O85    O     0.99206   0.74273   0.16367   0.00000  Uiso   1.00
O86    O     0.50881   0.40071   0.05334   0.00000  Uiso   1.00
N87    N     0.44652   0.79946   0.52051   0.00000  Uiso   1.00
N88    N     0.08253   0.67036   0.22765   0.00000  Uiso   1.00
N89    N     0.45075   0.42663   0.14902   0.00000  Uiso   1.00
N90    N     0.46249   0.91337   0.45016   0.00000  Uiso   1.00
N91    N     0.09850   0.78428   0.15731   0.00000  Uiso   1.00
N92    N     0.46672   0.54054   0.07868   0.00000  Uiso   1.00
C93    C     0.17477   0.12213   0.19473   0.00000  Uiso   1.00
C94    C     0.13743   0.19883   0.15261   0.00000  Uiso   1.00
C95    C     0.11494   0.19988   0.07800   0.00000  Uiso   1.00
C96    C     0.08185   0.27635   0.04988   0.00000  Uiso   1.00
C97    C     0.02545   0.38441   0.97763   0.00000  Uiso   1.00
C98    C     0.23775   0.16326   0.23331   0.00000  Uiso   1.00
C99    C     0.29961   0.13439   0.22657   0.00000  Uiso   1.00
C100   C     0.35096   0.18092   0.26639   0.00000  Uiso   1.00
C101   C     0.45032   0.23371   0.31947   0.00000  Uiso   1.00
C102   C     0.13626   0.09609   0.25497   0.00000  Uiso   1.00
C103   C     0.11280   0.01074   0.26646   0.00000  Uiso   1.00
C104   C     0.07872   0.00071   0.32453   0.00000  Uiso   1.00
C105   C     0.02050   0.94921   0.41124   0.00000  Uiso   1.00
C106   C     0.15599   0.25609   0.27746   0.00000  Uiso   1.00
C107   C     0.12724   0.27159   0.19754   0.00000  Uiso   1.00
C108   C     0.09417   0.34809   0.16952   0.00000  Uiso   1.00
C109   C     0.07163   0.34925   0.09489   0.00000  Uiso   1.00
C110   C     0.22756   0.23602   0.27824   0.00000  Uiso   1.00
C111   C     0.27883   0.28260   0.31809   0.00000  Uiso   1.00
C112   C     0.34075   0.25381   0.31140   0.00000  Uiso   1.00
C113   C     0.12606   0.16886   0.29990   0.00000  Uiso   1.00
C114   C     0.09202   0.15896   0.35798   0.00000  Uiso   1.00
C115   C     0.06851   0.07361   0.36954   0.00000  Uiso   1.00
H116   H     0.18271   0.06548   0.15975   0.00000  Uiso   1.00
H117   H     0.12285   0.14356   0.04325   0.00000  Uiso   1.00
H118   H     0.30748   0.07808   0.19180   0.00000  Uiso   1.00
H119   H     0.12070   0.95445   0.23167   0.00000  Uiso   1.00
H120   H     0.05200   0.26222   0.93389   0.00000  Uiso   1.00
H121   H     0.44131   0.12413   0.24713   0.00000  Uiso   1.00
H122   H     0.04745   0.86344   0.33123   0.00000  Uiso   1.00
H123   H     0.14805   0.31274   0.31244   0.00000  Uiso   1.00
H124   H     0.08628   0.40439   0.20431   0.00000  Uiso   1.00
H125   H     0.27092   0.33890   0.35286   0.00000  Uiso   1.00
H126   H     0.08414   0.21528   0.39274   0.00000  Uiso   1.00
H127   H     0.02233   0.47392   0.06461   0.00000  Uiso   1.00
H128   H     0.41164   0.33583   0.37785   0.00000  Uiso   1.00
H129   H     0.01777   0.07514   0.46195   0.00000  Uiso   1.00
O130   O     0.99717   0.42391   0.92536   0.00000  Uiso   1.00
O131   O     0.50794   0.24273   0.33633   0.00000  Uiso   1.00
O132   O     0.99119   0.90071   0.44666   0.00000  Uiso   1.00
N133   N     0.05348   0.29946   0.97949   0.00000  Uiso   1.00
N134   N     0.41747   0.17036   0.27235   0.00000  Uiso   1.00
N135   N     0.04925   0.92663   0.35098   0.00000  Uiso   1.00
N136   N     0.03751   0.41337   0.04984   0.00000  Uiso   1.00
N137   N     0.40150   0.28428   0.34269   0.00000  Uiso   1.00
N138   N     0.03328   0.04054   0.42132   0.00000  Uiso   1.00
C139   C     0.67477   0.62213   0.19473   0.00000  Uiso   1.00
C140   C     0.63743   0.69883   0.15261   0.00000  Uiso   1.00
C141   C     0.61494   0.69988   0.07800   0.00000  Uiso   1.00
C142   C     0.58185   0.77635   0.04988   0.00000  Uiso   1.00
C143   C     0.52545   0.88441   0.97763   0.00000  Uiso   1.00
C144   C     0.73775   0.66326   0.23331   0.00000  Uiso   1.00
C145   C     0.79961   0.63439   0.22657   0.00000  Uiso   1.00
C146   C     0.85096   0.68092   0.26639   0.00000  Uiso   1.00
C147   C     0.95032   0.73371   0.31947   0.00000  Uiso   1.00
C148   C     0.63626   0.59609   0.25497   0.00000  Uiso   1.00
C149   C     0.61280   0.51074   0.26646   0.00000  Uiso   1.00
C150   C     0.57872   0.50071   0.32453   0.00000  Uiso   1.00
C151   C     0.52050   0.44921   0.41124   0.00000  Uiso   1.00
C152   C     0.65599   0.75609   0.27746   0.00000  Uiso   1.00
C153   C     0.62724   0.77159   0.19754   0.00000  Uiso   1.00
C154   C     0.59417   0.84809   0.16952   0.00000  Uiso   1.00
C155   C     0.57163   0.84925   0.09489   0.00000  Uiso   1.00
C156   C     0.72756   0.73602   0.27824   0.00000  Uiso   1.00
C157   C     0.77883   0.78260   0.31809   0.00000  Uiso   1.00
C158   C     0.84075   0.75381   0.31140   0.00000  Uiso   1.00
C159   C     0.62606   0.66886   0.29990   0.00000  Uiso   1.00
C160   C     0.59202   0.65896   0.35798   0.00000  Uiso   1.00
C161   C     0.56851   0.57361   0.36954   0.00000  Uiso   1.00
H162   H     0.68271   0.56548   0.15975   0.00000  Uiso   1.00
H163   H     0.62285   0.64356   0.04325   0.00000  Uiso   1.00
H164   H     0.80748   0.57808   0.19180   0.00000  Uiso   1.00
H165   H     0.62070   0.45445   0.23167   0.00000  Uiso   1.00
H166   H     0.55200   0.76222   0.93389   0.00000  Uiso   1.00
H167   H     0.94131   0.62413   0.24713   0.00000  Uiso   1.00
H168   H     0.54745   0.36344   0.33123   0.00000  Uiso   1.00
H169   H     0.64805   0.81274   0.31244   0.00000  Uiso   1.00
H170   H     0.58628   0.90439   0.20431   0.00000  Uiso   1.00
H171   H     0.77092   0.83890   0.35286   0.00000  Uiso   1.00
H172   H     0.58414   0.71528   0.39274   0.00000  Uiso   1.00
H173   H     0.52233   0.97392   0.06461   0.00000  Uiso   1.00
H174   H     0.91164   0.83583   0.37785   0.00000  Uiso   1.00
H175   H     0.51777   0.57514   0.46195   0.00000  Uiso   1.00
O176   O     0.49717   0.92391   0.92536   0.00000  Uiso   1.00
O177   O     0.00794   0.74273   0.33633   0.00000  Uiso   1.00
O178   O     0.49119   0.40071   0.44666   0.00000  Uiso   1.00
N179   N     0.55348   0.79946   0.97949   0.00000  Uiso   1.00
N180   N     0.91747   0.67036   0.27235   0.00000  Uiso   1.00
N181   N     0.54925   0.42663   0.35098   0.00000  Uiso   1.00
N182   N     0.53751   0.91337   0.04984   0.00000  Uiso   1.00
N183   N     0.90150   0.78428   0.34269   0.00000  Uiso   1.00
N184   N     0.53328   0.54054   0.42132   0.00000  Uiso   1.00
C185   C     0.17477   0.87787   0.69473   0.00000  Uiso   1.00
C186   C     0.13743   0.80117   0.65261   0.00000  Uiso   1.00
C187   C     0.11494   0.80012   0.57800   0.00000  Uiso   1.00
C188   C     0.08185   0.72365   0.54988   0.00000  Uiso   1.00
C189   C     0.02545   0.61559   0.47763   0.00000  Uiso   1.00
C190   C     0.23775   0.83674   0.73331   0.00000  Uiso   1.00
C191   C     0.29961   0.86561   0.72657   0.00000  Uiso   1.00
C192   C     0.35096   0.81908   0.76639   0.00000  Uiso   1.00
C193   C     0.45032   0.76629   0.81947   0.00000  Uiso   1.00
C194   C     0.13626   0.90391   0.75497   0.00000  Uiso   1.00
C195   C     0.11280   0.98926   0.76646   0.00000  Uiso   1.00
C196   C     0.07872   0.99929   0.82453   0.00000  Uiso   1.00
C197   C     0.02050   0.05079   0.91124   0.00000  Uiso   1.00
C198   C     0.15599   0.74391   0.77746   0.00000  Uiso   1.00
C199   C     0.12724   0.72841   0.69754   0.00000  Uiso   1.00
C200   C     0.09417   0.65191   0.66952   0.00000  Uiso   1.00
C201   C     0.07163   0.65075   0.59489   0.00000  Uiso   1.00
C202   C     0.22756   0.76398   0.77824   0.00000  Uiso   1.00
C203   C     0.27883   0.71740   0.81809   0.00000  Uiso   1.00
C204   C     0.34075   0.74619   0.81140   0.00000  Uiso   1.00
C205   C     0.12606   0.83114   0.79990   0.00000  Uiso   1.00
C206   C     0.09202   0.84104   0.85798   0.00000  Uiso   1.00
C207   C     0.06851   0.92639   0.86954   0.00000  Uiso   1.00
H208   H     0.18271   0.93452   0.65975   0.00000  Uiso   1.00
H209   H     0.12285   0.85644   0.54325   0.00000  Uiso   1.00
H210   H     0.30748   0.92192   0.69180   0.00000  Uiso   1.00
H211   H     0.12070   0.04555   0.73167   0.00000  Uiso   1.00
H212   H     0.05200   0.73778   0.43389   0.00000  Uiso   1.00
H213   H     0.44131   0.87587   0.74713   0.00000  Uiso   1.00
H214   H     0.04745   0.13656   0.83123   0.00000  Uiso   1.00
H215   H     0.14805   0.68726   0.81244   0.00000  Uiso   1.00
H216   H     0.08628   0.59561   0.70431   0.00000  Uiso   1.00
H217   H     0.27092   0.66110   0.85286   0.00000  Uiso   1.00
H218   H     0.08414   0.78472   0.89274   0.00000  Uiso   1.00
H219   H     0.02233   0.52608   0.56461   0.00000  Uiso   1.00
H220   H     0.41164   0.66417   0.87785   0.00000  Uiso   1.00
H221   H     0.01777   0.92486   0.96195   0.00000  Uiso   1.00
O222   O     0.99717   0.57609   0.42536   0.00000  Uiso   1.00
O223   O     0.50794   0.75727   0.83633   0.00000  Uiso   1.00
O224   O     0.99119   0.09929   0.94666   0.00000  Uiso   1.00
N225   N     0.05348   0.70054   0.47949   0.00000  Uiso   1.00
N226   N     0.41747   0.82964   0.77235   0.00000  Uiso   1.00
N227   N     0.04925   0.07337   0.85098   0.00000  Uiso   1.00
N228   N     0.03751   0.58663   0.54984   0.00000  Uiso   1.00
N229   N     0.40150   0.71572   0.84269   0.00000  Uiso   1.00
N230   N     0.03328   0.95946   0.92132   0.00000  Uiso   1.00
C231   C     0.67477   0.37787   0.69473   0.00000  Uiso   1.00
C232   C     0.63743   0.30117   0.65261   0.00000  Uiso   1.00
C233   C     0.61494   0.30012   0.57800   0.00000  Uiso   1.00
C234   C     0.58185   0.22365   0.54988   0.00000  Uiso   1.00
C235   C     0.52545   0.11559   0.47763   0.00000  Uiso   1.00
C236   C     0.73775   0.33674   0.73331   0.00000  Uiso   1.00
C237   C     0.79961   0.36561   0.72657   0.00000  Uiso   1.00
C238   C     0.85096   0.31908   0.76639   0.00000  Uiso   1.00
C239   C     0.95032   0.26629   0.81947   0.00000  Uiso   1.00
C240   C     0.63626   0.40391   0.75497   0.00000  Uiso   1.00
C241   C     0.61280   0.48926   0.76646   0.00000  Uiso   1.00
C242   C     0.57872   0.49929   0.82453   0.00000  Uiso   1.00
C243   C     0.52050   0.55079   0.91124   0.00000  Uiso   1.00
C244   C     0.65599   0.24391   0.77746   0.00000  Uiso   1.00
C245   C     0.62724   0.22841   0.69754   0.00000  Uiso   1.00
C246   C     0.59417   0.15191   0.66952   0.00000  Uiso   1.00
C247   C     0.57163   0.15075   0.59489   0.00000  Uiso   1.00
C248   C     0.72756   0.26398   0.77824   0.00000  Uiso   1.00
C249   C     0.77883   0.21740   0.81809   0.00000  Uiso   1.00
C250   C     0.84075   0.24619   0.81140   0.00000  Uiso   1.00
C251   C     0.62606   0.33114   0.79990   0.00000  Uiso   1.00
C252   C     0.59202   0.34104   0.85798   0.00000  Uiso   1.00
C253   C     0.56851   0.42639   0.86954   0.00000  Uiso   1.00
H254   H     0.68271   0.43452   0.65975   0.00000  Uiso   1.00
H255   H     0.62285   0.35644   0.54325   0.00000  Uiso   1.00
H256   H     0.80748   0.42192   0.69180   0.00000  Uiso   1.00
H257   H     0.62070   0.54555   0.73167   0.00000  Uiso   1.00
H258   H     0.55200   0.23778   0.43389   0.00000  Uiso   1.00
H259   H     0.94131   0.37587   0.74713   0.00000  Uiso   1.00
H260   H     0.54745   0.63656   0.83123   0.00000  Uiso   1.00
H261   H     0.64805   0.18726   0.81244   0.00000  Uiso   1.00
H262   H     0.58628   0.09561   0.70431   0.00000  Uiso   1.00
H263   H     0.77092   0.16110   0.85286   0.00000  Uiso   1.00
H264   H     0.58414   0.28472   0.89274   0.00000  Uiso   1.00
H265   H     0.52233   0.02608   0.56461   0.00000  Uiso   1.00
H266   H     0.91164   0.16417   0.87785   0.00000  Uiso   1.00
H267   H     0.51777   0.42486   0.96195   0.00000  Uiso   1.00
O268   O     0.49717   0.07609   0.42536   0.00000  Uiso   1.00
O269   O     0.00794   0.25727   0.83633   0.00000  Uiso   1.00
O270   O     0.49119   0.59929   0.94666   0.00000  Uiso   1.00
N271   N     0.55348   0.20054   0.47949   0.00000  Uiso   1.00
N272   N     0.91747   0.32964   0.77235   0.00000  Uiso   1.00
N273   N     0.54925   0.57337   0.85098   0.00000  Uiso   1.00
N274   N     0.53751   0.08663   0.54984   0.00000  Uiso   1.00
N275   N     0.90150   0.21572   0.84269   0.00000  Uiso   1.00
N276   N     0.53328   0.45946   0.92132   0.00000  Uiso   1.00
C277   C     0.82523   0.87787   0.80527   0.00000  Uiso   1.00
C278   C     0.86257   0.80117   0.84739   0.00000  Uiso   1.00
C279   C     0.88506   0.80012   0.92200   0.00000  Uiso   1.00
C280   C     0.91815   0.72365   0.95012   0.00000  Uiso   1.00
C281   C     0.97455   0.61559   0.02237   0.00000  Uiso   1.00
C282   C     0.76225   0.83674   0.76669   0.00000  Uiso   1.00
C283   C     0.70039   0.86561   0.77343   0.00000  Uiso   1.00
C284   C     0.64904   0.81908   0.73361   0.00000  Uiso   1.00
C285   C     0.54968   0.76629   0.68053   0.00000  Uiso   1.00
C286   C     0.86374   0.90391   0.74503   0.00000  Uiso   1.00
C287   C     0.88720   0.98926   0.73354   0.00000  Uiso   1.00
C288   C     0.92128   0.99929   0.67547   0.00000  Uiso   1.00
C289   C     0.97950   0.05079   0.58876   0.00000  Uiso   1.00
C290   C     0.84401   0.74391   0.72254   0.00000  Uiso   1.00
C291   C     0.87276   0.72841   0.80246   0.00000  Uiso   1.00
C292   C     0.90583   0.65191   0.83048   0.00000  Uiso   1.00
C293   C     0.92837   0.65075   0.90511   0.00000  Uiso   1.00
C294   C     0.77244   0.76398   0.72176   0.00000  Uiso   1.00
C295   C     0.72117   0.71740   0.68191   0.00000  Uiso   1.00
C296   C     0.65925   0.74619   0.68860   0.00000  Uiso   1.00
C297   C     0.87394   0.83114   0.70010   0.00000  Uiso   1.00
C298   C     0.90798   0.84104   0.64202   0.00000  Uiso   1.00
C299   C     0.93149   0.92639   0.63046   0.00000  Uiso   1.00
H300   H     0.81729   0.93452   0.84025   0.00000  Uiso   1.00
H301   H     0.87715   0.85644   0.95675   0.00000  Uiso   1.00
H302   H     0.69252   0.92192   0.80820   0.00000  Uiso   1.00
H303   H     0.87930   0.04555   0.76833   0.00000  Uiso   1.00
H304   H     0.94800   0.73778   0.06611   0.00000  Uiso   1.00
H305   H     0.55869   0.87587   0.75287   0.00000  Uiso   1.00
H306   H     0.95255   0.13656   0.66877   0.00000  Uiso   1.00
H307   H     0.85195   0.68726   0.68756   0.00000  Uiso   1.00
H308   H     0.91372   0.59561   0.79569   0.00000  Uiso   1.00
H309   H     0.72908   0.66110   0.64714   0.00000  Uiso   1.00
H310   H     0.91586   0.78472   0.60726   0.00000  Uiso   1.00
H311   H     0.97767   0.52608   0.93539   0.00000  Uiso   1.00
H312   H     0.58836   0.66417   0.62215   0.00000  Uiso   1.00
H313   H     0.98223   0.92486   0.53805   0.00000  Uiso   1.00
O314   O     0.00283   0.57609   0.07464   0.00000  Uiso   1.00
O315   O     0.49206   0.75727   0.66367   0.00000  Uiso   1.00
O316   O     0.00881   0.09929   0.55334   0.00000  Uiso   1.00
N317   N     0.94652   0.70054   0.02051   0.00000  Uiso   1.00
N318   N     0.58253   0.82964   0.72765   0.00000  Uiso   1.00
N319   N     0.95075   0.07337   0.64902   0.00000  Uiso   1.00
N320   N     0.96249   0.58663   0.95016   0.00000  Uiso   1.00
N321   N     0.59850   0.71572   0.65731   0.00000  Uiso   1.00
N322   N     0.96672   0.95946   0.57868   0.00000  Uiso   1.00
C323   C     0.32523   0.37787   0.80527   0.00000  Uiso   1.00
C324   C     0.36257   0.30117   0.84739   0.00000  Uiso   1.00
C325   C     0.38506   0.30012   0.92200   0.00000  Uiso   1.00
C326   C     0.41815   0.22365   0.95012   0.00000  Uiso   1.00
C327   C     0.47455   0.11559   0.02237   0.00000  Uiso   1.00
C328   C     0.26225   0.33674   0.76669   0.00000  Uiso   1.00
C329   C     0.20039   0.36561   0.77343   0.00000  Uiso   1.00
C330   C     0.14904   0.31908   0.73361   0.00000  Uiso   1.00
C331   C     0.04968   0.26629   0.68053   0.00000  Uiso   1.00
C332   C     0.36374   0.40391   0.74503   0.00000  Uiso   1.00
C333   C     0.38720   0.48926   0.73354   0.00000  Uiso   1.00
C334   C     0.42128   0.49929   0.67547   0.00000  Uiso   1.00
C335   C     0.47950   0.55079   0.58876   0.00000  Uiso   1.00
C336   C     0.34401   0.24391   0.72254   0.00000  Uiso   1.00
C337   C     0.37276   0.22841   0.80246   0.00000  Uiso   1.00
C338   C     0.40583   0.15191   0.83048   0.00000  Uiso   1.00
C339   C     0.42837   0.15075   0.90511   0.00000  Uiso   1.00
C340   C     0.27244   0.26398   0.72176   0.00000  Uiso   1.00
C341   C     0.22117   0.21740   0.68191   0.00000  Uiso   1.00
C342   C     0.15925   0.24619   0.68860   0.00000  Uiso   1.00
C343   C     0.37394   0.33114   0.70010   0.00000  Uiso   1.00
C344   C     0.40798   0.34104   0.64202   0.00000  Uiso   1.00
C345   C     0.43149   0.42639   0.63046   0.00000  Uiso   1.00
H346   H     0.31729   0.43452   0.84025   0.00000  Uiso   1.00
H347   H     0.37715   0.35644   0.95675   0.00000  Uiso   1.00
H348   H     0.19252   0.42192   0.80820   0.00000  Uiso   1.00
H349   H     0.37930   0.54555   0.76833   0.00000  Uiso   1.00
H350   H     0.44800   0.23778   0.06611   0.00000  Uiso   1.00
H351   H     0.05869   0.37587   0.75287   0.00000  Uiso   1.00
H352   H     0.45255   0.63656   0.66877   0.00000  Uiso   1.00
H353   H     0.35195   0.18726   0.68756   0.00000  Uiso   1.00
H354   H     0.41372   0.09561   0.79569   0.00000  Uiso   1.00
H355   H     0.22908   0.16110   0.64714   0.00000  Uiso   1.00
H356   H     0.41586   0.28472   0.60726   0.00000  Uiso   1.00
H357   H     0.47767   0.02608   0.93539   0.00000  Uiso   1.00
H358   H     0.08836   0.16417   0.62215   0.00000  Uiso   1.00
H359   H     0.48223   0.42486   0.53805   0.00000  Uiso   1.00
O360   O     0.50283   0.07609   0.07464   0.00000  Uiso   1.00
O361   O     0.99206   0.25727   0.66367   0.00000  Uiso   1.00
O362   O     0.50881   0.59929   0.55334   0.00000  Uiso   1.00
N363   N     0.44652   0.20054   0.02051   0.00000  Uiso   1.00
N364   N     0.08253   0.32964   0.72765   0.00000  Uiso   1.00
N365   N     0.45075   0.57337   0.64902   0.00000  Uiso   1.00
N366   N     0.46249   0.08663   0.95016   0.00000  Uiso   1.00
N367   N     0.09850   0.21572   0.65731   0.00000  Uiso   1.00
N368   N     0.46672   0.45946   0.57868   0.00000  Uiso   1.00
