data_job_06907
_audit_creation_date              2018-12-19
_audit_creation_method            'Materials Studio'
_symmetry_space_group_name_H-M    'P1'
_symmetry_Int_Tables_number       1
_symmetry_cell_setting            triclinic
loop_
_symmetry_equiv_pos_as_xyz
  x,y,z
_cell_length_a                    22.4472
_cell_length_b                    20.2432
_cell_length_c                    21.2460
_cell_angle_alpha                 82.9267
_cell_angle_beta                  65.1353
_cell_angle_gamma                 104.9350
loop_
_atom_site_label
_atom_site_type_symbol
_atom_site_fract_x
_atom_site_fract_y
_atom_site_fract_z
_atom_site_U_iso_or_equiv
_atom_site_adp_type
_atom_site_occupancy
C1     C     0.17621   0.05819   0.61287   0.00000  Uiso   1.00
C2     C     0.16370   0.09718   0.55602   0.00000  Uiso   1.00
C3     C     0.21263   0.12861   0.48431   0.00000  Uiso   1.00
C4     C     0.19096   0.16170   0.44093   0.00000  Uiso   1.00
C5     C     0.18191   0.22204   0.34850   0.00000  Uiso   1.00
C6     C     0.15806   0.09505   0.67333   0.00000  Uiso   1.00
C7     C     0.20224   0.12468   0.70027   0.00000  Uiso   1.00
C8     C     0.17581   0.15596   0.75565   0.00000  Uiso   1.00
C9     C     0.15799   0.21294   0.84538   0.00000  Uiso   1.00
C10    C     0.12087   0.98431   0.64385   0.00000  Uiso   1.00
C11    C     0.13378   0.92083   0.64601   0.00000  Uiso   1.00
C12    C     0.07605   0.85888   0.67659   0.00000  Uiso   1.00
C13    C     0.00049   0.74393   0.72054   0.00000  Uiso   1.00
C14    C     0.05072   0.06105   0.66334   0.00000  Uiso   1.00
C15    C     0.09554   0.09874   0.58343   0.00000  Uiso   1.00
C16    C     0.07378   0.13178   0.54015   0.00000  Uiso   1.00
C17    C     0.12267   0.16326   0.46839   0.00000  Uiso   1.00
C18    C     0.08990   0.09660   0.70074   0.00000  Uiso   1.00
C19    C     0.06340   0.12785   0.75610   0.00000  Uiso   1.00
C20    C     0.10753   0.15752   0.78312   0.00000  Uiso   1.00
C21    C     0.05271   0.98587   0.67126   0.00000  Uiso   1.00
C22    C     0.99494   0.92400   0.70185   0.00000  Uiso   1.00
C23    C     0.00776   0.86044   0.70405   0.00000  Uiso   1.00
H24    H     0.22928   0.05698   0.59153   0.00000  Uiso   1.00
H25    H     0.26537   0.12741   0.46312   0.00000  Uiso   1.00
H26    H     0.25498   0.12346   0.67905   0.00000  Uiso   1.00
H27    H     0.18654   0.91965   0.62479   0.00000  Uiso   1.00
H28    H     0.27534   0.20619   0.33285   0.00000  Uiso   1.00
H29    H     0.25343   0.19786   0.78816   0.00000  Uiso   1.00
H30    H     0.10910   0.76808   0.67376   0.00000  Uiso   1.00
H31    H     0.99765   0.06227   0.68468   0.00000  Uiso   1.00
H32    H     0.02103   0.13298   0.56138   0.00000  Uiso   1.00
H33    H     0.01065   0.12904   0.77731   0.00000  Uiso   1.00
H34    H     0.94220   0.92523   0.72305   0.00000  Uiso   1.00
H35    H     0.07703   0.21072   0.41260   0.00000  Uiso   1.00
H36    H     0.05511   0.20238   0.86791   0.00000  Uiso   1.00
H37    H     0.91079   0.77261   0.75351   0.00000  Uiso   1.00
O38    O     0.19575   0.25490   0.28994   0.00000  Uiso   1.00
O39    O     0.16700   0.24395   0.88729   0.00000  Uiso   1.00
O40    O     0.97765   0.68009   0.73720   0.00000  Uiso   1.00
N41    N     0.22545   0.19754   0.36854   0.00000  Uiso   1.00
N42    N     0.20497   0.18976   0.79422   0.00000  Uiso   1.00
N43    N     0.07004   0.78795   0.68728   0.00000  Uiso   1.00
N44    N     0.11874   0.19998   0.41145   0.00000  Uiso   1.00
N45    N     0.09826   0.19219   0.83713   0.00000  Uiso   1.00
N46    N     0.96332   0.79039   0.73019   0.00000  Uiso   1.00
C47    C     0.65770   0.24978   0.20969   0.00000  Uiso   1.00
C48    C     0.58614   0.19136   0.24844   0.00000  Uiso   1.00
C49    C     0.52871   0.19126   0.30917   0.00000  Uiso   1.00
C50    C     0.46796   0.13289   0.33653   0.00000  Uiso   1.00
C51    C     0.35734   0.05071   0.40164   0.00000  Uiso   1.00
C52    C     0.71019   0.21401   0.20807   0.00000  Uiso   1.00
C53    C     0.75705   0.23296   0.23484   0.00000  Uiso   1.00
C54    C     0.80072   0.19365   0.22821   0.00000  Uiso   1.00
C55    C     0.88271   0.14667   0.23059   0.00000  Uiso   1.00
C56    C     0.67283   0.27304   0.13185   0.00000  Uiso   1.00
C57    C     0.68831   0.34163   0.09452   0.00000  Uiso   1.00
C58    C     0.70055   0.35202   0.02371   0.00000  Uiso   1.00
C59    C     0.72454   0.39670   0.90775   0.00000  Uiso   1.00
C60    C     0.65195   0.14628   0.15030   0.00000  Uiso   1.00
C61    C     0.58302   0.13514   0.21618   0.00000  Uiso   1.00
C62    C     0.52234   0.07675   0.24346   0.00000  Uiso   1.00
C63    C     0.46482   0.07657   0.30421   0.00000  Uiso   1.00
C64    C     0.70706   0.15779   0.17581   0.00000  Uiso   1.00
C65    C     0.75068   0.11845   0.16913   0.00000  Uiso   1.00
C66    C     0.79759   0.13733   0.19589   0.00000  Uiso   1.00
C67    C     0.66970   0.21682   0.09959   0.00000  Uiso   1.00
C68    C     0.68193   0.22711   0.02882   0.00000  Uiso   1.00
C69    C     0.69742   0.29570   0.99139   0.00000  Uiso   1.00
H70    H     0.66014   0.29355   0.23480   0.00000  Uiso   1.00
H71    H     0.53115   0.23478   0.33412   0.00000  Uiso   1.00
H72    H     0.75946   0.27648   0.25979   0.00000  Uiso   1.00
H73    H     0.69072   0.38512   0.11950   0.00000  Uiso   1.00
H74    H     0.38678   0.14482   0.43002   0.00000  Uiso   1.00
H75    H     0.86819   0.23275   0.27328   0.00000  Uiso   1.00
H76    H     0.72325   0.46186   0.97745   0.00000  Uiso   1.00
H77    H     0.64951   0.10250   0.12518   0.00000  Uiso   1.00
H78    H     0.51994   0.03325   0.21849   0.00000  Uiso   1.00
H79    H     0.74825   0.07495   0.14416   0.00000  Uiso   1.00
H80    H     0.67951   0.18359   0.00387   0.00000  Uiso   1.00
H81    H     0.37767   0.98125   0.33617   0.00000  Uiso   1.00
H82    H     0.85909   0.06918   0.17943   0.00000  Uiso   1.00
H83    H     0.71415   0.29828   0.88360   0.00000  Uiso   1.00
O84    O     0.29719   0.02091   0.44647   0.00000  Uiso   1.00
O85    O     0.92879   0.13629   0.24082   0.00000  Uiso   1.00
O86    O     0.73863   0.43686   0.85270   0.00000  Uiso   1.00
N87    N     0.40241   0.11583   0.39512   0.00000  Uiso   1.00
N88    N     0.85250   0.19804   0.24859   0.00000  Uiso   1.00
N89    N     0.71701   0.41224   0.97201   0.00000  Uiso   1.00
N90    N     0.39751   0.02782   0.34462   0.00000  Uiso   1.00
N91    N     0.84760   0.11002   0.19809   0.00000  Uiso   1.00
N92    N     0.71211   0.32422   0.92151   0.00000  Uiso   1.00
C93    C     0.99150   0.78097   0.11593   0.00000  Uiso   1.00
C94    C     0.02469   0.79875   0.03411   0.00000  Uiso   1.00
C95    C     0.06818   0.76728   0.99036   0.00000  Uiso   1.00
C96    C     0.09321   0.79096   0.91678   0.00000  Uiso   1.00
C97    C     0.14749   0.81049   0.79409   0.00000  Uiso   1.00
C98    C     0.01437   0.85049   0.13423   0.00000  Uiso   1.00
C99    C     0.04917   0.86252   0.17468   0.00000  Uiso   1.00
C100   C     0.06550   0.92976   0.18539   0.00000  Uiso   1.00
C101   C     0.10371   0.02960   0.21819   0.00000  Uiso   1.00
C102   C     0.91292   0.76084   0.14321   0.00000  Uiso   1.00
C103   C     0.86242   0.69750   0.19123   0.00000  Uiso   1.00
C104   C     0.79333   0.68926   0.20951   0.00000  Uiso   1.00
C105   C     0.67402   0.64990   0.25625   0.00000  Uiso   1.00
C106   C     0.95862   0.87898   0.06304   0.00000  Uiso   1.00
C107   C     0.00683   0.85198   0.00538   0.00000  Uiso   1.00
C108   C     0.03180   0.87571   0.93184   0.00000  Uiso   1.00
C109   C     0.07532   0.84429   0.88799   0.00000  Uiso   1.00
C110   C     0.99651   0.90372   0.10550   0.00000  Uiso   1.00
C111   C     0.01279   0.97095   0.11616   0.00000  Uiso   1.00
C112   C     0.04761   0.98309   0.15660   0.00000  Uiso   1.00
C113   C     0.89506   0.81407   0.11448   0.00000  Uiso   1.00
C114   C     0.82603   0.80593   0.13270   0.00000  Uiso   1.00
C115   C     0.77543   0.74259   0.18073   0.00000  Uiso   1.00
H116   H     0.00541   0.73953   0.13830   0.00000  Uiso   1.00
H117   H     0.08200   0.72609   0.01262   0.00000  Uiso   1.00
H118   H     0.06298   0.82131   0.19691   0.00000  Uiso   1.00
H119   H     0.87626   0.65631   0.21345   0.00000  Uiso   1.00
H120   H     0.15905   0.73468   0.86060   0.00000  Uiso   1.00
H121   H     0.11894   0.93546   0.24921   0.00000  Uiso   1.00
H122   H     0.72519   0.58753   0.28409   0.00000  Uiso   1.00
H123   H     0.94471   0.92042   0.04067   0.00000  Uiso   1.00
H124   H     0.01797   0.91691   0.90962   0.00000  Uiso   1.00
H125   H     0.99895   0.01214   0.09392   0.00000  Uiso   1.00
H126   H     0.81223   0.84714   0.11045   0.00000  Uiso   1.00
H127   H     0.10708   0.88956   0.77700   0.00000  Uiso   1.00
H128   H     0.06697   0.09034   0.16562   0.00000  Uiso   1.00
H129   H     0.67322   0.74241   0.20049   0.00000  Uiso   1.00
O130   O     0.18237   0.80657   0.73435   0.00000  Uiso   1.00
O131   O     0.12973   0.06997   0.24421   0.00000  Uiso   1.00
O132   O     0.61314   0.61349   0.28997   0.00000  Uiso   1.00
N133   N     0.13676   0.77161   0.85891   0.00000  Uiso   1.00
N134   N     0.09926   0.95933   0.22223   0.00000  Uiso   1.00
N135   N     0.73114   0.63404   0.25485   0.00000  Uiso   1.00
N136   N     0.10879   0.85495   0.81392   0.00000  Uiso   1.00
N137   N     0.07130   0.04267   0.17725   0.00000  Uiso   1.00
N138   N     0.70317   0.71738   0.20987   0.00000  Uiso   1.00
C139   C     0.75247   0.27270   0.66767   0.00000  Uiso   1.00
C140   C     0.72796   0.19193   0.68722   0.00000  Uiso   1.00
C141   C     0.75781   0.15033   0.71240   0.00000  Uiso   1.00
C142   C     0.72771   0.07740   0.72724   0.00000  Uiso   1.00
C143   C     0.69844   0.95658   0.75915   0.00000  Uiso   1.00
C144   C     0.68919   0.29190   0.71317   0.00000  Uiso   1.00
C145   C     0.68646   0.33436   0.76016   0.00000  Uiso   1.00
C146   C     0.62372   0.34559   0.79683   0.00000  Uiso   1.00
C147   C     0.53428   0.38001   0.86900   0.00000  Uiso   1.00
C148   C     0.76723   0.29621   0.58999   0.00000  Uiso   1.00
C149   C     0.83011   0.34231   0.53341   0.00000  Uiso   1.00
C150   C     0.83307   0.35718   0.46637   0.00000  Uiso   1.00
C151   C     0.86480   0.39829   0.34728   0.00000  Uiso   1.00
C152   C     0.64592   0.21716   0.64924   0.00000  Uiso   1.00
C153   C     0.67008   0.16177   0.67721   0.00000  Uiso   1.00
C154   C     0.63993   0.08888   0.69201   0.00000  Uiso   1.00
C155   C     0.66974   0.04718   0.71721   0.00000  Uiso   1.00
C156   C     0.63132   0.26173   0.70316   0.00000  Uiso   1.00
C157   C     0.56857   0.27291   0.73977   0.00000  Uiso   1.00
C158   C     0.56574   0.31537   0.78681   0.00000  Uiso   1.00
C159   C     0.70936   0.26604   0.57998   0.00000  Uiso   1.00
C160   C     0.71223   0.28085   0.51302   0.00000  Uiso   1.00
C161   C     0.77510   0.32696   0.45635   0.00000  Uiso   1.00
H162   H     0.79752   0.29619   0.67546   0.00000  Uiso   1.00
H163   H     0.80260   0.17370   0.72015   0.00000  Uiso   1.00
H164   H     0.73125   0.35771   0.76789   0.00000  Uiso   1.00
H165   H     0.87488   0.36565   0.54117   0.00000  Uiso   1.00
H166   H     0.78269   0.02459   0.76529   0.00000  Uiso   1.00
H167   H     0.63226   0.41259   0.86595   0.00000  Uiso   1.00
H168   H     0.93513   0.42934   0.38787   0.00000  Uiso   1.00
H169   H     0.60086   0.19367   0.64145   0.00000  Uiso   1.00
H170   H     0.59515   0.06555   0.68426   0.00000  Uiso   1.00
H171   H     0.52380   0.24955   0.73201   0.00000  Uiso   1.00
H172   H     0.66743   0.25749   0.50529   0.00000  Uiso   1.00
H173   H     0.61431   0.93681   0.73617   0.00000  Uiso   1.00
H174   H     0.46389   0.32481   0.83683   0.00000  Uiso   1.00
H175   H     0.76676   0.34156   0.35875   0.00000  Uiso   1.00
O176   O     0.69827   0.89827   0.77953   0.00000  Uiso   1.00
O177   O     0.50093   0.40732   0.91158   0.00000  Uiso   1.00
O178   O     0.89829   0.42929   0.28436   0.00000  Uiso   1.00
N179   N     0.74385   0.02152   0.75255   0.00000  Uiso   1.00
N180   N     0.60321   0.38426   0.84667   0.00000  Uiso   1.00
N181   N     0.88637   0.39994   0.39971   0.00000  Uiso   1.00
N182   N     0.65325   0.97428   0.73688   0.00000  Uiso   1.00
N183   N     0.51261   0.33703   0.83099   0.00000  Uiso   1.00
N184   N     0.79576   0.35270   0.38404   0.00000  Uiso   1.00
C185   C     0.24433   0.46861   0.64647   0.00000  Uiso   1.00
C186   C     0.21940   0.50946   0.60322   0.00000  Uiso   1.00
C187   C     0.15075   0.50565   0.62488   0.00000  Uiso   1.00
C188   C     0.13870   0.54720   0.57759   0.00000  Uiso   1.00
C189   C     0.09166   0.60399   0.52057   0.00000  Uiso   1.00
C190   C     0.29977   0.52421   0.65386   0.00000  Uiso   1.00
C191   C     0.29870   0.53279   0.71809   0.00000  Uiso   1.00
C192   C     0.35432   0.58674   0.71343   0.00000  Uiso   1.00
C193   C     0.43209   0.66640   0.73502   0.00000  Uiso   1.00
C194   C     0.28282   0.42739   0.59841   0.00000  Uiso   1.00
C195   C     0.26752   0.35457   0.61602   0.00000  Uiso   1.00
C196   C     0.30887   0.32702   0.56467   0.00000  Uiso   1.00
C197   C     0.36032   0.25635   0.50016   0.00000  Uiso   1.00
C198   C     0.34500   0.54917   0.52399   0.00000  Uiso   1.00
C199   C     0.27408   0.55321   0.53669   0.00000  Uiso   1.00
C200   C     0.26212   0.59478   0.48936   0.00000  Uiso   1.00
C201   C     0.19347   0.59103   0.51094   0.00000  Uiso   1.00
C202   C     0.35445   0.56796   0.58734   0.00000  Uiso   1.00
C203   C     0.41008   0.62191   0.58258   0.00000  Uiso   1.00
C204   C     0.40909   0.63058   0.64679   0.00000  Uiso   1.00
C205   C     0.33750   0.47114   0.53188   0.00000  Uiso   1.00
C206   C     0.37889   0.44370   0.48050   0.00000  Uiso   1.00
C207   C     0.36365   0.37085   0.49803   0.00000  Uiso   1.00
H208   H     0.20177   0.43455   0.69827   0.00000  Uiso   1.00
H209   H     0.10845   0.47179   0.67637   0.00000  Uiso   1.00
H210   H     0.25639   0.49891   0.76957   0.00000  Uiso   1.00
H211   H     0.22520   0.32073   0.66750   0.00000  Uiso   1.00
H212   H     0.02911   0.53238   0.62276   0.00000  Uiso   1.00
H213   H     0.34105   0.58957   0.81927   0.00000  Uiso   1.00
H214   H     0.27529   0.21383   0.60406   0.00000  Uiso   1.00
H215   H     0.38757   0.58324   0.47219   0.00000  Uiso   1.00
H216   H     0.30444   0.62863   0.43788   0.00000  Uiso   1.00
H217   H     0.45238   0.65576   0.53108   0.00000  Uiso   1.00
H218   H     0.42119   0.47757   0.42902   0.00000  Uiso   1.00
H219   H     0.18818   0.65969   0.42920   0.00000  Uiso   1.00
H220   H     0.50013   0.71687   0.62571   0.00000  Uiso   1.00
H221   H     0.43437   0.34113   0.41049   0.00000  Uiso   1.00
O222   O     0.05062   0.62323   0.50750   0.00000  Uiso   1.00
O223   O     0.45988   0.69825   0.76532   0.00000  Uiso   1.00
O224   O     0.37360   0.20528   0.48296   0.00000  Uiso   1.00
N225   N     0.07795   0.55610   0.58191   0.00000  Uiso   1.00
N226   N     0.36959   0.60958   0.76564   0.00000  Uiso   1.00
N227   N     0.30813   0.25829   0.56443   0.00000  Uiso   1.00
N228   N     0.16355   0.62460   0.47775   0.00000  Uiso   1.00
N229   N     0.45519   0.67808   0.66148   0.00000  Uiso   1.00
N230   N     0.39372   0.32679   0.46028   0.00000  Uiso   1.00
C231   C     0.36923   0.76336   0.18193   0.00000  Uiso   1.00
C232   C     0.40750   0.76294   0.10336   0.00000  Uiso   1.00
C233   C     0.42763   0.81749   0.04422   0.00000  Uiso   1.00
C234   C     0.46212   0.80685   0.97679   0.00000  Uiso   1.00
C235   C     0.51948   0.81579   0.85601   0.00000  Uiso   1.00
C236   C     0.41469   0.74959   0.21524   0.00000  Uiso   1.00
C237   C     0.44086   0.79291   0.25017   0.00000  Uiso   1.00
C238   C     0.48139   0.77103   0.27692   0.00000  Uiso   1.00
C239   C     0.54987   0.75922   0.32987   0.00000  Uiso   1.00
C240   C     0.30294   0.69813   0.21717   0.00000  Uiso   1.00
C241   C     0.23514   0.69817   0.25375   0.00000  Uiso   1.00
C242   C     0.18159   0.63296   0.28215   0.00000  Uiso   1.00
C243   C     0.07656   0.54124   0.33810   0.00000  Uiso   1.00
C244   C     0.39467   0.64746   0.16733   0.00000  Uiso   1.00
C245   C     0.42132   0.69999   0.09544   0.00000  Uiso   1.00
C246   C     0.45579   0.68926   0.02808   0.00000  Uiso   1.00
C247   C     0.47597   0.74379   0.96885   0.00000  Uiso   1.00
C248   C     0.42851   0.68665   0.20731   0.00000  Uiso   1.00
C249   C     0.46901   0.66469   0.23402   0.00000  Uiso   1.00
C250   C     0.49524   0.70797   0.26898   0.00000  Uiso   1.00
C251   C     0.31676   0.63518   0.20925   0.00000  Uiso   1.00
C252   C     0.26330   0.56995   0.23760   0.00000  Uiso   1.00
C253   C     0.19544   0.56989   0.27421   0.00000  Uiso   1.00
H254   H     0.35847   0.81237   0.18810   0.00000  Uiso   1.00
H255   H     0.41693   0.86620   0.05038   0.00000  Uiso   1.00
H256   H     0.43015   0.84162   0.25630   0.00000  Uiso   1.00
H257   H     0.22447   0.74690   0.25987   0.00000  Uiso   1.00
H258   H     0.48787   0.89813   0.89419   0.00000  Uiso   1.00
H259   H     0.51571   0.84630   0.32841   0.00000  Uiso   1.00
H260   H     0.08200   0.64655   0.33595   0.00000  Uiso   1.00
H261   H     0.40544   0.59845   0.16117   0.00000  Uiso   1.00
H262   H     0.46648   0.64054   0.02196   0.00000  Uiso   1.00
H263   H     0.47969   0.61597   0.22788   0.00000  Uiso   1.00
H264   H     0.27402   0.52124   0.23146   0.00000  Uiso   1.00
H265   H     0.52809   0.71498   0.87113   0.00000  Uiso   1.00
H266   H     0.55593   0.66315   0.30535   0.00000  Uiso   1.00
H267   H     0.12222   0.46340   0.31289   0.00000  Uiso   1.00
O268   O     0.54731   0.83812   0.79158   0.00000  Uiso   1.00
O269   O     0.58382   0.77010   0.36126   0.00000  Uiso   1.00
O270   O     0.01480   0.50804   0.37115   0.00000  Uiso   1.00
N271   N     0.48895   0.84924   0.90787   0.00000  Uiso   1.00
N272   N     0.51499   0.80079   0.31382   0.00000  Uiso   1.00
N273   N     0.10950   0.61404   0.32089   0.00000  Uiso   1.00
N274   N     0.51059   0.75069   0.89546   0.00000  Uiso   1.00
N275   N     0.53663   0.70224   0.30141   0.00000  Uiso   1.00
N276   N     0.13114   0.51549   0.30848   0.00000  Uiso   1.00
C277   C     0.81679   0.02684   0.46535   0.00000  Uiso   1.00
C278   C     0.83450   0.97586   0.50793   0.00000  Uiso   1.00
C279   C     0.79768   0.94605   0.58173   0.00000  Uiso   1.00
C280   C     0.82228   0.90068   0.61045   0.00000  Uiso   1.00
C281   C     0.84074   0.82377   0.68320   0.00000  Uiso   1.00
C282   C     0.80849   0.99285   0.40798   0.00000  Uiso   1.00
C283   C     0.74980   0.97734   0.39773   0.00000  Uiso   1.00
C284   C     0.75250   0.94627   0.34231   0.00000  Uiso   1.00
C285   C     0.73059   0.89579   0.25984   0.00000  Uiso   1.00
C286   C     0.88219   0.09291   0.42516   0.00000  Uiso   1.00
C287   C     0.88546   0.16152   0.42934   0.00000  Uiso   1.00
C288   C     0.95021   0.21470   0.38837   0.00000  Uiso   1.00
C289   C     0.04273   0.31957   0.33257   0.00000  Uiso   1.00
C290   C     0.92595   0.99927   0.38512   0.00000  Uiso   1.00
C291   C     0.89379   0.96088   0.46435   0.00000  Uiso   1.00
C292   C     0.91845   0.91555   0.49297   0.00000  Uiso   1.00
C293   C     0.88167   0.88567   0.56680   0.00000  Uiso   1.00
C294   C     0.86777   0.97787   0.36440   0.00000  Uiso   1.00
C295   C     0.87057   0.94683   0.30897   0.00000  Uiso   1.00
C296   C     0.81190   0.93127   0.29865   0.00000  Uiso   1.00
C297   C     0.94148   0.07793   0.38158   0.00000  Uiso   1.00
C298   C     0.00623   0.13101   0.34059   0.00000  Uiso   1.00
C299   C     0.00961   0.19970   0.34471   0.00000  Uiso   1.00
H300   H     0.77063   0.03850   0.49927   0.00000  Uiso   1.00
H301   H     0.75180   0.95765   0.61543   0.00000  Uiso   1.00
H302   H     0.70393   0.98894   0.43146   0.00000  Uiso   1.00
H303   H     0.83957   0.17309   0.46307   0.00000  Uiso   1.00
H304   H     0.75705   0.86139   0.72500   0.00000  Uiso   1.00
H305   H     0.65612   0.92738   0.33707   0.00000  Uiso   1.00
H306   H     0.94215   0.31571   0.40372   0.00000  Uiso   1.00
H307   H     0.97211   0.98761   0.35119   0.00000  Uiso   1.00
H308   H     0.96433   0.90396   0.45923   0.00000  Uiso   1.00
H309   H     0.91646   0.93525   0.27526   0.00000  Uiso   1.00
H310   H     0.05210   0.11941   0.30687   0.00000  Uiso   1.00
H311   H     0.92955   0.81781   0.59823   0.00000  Uiso   1.00
H312   H     0.82862   0.88381   0.21029   0.00000  Uiso   1.00
H313   H     0.11465   0.27214   0.27694   0.00000  Uiso   1.00
O314   O     0.83453   0.78548   0.73536   0.00000  Uiso   1.00
O315   O     0.70212   0.87208   0.22639   0.00000  Uiso   1.00
O316   O     0.07739   0.38155   0.31385   0.00000  Uiso   1.00
N317   N     0.79872   0.86262   0.68034   0.00000  Uiso   1.00
N318   N     0.70436   0.92431   0.31765   0.00000  Uiso   1.00
N319   N     0.97176   0.28737   0.37995   0.00000  Uiso   1.00
N320   N     0.89154   0.83918   0.61212   0.00000  Uiso   1.00
N321   N     0.79718   0.90087   0.24943   0.00000  Uiso   1.00
N322   N     0.06458   0.26393   0.31173   0.00000  Uiso   1.00
C323   C     0.32171   0.98618   0.06181   0.00000  Uiso   1.00
C324   C     0.39252   0.04558   0.02661   0.00000  Uiso   1.00
C325   C     0.45626   0.03992   0.98223   0.00000  Uiso   1.00
C326   C     0.51508   0.10036   0.95535   0.00000  Uiso   1.00
C327   C     0.62576   0.18290   0.89809   0.00000  Uiso   1.00
C328   C     0.27550   0.01394   0.03782   0.00000  Uiso   1.00
C329   C     0.24085   0.98165   0.00288   0.00000  Uiso   1.00
C330   C     0.20116   0.01545   0.98545   0.00000  Uiso   1.00
C331   C     0.13014   0.04882   0.94564   0.00000  Uiso   1.00
C332   C     0.29102   0.97949   0.14236   0.00000  Uiso   1.00
C333   C     0.26939   0.91824   0.19533   0.00000  Uiso   1.00
C334   C     0.24275   0.92302   0.26592   0.00000  Uiso   1.00
C335   C     0.19581   0.90292   0.38843   0.00000  Uiso   1.00
C336   C     0.31283   0.10359   0.09299   0.00000  Uiso   1.00
C337   C     0.38770   0.10935   0.04354   0.00000  Uiso   1.00
C338   C     0.44644   0.16981   0.01673   0.00000  Uiso   1.00
C339   C     0.51026   0.16424   0.97232   0.00000  Uiso   1.00
C340   C     0.27068   0.07770   0.05475   0.00000  Uiso   1.00
C341   C     0.23103   0.11155   0.03738   0.00000  Uiso   1.00
C342   C     0.19633   0.07933   0.00242   0.00000  Uiso   1.00
C343   C     0.28620   0.04326   0.15930   0.00000  Uiso   1.00
C344   C     0.25958   0.04814   0.22982   0.00000  Uiso   1.00
C345   C     0.23792   0.98691   0.28289   0.00000  Uiso   1.00
H346   H     0.32546   0.93654   0.04862   0.00000  Uiso   1.00
H347   H     0.45997   0.99056   0.96913   0.00000  Uiso   1.00
H348   H     0.24459   0.93230   0.98978   0.00000  Uiso   1.00
H349   H     0.27313   0.86890   0.18220   0.00000  Uiso   1.00
H350   H     0.60696   0.07859   0.88845   0.00000  Uiso   1.00
H351   H     0.15281   0.95573   0.93202   0.00000  Uiso   1.00
H352   H     0.21299   0.82204   0.33777   0.00000  Uiso   1.00
H353   H     0.30908   0.15323   0.10618   0.00000  Uiso   1.00
H354   H     0.44269   0.21915   0.02984   0.00000  Uiso   1.00
H355   H     0.22731   0.16089   0.05050   0.00000  Uiso   1.00
H356   H     0.25585   0.09749   0.24291   0.00000  Uiso   1.00
H357   H     0.59295   0.26412   0.93772   0.00000  Uiso   1.00
H358   H     0.13878   0.14126   0.98130   0.00000  Uiso   1.00
H359   H     0.19897   0.00757   0.38705   0.00000  Uiso   1.00
O360   O     0.68814   0.21082   0.86182   0.00000  Uiso   1.00
O361   O     0.09230   0.04962   0.91899   0.00000  Uiso   1.00
O362   O     0.17126   0.87422   0.45132   0.00000  Uiso   1.00
N363   N     0.58533   0.11321   0.91053   0.00000  Uiso   1.00
N364   N     0.16073   0.99835   0.95126   0.00000  Uiso   1.00
N365   N     0.21698   0.87335   0.33060   0.00000  Uiso   1.00
N366   N     0.57779   0.21304   0.93705   0.00000  Uiso   1.00
N367   N     0.15319   0.09818   0.97777   0.00000  Uiso   1.00
N368   N     0.20943   0.97318   0.35712   0.00000  Uiso   1.00
C369   C     0.01213   0.38370   0.87369   0.00000  Uiso   1.00
C370   C     0.96668   0.42913   0.89954   0.00000  Uiso   1.00
C371   C     0.97934   0.49679   0.86230   0.00000  Uiso   1.00
C372   C     0.93153   0.52951   0.89511   0.00000  Uiso   1.00
C373   C     0.86981   0.60518   0.92496   0.00000  Uiso   1.00
C374   C     0.96410   0.31441   0.87465   0.00000  Uiso   1.00
C375   C     0.97460   0.28560   0.81648   0.00000  Uiso   1.00
C376   C     0.92461   0.22174   0.82835   0.00000  Uiso   1.00
C377   C     0.85891   0.11928   0.81956   0.00000  Uiso   1.00
C378   C     0.03200   0.36493   0.93219   0.00000  Uiso   1.00
C379   C     0.09959   0.37858   0.92240   0.00000  Uiso   1.00
C380   C     0.10678   0.35724   0.98271   0.00000  Uiso   1.00
C381   C     0.14651   0.33322   0.06325   0.00000  Uiso   1.00
C382   C     0.90471   0.32150   0.99819   0.00000  Uiso   1.00
C383   C     0.90833   0.39535   0.96716   0.00000  Uiso   1.00
C384   C     0.86049   0.42798   0.00004   0.00000  Uiso   1.00
C385   C     0.87308   0.49567   0.96286   0.00000  Uiso   1.00
C386   C     0.90575   0.28062   0.94227   0.00000  Uiso   1.00
C387   C     0.85574   0.21679   0.95422   0.00000  Uiso   1.00
C388   C     0.86616   0.18790   0.89609   0.00000  Uiso   1.00
C389   C     0.97365   0.33115   0.99981   0.00000  Uiso   1.00
C390   C     0.98074   0.30977   0.06014   0.00000  Uiso   1.00
C391   C     0.04833   0.32340   0.05045   0.00000  Uiso   1.00
H392   H     0.05756   0.41000   0.82104   0.00000  Uiso   1.00
H393   H     0.02450   0.52291   0.80997   0.00000  Uiso   1.00
H394   H     0.01976   0.31176   0.76416   0.00000  Uiso   1.00
H395   H     0.14473   0.40473   0.87006   0.00000  Uiso   1.00
H396   H     0.96211   0.63319   0.82750   0.00000  Uiso   1.00
H397   H     0.95211   0.18795   0.73092   0.00000  Uiso   1.00
H398   H     0.21565   0.38399   0.95423   0.00000  Uiso   1.00
H399   H     0.85928   0.29520   0.05084   0.00000  Uiso   1.00
H400   H     0.81534   0.40182   0.05238   0.00000  Uiso   1.00
H401   H     0.81060   0.19066   0.00656   0.00000  Uiso   1.00
H402   H     0.93557   0.28363   0.11247   0.00000  Uiso   1.00
H403   H     0.79234   0.53491   0.02425   0.00000  Uiso   1.00
H404   H     0.78235   0.08966   0.92766   0.00000  Uiso   1.00
H405   H     0.04589   0.28570   0.15098   0.00000  Uiso   1.00
O406   O     0.85189   0.65625   0.92273   0.00000  Uiso   1.00
O407   O     0.83878   0.07210   0.79602   0.00000  Uiso   1.00
O408   O     0.18454   0.32931   0.08900   0.00000  Uiso   1.00
N409   N     0.92819   0.59544   0.87360   0.00000  Uiso   1.00
N410   N     0.91884   0.17916   0.78330   0.00000  Uiso   1.00
N411   N     0.16523   0.36243   0.99208   0.00000  Uiso   1.00
N412   N     0.83684   0.54255   0.97947   0.00000  Uiso   1.00
N413   N     0.82749   0.12627   0.88917   0.00000  Uiso   1.00
N414   N     0.07388   0.30954   0.09794   0.00000  Uiso   1.00
C415   C     0.37238   0.96783   0.58473   0.00000  Uiso   1.00
C416   C     0.44446   0.02435   0.53828   0.00000  Uiso   1.00
C417   C     0.45826   0.09684   0.51950   0.00000  Uiso   1.00
C418   C     0.52770   0.13973   0.47658   0.00000  Uiso   1.00
C419   C     0.63145   0.23184   0.40796   0.00000  Uiso   1.00
C420   C     0.36390   0.91659   0.53965   0.00000  Uiso   1.00
C421   C     0.30996   0.89848   0.52205   0.00000  Uiso   1.00
C422   C     0.31160   0.85065   0.48030   0.00000  Uiso   1.00
C423   C     0.29025   0.77543   0.41386   0.00000  Uiso   1.00
C424   C     0.37650   0.92643   0.64689   0.00000  Uiso   1.00
C425   C     0.33314   0.91657   0.71945   0.00000  Uiso   1.00
C426   C     0.34537   0.87701   0.76799   0.00000  Uiso   1.00
C427   C     0.34358   0.81706   0.86806   0.00000  Uiso   1.00
C428   C     0.47118   0.91511   0.54189   0.00000  Uiso   1.00
C429   C     0.49812   0.99571   0.51501   0.00000  Uiso   1.00
C430   C     0.56757   0.03851   0.47211   0.00000  Uiso   1.00
C431   C     0.58147   0.11105   0.45327   0.00000  Uiso   1.00
C432   C     0.41756   0.88796   0.51639   0.00000  Uiso   1.00
C433   C     0.41927   0.84015   0.47466   0.00000  Uiso   1.00
C434   C     0.36536   0.82197   0.45699   0.00000  Uiso   1.00
C435   C     0.43016   0.89780   0.62363   0.00000  Uiso   1.00
C436   C     0.44246   0.85824   0.67206   0.00000  Uiso   1.00
C437   C     0.39913   0.84833   0.74468   0.00000  Uiso   1.00
H438   H     0.33060   0.99012   0.60284   0.00000  Uiso   1.00
H439   H     0.41671   0.11898   0.53751   0.00000  Uiso   1.00
H440   H     0.26844   0.92064   0.54006   0.00000  Uiso   1.00
H441   H     0.29162   0.93873   0.73744   0.00000  Uiso   1.00
H442   H     0.53584   0.24920   0.45480   0.00000  Uiso   1.00
H443   H     0.22319   0.83098   0.46021   0.00000  Uiso   1.00
H444   H     0.27206   0.86913   0.87641   0.00000  Uiso   1.00
H445   H     0.51296   0.89282   0.52378   0.00000  Uiso   1.00
H446   H     0.60908   0.01633   0.45411   0.00000  Uiso   1.00
H447   H     0.46081   0.81800   0.45667   0.00000  Uiso   1.00
H448   H     0.48399   0.83609   0.65404   0.00000  Uiso   1.00
H449   H     0.69198   0.16589   0.38711   0.00000  Uiso   1.00
H450   H     0.37932   0.74767   0.39252   0.00000  Uiso   1.00
H451   H     0.42820   0.78582   0.80872   0.00000  Uiso   1.00
O452   O     0.67385   0.29055   0.37653   0.00000  Uiso   1.00
O453   O     0.26365   0.74185   0.38364   0.00000  Uiso   1.00
O454   O     0.32778   0.79191   0.92968   0.00000  Uiso   1.00
N455   N     0.55940   0.21264   0.44844   0.00000  Uiso   1.00
N456   N     0.26709   0.82164   0.45349   0.00000  Uiso   1.00
N457   N     0.31277   0.85730   0.84260   0.00000  Uiso   1.00
N458   N     0.64342   0.16782   0.41202   0.00000  Uiso   1.00
N459   N     0.35111   0.77681   0.41706   0.00000  Uiso   1.00
N460   N     0.39679   0.81247   0.80618   0.00000  Uiso   1.00
C461   C     0.74161   0.60678   0.52928   0.00000  Uiso   1.00
C462   C     0.77043   0.58326   0.57816   0.00000  Uiso   1.00
C463   C     0.83949   0.58872   0.55646   0.00000  Uiso   1.00
C464   C     0.85535   0.56418   0.60937   0.00000  Uiso   1.00
C465   C     0.90792   0.53203   0.67430   0.00000  Uiso   1.00
C466   C     0.68255   0.54163   0.53973   0.00000  Uiso   1.00
C467   C     0.67771   0.51210   0.48572   0.00000  Uiso   1.00
C468   C     0.61958   0.45252   0.50629   0.00000  Uiso   1.00
C469   C     0.53568   0.35577   0.51155   0.00000  Uiso   1.00
C470   C     0.70699   0.65891   0.56080   0.00000  Uiso   1.00
C471   C     0.72269   0.72799   0.52451   0.00000  Uiso   1.00
C472   C     0.68513   0.76715   0.56282   0.00000  Uiso   1.00
C473   C     0.63919   0.85250   0.60080   0.00000  Uiso   1.00
C474   C     0.64697   0.55348   0.66184   0.00000  Uiso   1.00
C475   C     0.71903   0.55431   0.65016   0.00000  Uiso   1.00
C476   C     0.73478   0.52975   0.70312   0.00000  Uiso   1.00
C477   C     0.80386   0.53518   0.68150   0.00000  Uiso   1.00
C478   C     0.63114   0.51268   0.61173   0.00000  Uiso   1.00
C479   C     0.57301   0.45313   0.63238   0.00000  Uiso   1.00
C480   C     0.56808   0.42351   0.57842   0.00000  Uiso   1.00
C481   C     0.65559   0.62996   0.63281   0.00000  Uiso   1.00
C482   C     0.61799   0.66902   0.67117   0.00000  Uiso   1.00
C483   C     0.63363   0.73814   0.63494   0.00000  Uiso   1.00
H484   H     0.78162   0.62931   0.47323   0.00000  Uiso   1.00
H485   H     0.87925   0.61112   0.50073   0.00000  Uiso   1.00
H486   H     0.71749   0.53452   0.43001   0.00000  Uiso   1.00
H487   H     0.76247   0.75037   0.46879   0.00000  Uiso   1.00
H488   H     0.96482   0.57817   0.56297   0.00000  Uiso   1.00
H489   H     0.62373   0.41665   0.41384   0.00000  Uiso   1.00
H490   H     0.71858   0.87183   0.49562   0.00000  Uiso   1.00
H491   H     0.60695   0.53094   0.71790   0.00000  Uiso   1.00
H492   H     0.69499   0.50735   0.75883   0.00000  Uiso   1.00
H493   H     0.53324   0.43074   0.68810   0.00000  Uiso   1.00
H494   H     0.57822   0.64660   0.72689   0.00000  Uiso   1.00
H495   H     0.81527   0.49394   0.77246   0.00000  Uiso   1.00
H496   H     0.47418   0.33242   0.62332   0.00000  Uiso   1.00
H497   H     0.56902   0.78760   0.70511   0.00000  Uiso   1.00
O498   O     0.95111   0.52229   0.69022   0.00000  Uiso   1.00
O499   O     0.50361   0.31040   0.49456   0.00000  Uiso   1.00
O500   O     0.62805   0.90758   0.60186   0.00000  Uiso   1.00
N501   N     0.91754   0.56159   0.60666   0.00000  Uiso   1.00
N502   N     0.59865   0.41058   0.46723   0.00000  Uiso   1.00
N503   N     0.68731   0.83613   0.54369   0.00000  Uiso   1.00
N504   N     0.83707   0.51627   0.71938   0.00000  Uiso   1.00
N505   N     0.51818   0.36526   0.57995   0.00000  Uiso   1.00
N506   N     0.60684   0.79080   0.65641   0.00000  Uiso   1.00
C507   C     0.34842   0.43944   0.02488   0.00000  Uiso   1.00
C508   C     0.31997   0.50043   0.03021   0.00000  Uiso   1.00
C509   C     0.25840   0.49984   0.08601   0.00000  Uiso   1.00
C510   C     0.24150   0.56091   0.08087   0.00000  Uiso   1.00
C511   C     0.19073   0.64656   0.09808   0.00000  Uiso   1.00
C512   C     0.35798   0.42364   0.95357   0.00000  Uiso   1.00
C513   C     0.32837   0.35847   0.94492   0.00000  Uiso   1.00
C514   C     0.34348   0.35489   0.87526   0.00000  Uiso   1.00
C515   C     0.35177   0.32129   0.77347   0.00000  Uiso   1.00
C516   C     0.42178   0.46929   0.01661   0.00000  Uiso   1.00
C517   C     0.44582   0.44250   0.06097   0.00000  Uiso   1.00
C518   C     0.51465   0.47736   0.04438   0.00000  Uiso   1.00
C519   C     0.62199   0.51465   0.04048   0.00000  Uiso   1.00
C520   C     0.42791   0.54895   0.91653   0.00000  Uiso   1.00
C521   C     0.36314   0.55992   0.97136   0.00000  Uiso   1.00
C522   C     0.34634   0.62101   0.96613   0.00000  Uiso   1.00
C523   C     0.28475   0.62051   0.02191   0.00000  Uiso   1.00
C524   C     0.40115   0.48312   0.89472   0.00000  Uiso   1.00
C525   C     0.41631   0.47963   0.82505   0.00000  Uiso   1.00
C526   C     0.38673   0.41448   0.81630   0.00000  Uiso   1.00
C527   C     0.46495   0.52878   0.95776   0.00000  Uiso   1.00
C528   C     0.53376   0.56368   0.94110   0.00000  Uiso   1.00
C529   C     0.55790   0.53695   0.98542   0.00000  Uiso   1.00
H530   H     0.31481   0.39312   0.07069   0.00000  Uiso   1.00
H531   H     0.22500   0.45379   0.13154   0.00000  Uiso   1.00
H532   H     0.29497   0.31244   0.99047   0.00000  Uiso   1.00
H533   H     0.41240   0.39647   0.10650   0.00000  Uiso   1.00
H534   H     0.14445   0.54728   0.17303   0.00000  Uiso   1.00
H535   H     0.29201   0.24923   0.87559   0.00000  Uiso   1.00
H536   H     0.53963   0.42641   0.12025   0.00000  Uiso   1.00
H537   H     0.46152   0.59527   0.87071   0.00000  Uiso   1.00
H538   H     0.37975   0.66703   0.92059   0.00000  Uiso   1.00
H539   H     0.44973   0.52568   0.77952   0.00000  Uiso   1.00
H540   H     0.56715   0.60971   0.89555   0.00000  Uiso   1.00
H541   H     0.27005   0.72035   0.00181   0.00000  Uiso   1.00
H542   H     0.41762   0.42229   0.70437   0.00000  Uiso   1.00
H543   H     0.66523   0.59948   0.94904   0.00000  Uiso   1.00
O544   O     0.15080   0.67737   0.12382   0.00000  Uiso   1.00
O545   O     0.34441   0.28633   0.73359   0.00000  Uiso   1.00
O546   O     0.66928   0.51880   0.05459   0.00000  Uiso   1.00
N547   N     0.18524   0.57817   0.12589   0.00000  Uiso   1.00
N548   N     0.32319   0.29951   0.84781   0.00000  Uiso   1.00
N549   N     0.55470   0.46515   0.07654   0.00000  Uiso   1.00
N550   N     0.25282   0.67130   0.03376   0.00000  Uiso   1.00
N551   N     0.39078   0.39264   0.75567   0.00000  Uiso   1.00
N552   N     0.62228   0.55828   0.98441   0.00000  Uiso   1.00
