data_job_01309
_audit_creation_date              2018-12-19
_audit_creation_method            'Materials Studio'
_symmetry_space_group_name_H-M    'P1'
_symmetry_Int_Tables_number       1
_symmetry_cell_setting            triclinic
loop_
_symmetry_equiv_pos_as_xyz
  x,y,z
_cell_length_a                    10.8441
_cell_length_b                    29.6797
_cell_length_c                    18.1992
_cell_angle_alpha                 90.0000
_cell_angle_beta                  90.0000
_cell_angle_gamma                 90.0000
loop_
_atom_site_label
_atom_site_type_symbol
_atom_site_fract_x
_atom_site_fract_y
_atom_site_fract_z
_atom_site_U_iso_or_equiv
_atom_site_adp_type
_atom_site_occupancy
C1     C     0.37656   0.20539   0.53610   0.00000  Uiso   1.00
C2     C     0.29917   0.16293   0.52609   0.00000  Uiso   1.00
C3     C     0.30322   0.13424   0.46593   0.00000  Uiso   1.00
C4     C     0.22509   0.09719   0.46719   0.00000  Uiso   1.00
C5     C     0.11693   0.03249   0.44260   0.00000  Uiso   1.00
C6     C     0.28519   0.24370   0.54851   0.00000  Uiso   1.00
C7     C     0.27750   0.28291   0.50722   0.00000  Uiso   1.00
C8     C     0.18761   0.31385   0.52737   0.00000  Uiso   1.00
C9     C     0.05781   0.37456   0.53762   0.00000  Uiso   1.00
C10    C     0.44529   0.19942   0.60855   0.00000  Uiso   1.00
C11    C     0.57222   0.20141   0.61774   0.00000  Uiso   1.00
C12    C     0.61713   0.19508   0.68843   0.00000  Uiso   1.00
C13    C     0.73592   0.18705   0.79190   0.00000  Uiso   1.00
C14    C     0.23061   0.19062   0.64532   0.00000  Uiso   1.00
C15    C     0.21989   0.15491   0.58541   0.00000  Uiso   1.00
C16    C     0.14174   0.11789   0.58676   0.00000  Uiso   1.00
C17    C     0.14567   0.08915   0.52662   0.00000  Uiso   1.00
C18    C     0.20591   0.23568   0.60783   0.00000  Uiso   1.00
C19    C     0.11602   0.26656   0.62805   0.00000  Uiso   1.00
C20    C     0.10819   0.30581   0.58679   0.00000  Uiso   1.00
C21    C     0.36602   0.19139   0.66787   0.00000  Uiso   1.00
C22    C     0.41074   0.18507   0.73857   0.00000  Uiso   1.00
C23    C     0.53771   0.18705   0.74786   0.00000  Uiso   1.00
H24    H     0.43827   0.21164   0.48992   0.00000  Uiso   1.00
H25    H     0.36457   0.14046   0.42003   0.00000  Uiso   1.00
H26    H     0.33887   0.28911   0.46132   0.00000  Uiso   1.00
H27    H     0.63354   0.20762   0.57182   0.00000  Uiso   1.00
H28    H     0.24786   0.05802   0.36869   0.00000  Uiso   1.00
H29    H     0.19369   0.37146   0.45577   0.00000  Uiso   1.00
H30    H     0.81508   0.19963   0.68878   0.00000  Uiso   1.00
H31    H     0.16889   0.18437   0.69150   0.00000  Uiso   1.00
H32    H     0.08040   0.11169   0.63267   0.00000  Uiso   1.00
H33    H     0.05470   0.26034   0.67396   0.00000  Uiso   1.00
H34    H     0.34937   0.17886   0.78446   0.00000  Uiso   1.00
H35    H     0.01722   0.03467   0.54128   0.00000  Uiso   1.00
H36    H     0.96305   0.34811   0.62836   0.00000  Uiso   1.00
H37    H     0.58443   0.17628   0.86137   0.00000  Uiso   1.00
O38    O     0.07916   0.99903   0.41264   0.00000  Uiso   1.00
O39    O     0.00811   0.41026   0.52689   0.00000  Uiso   1.00
O40    O     0.82335   0.18482   0.83259   0.00000  Uiso   1.00
N41    N     0.20574   0.06249   0.41739   0.00000  Uiso   1.00
N42    N     0.15508   0.35554   0.49879   0.00000  Uiso   1.00
N43    N     0.73602   0.19490   0.71664   0.00000  Uiso   1.00
N44    N     0.08163   0.04993   0.51026   0.00000  Uiso   1.00
N45    N     0.03097   0.34297   0.59166   0.00000  Uiso   1.00
N46    N     0.61191   0.18234   0.80951   0.00000  Uiso   1.00
C47    C     0.12344   0.79461   0.53610   0.00000  Uiso   1.00
C48    C     0.20083   0.83707   0.52609   0.00000  Uiso   1.00
C49    C     0.19678   0.86576   0.46593   0.00000  Uiso   1.00
C50    C     0.27491   0.90281   0.46719   0.00000  Uiso   1.00
C51    C     0.38307   0.96751   0.44260   0.00000  Uiso   1.00
C52    C     0.21481   0.75630   0.54851   0.00000  Uiso   1.00
C53    C     0.22250   0.71709   0.50722   0.00000  Uiso   1.00
C54    C     0.31239   0.68615   0.52737   0.00000  Uiso   1.00
C55    C     0.44219   0.62544   0.53762   0.00000  Uiso   1.00
C56    C     0.05471   0.80058   0.60855   0.00000  Uiso   1.00
C57    C     0.92778   0.79859   0.61774   0.00000  Uiso   1.00
C58    C     0.88287   0.80492   0.68843   0.00000  Uiso   1.00
C59    C     0.76408   0.81295   0.79190   0.00000  Uiso   1.00
C60    C     0.26939   0.80938   0.64532   0.00000  Uiso   1.00
C61    C     0.28011   0.84509   0.58541   0.00000  Uiso   1.00
C62    C     0.35826   0.88211   0.58676   0.00000  Uiso   1.00
C63    C     0.35433   0.91085   0.52662   0.00000  Uiso   1.00
C64    C     0.29409   0.76432   0.60783   0.00000  Uiso   1.00
C65    C     0.38398   0.73344   0.62805   0.00000  Uiso   1.00
C66    C     0.39181   0.69419   0.58679   0.00000  Uiso   1.00
C67    C     0.13398   0.80861   0.66787   0.00000  Uiso   1.00
C68    C     0.08926   0.81493   0.73857   0.00000  Uiso   1.00
C69    C     0.96229   0.81295   0.74786   0.00000  Uiso   1.00
H70    H     0.06173   0.78836   0.48992   0.00000  Uiso   1.00
H71    H     0.13543   0.85954   0.42003   0.00000  Uiso   1.00
H72    H     0.16113   0.71089   0.46132   0.00000  Uiso   1.00
H73    H     0.86646   0.79238   0.57182   0.00000  Uiso   1.00
H74    H     0.25214   0.94198   0.36869   0.00000  Uiso   1.00
H75    H     0.30631   0.62854   0.45577   0.00000  Uiso   1.00
H76    H     0.68492   0.80037   0.68878   0.00000  Uiso   1.00
H77    H     0.33111   0.81563   0.69150   0.00000  Uiso   1.00
H78    H     0.41960   0.88831   0.63267   0.00000  Uiso   1.00
H79    H     0.44530   0.73966   0.67396   0.00000  Uiso   1.00
H80    H     0.15063   0.82114   0.78446   0.00000  Uiso   1.00
H81    H     0.48278   0.96533   0.54128   0.00000  Uiso   1.00
H82    H     0.53695   0.65189   0.62836   0.00000  Uiso   1.00
H83    H     0.91557   0.82372   0.86137   0.00000  Uiso   1.00
O84    O     0.42084   0.00097   0.41264   0.00000  Uiso   1.00
O85    O     0.49189   0.58974   0.52689   0.00000  Uiso   1.00
O86    O     0.67665   0.81518   0.83259   0.00000  Uiso   1.00
N87    N     0.29426   0.93751   0.41739   0.00000  Uiso   1.00
N88    N     0.34492   0.64446   0.49879   0.00000  Uiso   1.00
N89    N     0.76398   0.80510   0.71664   0.00000  Uiso   1.00
N90    N     0.41837   0.95007   0.51026   0.00000  Uiso   1.00
N91    N     0.46903   0.65703   0.59166   0.00000  Uiso   1.00
N92    N     0.88809   0.81766   0.80951   0.00000  Uiso   1.00
C93    C     0.12344   0.70539   0.96390   0.00000  Uiso   1.00
C94    C     0.20083   0.66293   0.97391   0.00000  Uiso   1.00
C95    C     0.19678   0.63424   0.03407   0.00000  Uiso   1.00
C96    C     0.27491   0.59719   0.03281   0.00000  Uiso   1.00
C97    C     0.38307   0.53249   0.05740   0.00000  Uiso   1.00
C98    C     0.21481   0.74370   0.95149   0.00000  Uiso   1.00
C99    C     0.22250   0.78291   0.99278   0.00000  Uiso   1.00
C100   C     0.31239   0.81385   0.97263   0.00000  Uiso   1.00
C101   C     0.44219   0.87456   0.96238   0.00000  Uiso   1.00
C102   C     0.05471   0.69942   0.89145   0.00000  Uiso   1.00
C103   C     0.92778   0.70141   0.88226   0.00000  Uiso   1.00
C104   C     0.88287   0.69508   0.81157   0.00000  Uiso   1.00
C105   C     0.76408   0.68705   0.70810   0.00000  Uiso   1.00
C106   C     0.26939   0.69062   0.85468   0.00000  Uiso   1.00
C107   C     0.28011   0.65491   0.91459   0.00000  Uiso   1.00
C108   C     0.35826   0.61789   0.91324   0.00000  Uiso   1.00
C109   C     0.35433   0.58915   0.97338   0.00000  Uiso   1.00
C110   C     0.29409   0.73568   0.89217   0.00000  Uiso   1.00
C111   C     0.38398   0.76656   0.87195   0.00000  Uiso   1.00
C112   C     0.39181   0.80581   0.91321   0.00000  Uiso   1.00
C113   C     0.13398   0.69139   0.83213   0.00000  Uiso   1.00
C114   C     0.08926   0.68507   0.76143   0.00000  Uiso   1.00
C115   C     0.96229   0.68705   0.75214   0.00000  Uiso   1.00
H116   H     0.06173   0.71164   0.01008   0.00000  Uiso   1.00
H117   H     0.13543   0.64046   0.07997   0.00000  Uiso   1.00
H118   H     0.16113   0.78911   0.03868   0.00000  Uiso   1.00
H119   H     0.86646   0.70762   0.92818   0.00000  Uiso   1.00
H120   H     0.25214   0.55802   0.13131   0.00000  Uiso   1.00
H121   H     0.30631   0.87146   0.04423   0.00000  Uiso   1.00
H122   H     0.68492   0.69963   0.81122   0.00000  Uiso   1.00
H123   H     0.33111   0.68437   0.80850   0.00000  Uiso   1.00
H124   H     0.41960   0.61169   0.86733   0.00000  Uiso   1.00
H125   H     0.44530   0.76034   0.82604   0.00000  Uiso   1.00
H126   H     0.15063   0.67886   0.71554   0.00000  Uiso   1.00
H127   H     0.48278   0.53467   0.95872   0.00000  Uiso   1.00
H128   H     0.53695   0.84811   0.87164   0.00000  Uiso   1.00
H129   H     0.91557   0.67628   0.63863   0.00000  Uiso   1.00
O130   O     0.42084   0.49903   0.08736   0.00000  Uiso   1.00
O131   O     0.49189   0.91026   0.97311   0.00000  Uiso   1.00
O132   O     0.67665   0.68482   0.66741   0.00000  Uiso   1.00
N133   N     0.29426   0.56249   0.08261   0.00000  Uiso   1.00
N134   N     0.34492   0.85554   0.00121   0.00000  Uiso   1.00
N135   N     0.76398   0.69490   0.78336   0.00000  Uiso   1.00
N136   N     0.41837   0.54993   0.98974   0.00000  Uiso   1.00
N137   N     0.46903   0.84297   0.90834   0.00000  Uiso   1.00
N138   N     0.88809   0.68234   0.69049   0.00000  Uiso   1.00
C139   C     0.37656   0.29461   0.96390   0.00000  Uiso   1.00
C140   C     0.29917   0.33707   0.97391   0.00000  Uiso   1.00
C141   C     0.30322   0.36576   0.03407   0.00000  Uiso   1.00
C142   C     0.22509   0.40281   0.03281   0.00000  Uiso   1.00
C143   C     0.11693   0.46751   0.05740   0.00000  Uiso   1.00
C144   C     0.28519   0.25630   0.95149   0.00000  Uiso   1.00
C145   C     0.27750   0.21709   0.99278   0.00000  Uiso   1.00
C146   C     0.18761   0.18615   0.97263   0.00000  Uiso   1.00
C147   C     0.05781   0.12544   0.96238   0.00000  Uiso   1.00
C148   C     0.44529   0.30058   0.89145   0.00000  Uiso   1.00
C149   C     0.57222   0.29859   0.88226   0.00000  Uiso   1.00
C150   C     0.61713   0.30492   0.81157   0.00000  Uiso   1.00
C151   C     0.73592   0.31295   0.70810   0.00000  Uiso   1.00
C152   C     0.23061   0.30938   0.85468   0.00000  Uiso   1.00
C153   C     0.21989   0.34509   0.91459   0.00000  Uiso   1.00
C154   C     0.14174   0.38211   0.91324   0.00000  Uiso   1.00
C155   C     0.14567   0.41085   0.97338   0.00000  Uiso   1.00
C156   C     0.20591   0.26432   0.89217   0.00000  Uiso   1.00
C157   C     0.11602   0.23344   0.87195   0.00000  Uiso   1.00
C158   C     0.10819   0.19419   0.91321   0.00000  Uiso   1.00
C159   C     0.36602   0.30861   0.83213   0.00000  Uiso   1.00
C160   C     0.41074   0.31493   0.76143   0.00000  Uiso   1.00
C161   C     0.53771   0.31295   0.75214   0.00000  Uiso   1.00
H162   H     0.43827   0.28836   0.01008   0.00000  Uiso   1.00
H163   H     0.36457   0.35954   0.07997   0.00000  Uiso   1.00
H164   H     0.33887   0.21089   0.03868   0.00000  Uiso   1.00
H165   H     0.63354   0.29238   0.92818   0.00000  Uiso   1.00
H166   H     0.24786   0.44198   0.13131   0.00000  Uiso   1.00
H167   H     0.19369   0.12854   0.04423   0.00000  Uiso   1.00
H168   H     0.81508   0.30037   0.81122   0.00000  Uiso   1.00
H169   H     0.16889   0.31563   0.80850   0.00000  Uiso   1.00
H170   H     0.08040   0.38831   0.86733   0.00000  Uiso   1.00
H171   H     0.05470   0.23966   0.82604   0.00000  Uiso   1.00
H172   H     0.34937   0.32114   0.71554   0.00000  Uiso   1.00
H173   H     0.01722   0.46533   0.95872   0.00000  Uiso   1.00
H174   H     0.96305   0.15189   0.87164   0.00000  Uiso   1.00
H175   H     0.58443   0.32372   0.63863   0.00000  Uiso   1.00
O176   O     0.07916   0.50097   0.08736   0.00000  Uiso   1.00
O177   O     0.00811   0.08974   0.97311   0.00000  Uiso   1.00
O178   O     0.82335   0.31518   0.66741   0.00000  Uiso   1.00
N179   N     0.20574   0.43751   0.08261   0.00000  Uiso   1.00
N180   N     0.15508   0.14446   0.00121   0.00000  Uiso   1.00
N181   N     0.73602   0.30510   0.78336   0.00000  Uiso   1.00
N182   N     0.08163   0.45007   0.98974   0.00000  Uiso   1.00
N183   N     0.03097   0.15703   0.90834   0.00000  Uiso   1.00
N184   N     0.61191   0.31766   0.69049   0.00000  Uiso   1.00
C185   C     0.62344   0.79461   0.46390   0.00000  Uiso   1.00
C186   C     0.70083   0.83707   0.47391   0.00000  Uiso   1.00
C187   C     0.69678   0.86576   0.53407   0.00000  Uiso   1.00
C188   C     0.77491   0.90281   0.53281   0.00000  Uiso   1.00
C189   C     0.88307   0.96751   0.55740   0.00000  Uiso   1.00
C190   C     0.71481   0.75630   0.45149   0.00000  Uiso   1.00
C191   C     0.72250   0.71709   0.49278   0.00000  Uiso   1.00
C192   C     0.81239   0.68615   0.47263   0.00000  Uiso   1.00
C193   C     0.94219   0.62544   0.46238   0.00000  Uiso   1.00
C194   C     0.55471   0.80058   0.39145   0.00000  Uiso   1.00
C195   C     0.42778   0.79859   0.38226   0.00000  Uiso   1.00
C196   C     0.38287   0.80492   0.31157   0.00000  Uiso   1.00
C197   C     0.26408   0.81295   0.20810   0.00000  Uiso   1.00
C198   C     0.76939   0.80938   0.35468   0.00000  Uiso   1.00
C199   C     0.78011   0.84509   0.41459   0.00000  Uiso   1.00
C200   C     0.85826   0.88211   0.41324   0.00000  Uiso   1.00
C201   C     0.85433   0.91085   0.47338   0.00000  Uiso   1.00
C202   C     0.79409   0.76432   0.39217   0.00000  Uiso   1.00
C203   C     0.88398   0.73344   0.37195   0.00000  Uiso   1.00
C204   C     0.89181   0.69419   0.41321   0.00000  Uiso   1.00
C205   C     0.63398   0.80861   0.33213   0.00000  Uiso   1.00
C206   C     0.58926   0.81493   0.26143   0.00000  Uiso   1.00
C207   C     0.46229   0.81295   0.25214   0.00000  Uiso   1.00
H208   H     0.56173   0.78836   0.51008   0.00000  Uiso   1.00
H209   H     0.63543   0.85954   0.57997   0.00000  Uiso   1.00
H210   H     0.66113   0.71089   0.53868   0.00000  Uiso   1.00
H211   H     0.36646   0.79238   0.42818   0.00000  Uiso   1.00
H212   H     0.75214   0.94198   0.63131   0.00000  Uiso   1.00
H213   H     0.80631   0.62854   0.54423   0.00000  Uiso   1.00
H214   H     0.18492   0.80037   0.31122   0.00000  Uiso   1.00
H215   H     0.83111   0.81563   0.30850   0.00000  Uiso   1.00
H216   H     0.91960   0.88831   0.36733   0.00000  Uiso   1.00
H217   H     0.94530   0.73966   0.32604   0.00000  Uiso   1.00
H218   H     0.65063   0.82114   0.21554   0.00000  Uiso   1.00
H219   H     0.98278   0.96533   0.45872   0.00000  Uiso   1.00
H220   H     0.03695   0.65189   0.37164   0.00000  Uiso   1.00
H221   H     0.41557   0.82372   0.13863   0.00000  Uiso   1.00
O222   O     0.92084   0.00097   0.58736   0.00000  Uiso   1.00
O223   O     0.99189   0.58974   0.47311   0.00000  Uiso   1.00
O224   O     0.17665   0.81518   0.16741   0.00000  Uiso   1.00
N225   N     0.79426   0.93751   0.58261   0.00000  Uiso   1.00
N226   N     0.84492   0.64446   0.50121   0.00000  Uiso   1.00
N227   N     0.26398   0.80510   0.28336   0.00000  Uiso   1.00
N228   N     0.91837   0.95007   0.48974   0.00000  Uiso   1.00
N229   N     0.96903   0.65703   0.40834   0.00000  Uiso   1.00
N230   N     0.38809   0.81766   0.19049   0.00000  Uiso   1.00
C231   C     0.87656   0.20539   0.46390   0.00000  Uiso   1.00
C232   C     0.79917   0.16293   0.47391   0.00000  Uiso   1.00
C233   C     0.80322   0.13424   0.53407   0.00000  Uiso   1.00
C234   C     0.72509   0.09719   0.53281   0.00000  Uiso   1.00
C235   C     0.61693   0.03249   0.55740   0.00000  Uiso   1.00
C236   C     0.78519   0.24370   0.45149   0.00000  Uiso   1.00
C237   C     0.77750   0.28291   0.49278   0.00000  Uiso   1.00
C238   C     0.68761   0.31385   0.47263   0.00000  Uiso   1.00
C239   C     0.55781   0.37456   0.46238   0.00000  Uiso   1.00
C240   C     0.94529   0.19942   0.39145   0.00000  Uiso   1.00
C241   C     0.07222   0.20141   0.38226   0.00000  Uiso   1.00
C242   C     0.11713   0.19508   0.31157   0.00000  Uiso   1.00
C243   C     0.23592   0.18705   0.20810   0.00000  Uiso   1.00
C244   C     0.73061   0.19062   0.35468   0.00000  Uiso   1.00
C245   C     0.71989   0.15491   0.41459   0.00000  Uiso   1.00
C246   C     0.64174   0.11789   0.41324   0.00000  Uiso   1.00
C247   C     0.64567   0.08915   0.47338   0.00000  Uiso   1.00
C248   C     0.70591   0.23568   0.39217   0.00000  Uiso   1.00
C249   C     0.61602   0.26656   0.37195   0.00000  Uiso   1.00
C250   C     0.60819   0.30581   0.41321   0.00000  Uiso   1.00
C251   C     0.86602   0.19139   0.33213   0.00000  Uiso   1.00
C252   C     0.91074   0.18507   0.26143   0.00000  Uiso   1.00
C253   C     0.03771   0.18705   0.25214   0.00000  Uiso   1.00
H254   H     0.93827   0.21164   0.51008   0.00000  Uiso   1.00
H255   H     0.86457   0.14046   0.57997   0.00000  Uiso   1.00
H256   H     0.83887   0.28911   0.53868   0.00000  Uiso   1.00
H257   H     0.13354   0.20762   0.42818   0.00000  Uiso   1.00
H258   H     0.74786   0.05802   0.63131   0.00000  Uiso   1.00
H259   H     0.69369   0.37146   0.54423   0.00000  Uiso   1.00
H260   H     0.31508   0.19963   0.31122   0.00000  Uiso   1.00
H261   H     0.66889   0.18437   0.30850   0.00000  Uiso   1.00
H262   H     0.58040   0.11169   0.36733   0.00000  Uiso   1.00
H263   H     0.55470   0.26034   0.32604   0.00000  Uiso   1.00
H264   H     0.84937   0.17886   0.21554   0.00000  Uiso   1.00
H265   H     0.51722   0.03467   0.45872   0.00000  Uiso   1.00
H266   H     0.46305   0.34811   0.37164   0.00000  Uiso   1.00
H267   H     0.08443   0.17628   0.13863   0.00000  Uiso   1.00
O268   O     0.57916   0.99903   0.58736   0.00000  Uiso   1.00
O269   O     0.50811   0.41026   0.47311   0.00000  Uiso   1.00
O270   O     0.32335   0.18482   0.16741   0.00000  Uiso   1.00
N271   N     0.70574   0.06249   0.58261   0.00000  Uiso   1.00
N272   N     0.65508   0.35554   0.50121   0.00000  Uiso   1.00
N273   N     0.23602   0.19490   0.28336   0.00000  Uiso   1.00
N274   N     0.58163   0.04993   0.48974   0.00000  Uiso   1.00
N275   N     0.53097   0.34297   0.40834   0.00000  Uiso   1.00
N276   N     0.11191   0.18234   0.19049   0.00000  Uiso   1.00
C277   C     0.87656   0.29461   0.03610   0.00000  Uiso   1.00
C278   C     0.79917   0.33707   0.02609   0.00000  Uiso   1.00
C279   C     0.80322   0.36576   0.96593   0.00000  Uiso   1.00
C280   C     0.72509   0.40281   0.96719   0.00000  Uiso   1.00
C281   C     0.61693   0.46751   0.94260   0.00000  Uiso   1.00
C282   C     0.78519   0.25630   0.04851   0.00000  Uiso   1.00
C283   C     0.77750   0.21709   0.00722   0.00000  Uiso   1.00
C284   C     0.68761   0.18615   0.02737   0.00000  Uiso   1.00
C285   C     0.55781   0.12544   0.03762   0.00000  Uiso   1.00
C286   C     0.94529   0.30058   0.10855   0.00000  Uiso   1.00
C287   C     0.07222   0.29859   0.11774   0.00000  Uiso   1.00
C288   C     0.11713   0.30492   0.18843   0.00000  Uiso   1.00
C289   C     0.23592   0.31295   0.29190   0.00000  Uiso   1.00
C290   C     0.73061   0.30938   0.14532   0.00000  Uiso   1.00
C291   C     0.71989   0.34509   0.08541   0.00000  Uiso   1.00
C292   C     0.64174   0.38211   0.08676   0.00000  Uiso   1.00
C293   C     0.64567   0.41085   0.02662   0.00000  Uiso   1.00
C294   C     0.70591   0.26432   0.10783   0.00000  Uiso   1.00
C295   C     0.61602   0.23344   0.12805   0.00000  Uiso   1.00
C296   C     0.60819   0.19419   0.08679   0.00000  Uiso   1.00
C297   C     0.86602   0.30861   0.16787   0.00000  Uiso   1.00
C298   C     0.91074   0.31493   0.23857   0.00000  Uiso   1.00
C299   C     0.03771   0.31295   0.24786   0.00000  Uiso   1.00
H300   H     0.93827   0.28836   0.98992   0.00000  Uiso   1.00
H301   H     0.86457   0.35954   0.92003   0.00000  Uiso   1.00
H302   H     0.83887   0.21089   0.96132   0.00000  Uiso   1.00
H303   H     0.13354   0.29238   0.07182   0.00000  Uiso   1.00
H304   H     0.74786   0.44198   0.86869   0.00000  Uiso   1.00
H305   H     0.69369   0.12854   0.95577   0.00000  Uiso   1.00
H306   H     0.31508   0.30037   0.18878   0.00000  Uiso   1.00
H307   H     0.66889   0.31563   0.19150   0.00000  Uiso   1.00
H308   H     0.58040   0.38831   0.13267   0.00000  Uiso   1.00
H309   H     0.55470   0.23966   0.17396   0.00000  Uiso   1.00
H310   H     0.84937   0.32114   0.28446   0.00000  Uiso   1.00
H311   H     0.51722   0.46533   0.04128   0.00000  Uiso   1.00
H312   H     0.46305   0.15189   0.12836   0.00000  Uiso   1.00
H313   H     0.08443   0.32372   0.36137   0.00000  Uiso   1.00
O314   O     0.57916   0.50097   0.91264   0.00000  Uiso   1.00
O315   O     0.50811   0.08974   0.02689   0.00000  Uiso   1.00
O316   O     0.32335   0.31518   0.33259   0.00000  Uiso   1.00
N317   N     0.70574   0.43751   0.91739   0.00000  Uiso   1.00
N318   N     0.65508   0.14446   0.99879   0.00000  Uiso   1.00
N319   N     0.23602   0.30510   0.21664   0.00000  Uiso   1.00
N320   N     0.58163   0.45007   0.01026   0.00000  Uiso   1.00
N321   N     0.53097   0.15703   0.09166   0.00000  Uiso   1.00
N322   N     0.11191   0.31766   0.30951   0.00000  Uiso   1.00
C323   C     0.62344   0.70539   0.03610   0.00000  Uiso   1.00
C324   C     0.70083   0.66293   0.02609   0.00000  Uiso   1.00
C325   C     0.69678   0.63424   0.96593   0.00000  Uiso   1.00
C326   C     0.77491   0.59719   0.96719   0.00000  Uiso   1.00
C327   C     0.88307   0.53249   0.94260   0.00000  Uiso   1.00
C328   C     0.71481   0.74370   0.04851   0.00000  Uiso   1.00
C329   C     0.72250   0.78291   0.00722   0.00000  Uiso   1.00
C330   C     0.81239   0.81385   0.02737   0.00000  Uiso   1.00
C331   C     0.94219   0.87456   0.03762   0.00000  Uiso   1.00
C332   C     0.55471   0.69942   0.10855   0.00000  Uiso   1.00
C333   C     0.42778   0.70141   0.11774   0.00000  Uiso   1.00
C334   C     0.38287   0.69508   0.18843   0.00000  Uiso   1.00
C335   C     0.26408   0.68705   0.29190   0.00000  Uiso   1.00
C336   C     0.76939   0.69062   0.14532   0.00000  Uiso   1.00
C337   C     0.78011   0.65491   0.08541   0.00000  Uiso   1.00
C338   C     0.85826   0.61789   0.08676   0.00000  Uiso   1.00
C339   C     0.85433   0.58915   0.02662   0.00000  Uiso   1.00
C340   C     0.79409   0.73568   0.10783   0.00000  Uiso   1.00
C341   C     0.88398   0.76656   0.12805   0.00000  Uiso   1.00
C342   C     0.89181   0.80581   0.08679   0.00000  Uiso   1.00
C343   C     0.63398   0.69139   0.16787   0.00000  Uiso   1.00
C344   C     0.58926   0.68507   0.23857   0.00000  Uiso   1.00
C345   C     0.46229   0.68705   0.24786   0.00000  Uiso   1.00
H346   H     0.56173   0.71164   0.98992   0.00000  Uiso   1.00
H347   H     0.63543   0.64046   0.92003   0.00000  Uiso   1.00
H348   H     0.66113   0.78911   0.96132   0.00000  Uiso   1.00
H349   H     0.36646   0.70762   0.07182   0.00000  Uiso   1.00
H350   H     0.75214   0.55802   0.86869   0.00000  Uiso   1.00
H351   H     0.80631   0.87146   0.95577   0.00000  Uiso   1.00
H352   H     0.18492   0.69963   0.18878   0.00000  Uiso   1.00
H353   H     0.83111   0.68437   0.19150   0.00000  Uiso   1.00
H354   H     0.91960   0.61169   0.13267   0.00000  Uiso   1.00
H355   H     0.94530   0.76034   0.17396   0.00000  Uiso   1.00
H356   H     0.65063   0.67886   0.28446   0.00000  Uiso   1.00
H357   H     0.98278   0.53467   0.04128   0.00000  Uiso   1.00
H358   H     0.03695   0.84811   0.12836   0.00000  Uiso   1.00
H359   H     0.41557   0.67628   0.36137   0.00000  Uiso   1.00
O360   O     0.92084   0.49903   0.91264   0.00000  Uiso   1.00
O361   O     0.99189   0.91026   0.02689   0.00000  Uiso   1.00
O362   O     0.17665   0.68482   0.33259   0.00000  Uiso   1.00
N363   N     0.79426   0.56249   0.91739   0.00000  Uiso   1.00
N364   N     0.84492   0.85554   0.99879   0.00000  Uiso   1.00
N365   N     0.26398   0.69490   0.21664   0.00000  Uiso   1.00
N366   N     0.91837   0.54993   0.01026   0.00000  Uiso   1.00
N367   N     0.96903   0.84297   0.09166   0.00000  Uiso   1.00
N368   N     0.38809   0.68234   0.30951   0.00000  Uiso   1.00
