data_job_06330
_audit_creation_date              2018-12-19
_audit_creation_method            'Materials Studio'
_symmetry_space_group_name_H-M    'P1'
_symmetry_Int_Tables_number       1
_symmetry_cell_setting            triclinic
loop_
_symmetry_equiv_pos_as_xyz
  x,y,z
_cell_length_a                    15.8399
_cell_length_b                    15.5629
_cell_length_c                    15.1008
_cell_angle_alpha                 98.7985
_cell_angle_beta                  98.9101
_cell_angle_gamma                 98.4621
loop_
_atom_site_label
_atom_site_type_symbol
_atom_site_fract_x
_atom_site_fract_y
_atom_site_fract_z
_atom_site_U_iso_or_equiv
_atom_site_adp_type
_atom_site_occupancy
C1     C     0.65118   0.06843   0.34239   0.00000  Uiso   1.00
C2     C     0.72474   0.04569   0.29390   0.00000  Uiso   1.00
C3     C     0.81191   0.08245   0.32204   0.00000  Uiso   1.00
C4     C     0.86909   0.05284   0.26829   0.00000  Uiso   1.00
C5     C     0.98771   0.02729   0.20499   0.00000  Uiso   1.00
C6     C     0.58632   0.09727   0.27216   0.00000  Uiso   1.00
C7     C     0.55710   0.17741   0.28204   0.00000  Uiso   1.00
C8     C     0.49774   0.19121   0.21000   0.00000  Uiso   1.00
C9     C     0.40142   0.24573   0.11299   0.00000  Uiso   1.00
C10    C     0.60585   0.98150   0.36139   0.00000  Uiso   1.00
C11    C     0.59302   0.96430   0.44629   0.00000  Uiso   1.00
C12    C     0.55008   0.88063   0.44936   0.00000  Uiso   1.00
C13    C     0.48408   0.75540   0.49089   0.00000  Uiso   1.00
C14    C     0.59771   0.95045   0.19690   0.00000  Uiso   1.00
C15    C     0.69569   0.98161   0.21487   0.00000  Uiso   1.00
C16    C     0.75275   0.95192   0.16106   0.00000  Uiso   1.00
C17    C     0.83999   0.98863   0.18912   0.00000  Uiso   1.00
C18    C     0.55727   0.03320   0.19314   0.00000  Uiso   1.00
C19    C     0.49794   0.04688   0.12107   0.00000  Uiso   1.00
C20    C     0.46865   0.12701   0.13083   0.00000  Uiso   1.00
C21    C     0.57680   0.91742   0.28237   0.00000  Uiso   1.00
C22    C     0.53387   0.83376   0.28531   0.00000  Uiso   1.00
C23    C     0.52099   0.81643   0.37020   0.00000  Uiso   1.00
H24    H     0.67379   0.11833   0.40391   0.00000  Uiso   1.00
H25    H     0.83436   0.13205   0.38319   0.00000  Uiso   1.00
H26    H     0.57959   0.22698   0.34321   0.00000  Uiso   1.00
H27    H     0.61551   0.01390   0.50743   0.00000  Uiso   1.00
H28    H     0.99957   0.11903   0.32536   0.00000  Uiso   1.00
H29    H     0.46234   0.31919   0.24105   0.00000  Uiso   1.00
H30    H     0.53808   0.86987   0.58734   0.00000  Uiso   1.00
H31    H     0.57509   0.90056   0.13537   0.00000  Uiso   1.00
H32    H     0.73026   0.90233   0.09991   0.00000  Uiso   1.00
H33    H     0.47548   0.99727   0.05993   0.00000  Uiso   1.00
H34    H     0.51140   0.78419   0.22415   0.00000  Uiso   1.00
H35    H     0.91507   0.93258   0.09543   0.00000  Uiso   1.00
H36    H     0.37783   0.13274   0.01113   0.00000  Uiso   1.00
H37    H     0.45358   0.68342   0.35742   0.00000  Uiso   1.00
O38    O     0.06117   0.03092   0.19190   0.00000  Uiso   1.00
O39    O     0.35633   0.29352   0.08131   0.00000  Uiso   1.00
O40    O     0.45571   0.70402   0.53563   0.00000  Uiso   1.00
N41    N     0.95839   0.07489   0.27612   0.00000  Uiso   1.00
N42    N     0.45612   0.26204   0.19729   0.00000  Uiso   1.00
N43    N     0.52692   0.84197   0.52105   0.00000  Uiso   1.00
N44    N     0.91293   0.97456   0.15240   0.00000  Uiso   1.00
N45    N     0.41065   0.16171   0.07358   0.00000  Uiso   1.00
N46    N     0.48145   0.74164   0.39733   0.00000  Uiso   1.00
C47    C     0.34026   0.65098   0.07234   0.00000  Uiso   1.00
C48    C     0.29375   0.72593   0.04904   0.00000  Uiso   1.00
C49    C     0.32026   0.81464   0.08723   0.00000  Uiso   1.00
C50    C     0.26880   0.87293   0.05679   0.00000  Uiso   1.00
C51    C     0.20800   0.99379   0.03072   0.00000  Uiso   1.00
C52    C     0.27360   0.58527   0.10181   0.00000  Uiso   1.00
C53    C     0.28317   0.55572   0.18437   0.00000  Uiso   1.00
C54    C     0.21475   0.49559   0.19835   0.00000  Uiso   1.00
C55    C     0.12270   0.39804   0.25418   0.00000  Uiso   1.00
C56    C     0.35848   0.60454   0.98260   0.00000  Uiso   1.00
C57    C     0.43943   0.59117   0.96492   0.00000  Uiso   1.00
C58    C     0.44247   0.54724   0.87853   0.00000  Uiso   1.00
C59    C     0.48222   0.47960   0.74926   0.00000  Uiso   1.00
C60    C     0.20172   0.59672   0.95037   0.00000  Uiso   1.00
C61    C     0.21850   0.69646   0.98279   0.00000  Uiso   1.00
C62    C     0.16699   0.75462   0.95228   0.00000  Uiso   1.00
C63    C     0.19342   0.84341   0.99042   0.00000  Uiso   1.00
C64    C     0.19835   0.55581   0.03557   0.00000  Uiso   1.00
C65    C     0.12990   0.49570   0.04942   0.00000  Uiso   1.00
C66    C     0.13937   0.46607   0.13198   0.00000  Uiso   1.00
C67    C     0.28324   0.57508   0.91634   0.00000  Uiso   1.00
C68    C     0.28615   0.53115   0.82997   0.00000  Uiso   1.00
C69    C     0.36709   0.51772   0.81216   0.00000  Uiso   1.00
H70    H     0.39884   0.67391   0.12393   0.00000  Uiso   1.00
H71    H     0.37849   0.83742   0.13851   0.00000  Uiso   1.00
H72    H     0.34141   0.57853   0.23562   0.00000  Uiso   1.00
H73    H     0.49764   0.61398   0.01620   0.00000  Uiso   1.00
H74    H     0.32273   0.00570   0.12548   0.00000  Uiso   1.00
H75    H     0.24457   0.45980   0.33025   0.00000  Uiso   1.00
H76    H     0.57401   0.53454   0.86756   0.00000  Uiso   1.00
H77    H     0.14314   0.57378   0.89879   0.00000  Uiso   1.00
H78    H     0.10876   0.73180   0.90101   0.00000  Uiso   1.00
H79    H     0.07169   0.47291   0.99814   0.00000  Uiso   1.00
H80    H     0.22791   0.50836   0.77872   0.00000  Uiso   1.00
H81    H     0.10380   0.91998   0.93273   0.00000  Uiso   1.00
H82    H     0.02564   0.37407   0.13749   0.00000  Uiso   1.00
H83    H     0.35508   0.44882   0.67480   0.00000  Uiso   1.00
O84    O     0.19525   0.06859   0.03465   0.00000  Uiso   1.00
O85    O     0.09271   0.35237   0.30329   0.00000  Uiso   1.00
O86    O     0.52493   0.45045   0.69625   0.00000  Uiso   1.00
N87    N     0.27593   0.96384   0.07980   0.00000  Uiso   1.00
N88    N     0.20285   0.45347   0.27125   0.00000  Uiso   1.00
N89    N     0.51085   0.52333   0.83868   0.00000  Uiso   1.00
N90    N     0.15813   0.91771   0.97608   0.00000  Uiso   1.00
N91    N     0.08505   0.40734   0.16753   0.00000  Uiso   1.00
N92    N     0.39304   0.47720   0.73496   0.00000  Uiso   1.00
C93    C     0.06601   0.34043   0.65017   0.00000  Uiso   1.00
C94    C     0.04403   0.29338   0.72730   0.00000  Uiso   1.00
C95    C     0.08038   0.32047   0.81889   0.00000  Uiso   1.00
C96    C     0.05161   0.26835   0.87881   0.00000  Uiso   1.00
C97    C     0.02707   0.20689   0.00323   0.00000  Uiso   1.00
C98    C     0.09431   0.27233   0.58227   0.00000  Uiso   1.00
C99    C     0.17293   0.28172   0.55192   0.00000  Uiso   1.00
C100   C     0.18647   0.21188   0.48974   0.00000  Uiso   1.00
C101   C     0.23997   0.11777   0.38895   0.00000  Uiso   1.00
C102   C     0.98038   0.35915   0.60225   0.00000  Uiso   1.00
C103   C     0.96321   0.44155   0.58866   0.00000  Uiso   1.00
C104   C     0.88084   0.44481   0.54328   0.00000  Uiso   1.00
C105   C     0.75745   0.48551   0.47350   0.00000  Uiso   1.00
C106   C     0.95026   0.19972   0.59370   0.00000  Uiso   1.00
C107   C     0.98116   0.21695   0.69662   0.00000  Uiso   1.00
C108   C     0.95232   0.16478   0.75641   0.00000  Uiso   1.00
C109   C     0.98862   0.19178   0.84808   0.00000  Uiso   1.00
C110   C     0.03144   0.19590   0.55160   0.00000  Uiso   1.00
C111   C     0.04486   0.12603   0.48944   0.00000  Uiso   1.00
C112   C     0.12349   0.13531   0.45901   0.00000  Uiso   1.00
C113   C     0.91750   0.28272   0.57157   0.00000  Uiso   1.00
C114   C     0.83515   0.28586   0.52619   0.00000  Uiso   1.00
C115   C     0.81786   0.36824   0.51255   0.00000  Uiso   1.00
H116   H     0.11496   0.39994   0.67405   0.00000  Uiso   1.00
H117   H     0.12904   0.37962   0.84261   0.00000  Uiso   1.00
H118   H     0.22157   0.34088   0.57567   0.00000  Uiso   1.00
H119   H     0.01188   0.50068   0.61241   0.00000  Uiso   1.00
H120   H     0.11695   0.32336   0.01595   0.00000  Uiso   1.00
H121   H     0.31204   0.24170   0.45307   0.00000  Uiso   1.00
H122   H     0.86987   0.57867   0.53055   0.00000  Uiso   1.00
H123   H     0.90131   0.14021   0.56981   0.00000  Uiso   1.00
H124   H     0.90366   0.10563   0.73266   0.00000  Uiso   1.00
H125   H     0.99619   0.06690   0.46572   0.00000  Uiso   1.00
H126   H     0.78651   0.22670   0.50246   0.00000  Uiso   1.00
H127   H     0.93403   0.10098   0.92671   0.00000  Uiso   1.00
H128   H     0.12911   0.01932   0.36383   0.00000  Uiso   1.00
H129   H     0.68695   0.35629   0.44131   0.00000  Uiso   1.00
O130   O     0.03092   0.19410   0.08033   0.00000  Uiso   1.00
O131   O     0.28685   0.08697   0.34184   0.00000  Uiso   1.00
O132   O     0.70675   0.52907   0.44349   0.00000  Uiso   1.00
N133   N     0.07357   0.27578   0.97260   0.00000  Uiso   1.00
N134   N     0.25596   0.19942   0.44636   0.00000  Uiso   1.00
N135   N     0.84259   0.51446   0.51877   0.00000  Uiso   1.00
N136   N     0.97514   0.15612   0.92458   0.00000  Uiso   1.00
N137   N     0.15753   0.07976   0.39834   0.00000  Uiso   1.00
N138   N     0.74416   0.39480   0.47075   0.00000  Uiso   1.00
C139   C     0.34882   0.93156   0.65761   0.00000  Uiso   1.00
C140   C     0.27526   0.95431   0.70610   0.00000  Uiso   1.00
C141   C     0.18809   0.91755   0.67796   0.00000  Uiso   1.00
C142   C     0.13091   0.94716   0.73171   0.00000  Uiso   1.00
C143   C     0.01229   0.97271   0.79501   0.00000  Uiso   1.00
C144   C     0.41368   0.90273   0.72784   0.00000  Uiso   1.00
C145   C     0.44290   0.82259   0.71796   0.00000  Uiso   1.00
C146   C     0.50226   0.80879   0.79000   0.00000  Uiso   1.00
C147   C     0.59858   0.75427   0.88701   0.00000  Uiso   1.00
C148   C     0.39415   0.01850   0.63861   0.00000  Uiso   1.00
C149   C     0.40698   0.03570   0.55371   0.00000  Uiso   1.00
C150   C     0.44992   0.11937   0.55064   0.00000  Uiso   1.00
C151   C     0.51592   0.24460   0.50911   0.00000  Uiso   1.00
C152   C     0.40229   0.04955   0.80310   0.00000  Uiso   1.00
C153   C     0.30431   0.01839   0.78513   0.00000  Uiso   1.00
C154   C     0.24725   0.04808   0.83894   0.00000  Uiso   1.00
C155   C     0.16001   0.01137   0.81088   0.00000  Uiso   1.00
C156   C     0.44273   0.96680   0.80686   0.00000  Uiso   1.00
C157   C     0.50206   0.95312   0.87893   0.00000  Uiso   1.00
C158   C     0.53135   0.87299   0.86917   0.00000  Uiso   1.00
C159   C     0.42320   0.08258   0.71763   0.00000  Uiso   1.00
C160   C     0.46613   0.16624   0.71469   0.00000  Uiso   1.00
C161   C     0.47901   0.18357   0.62981   0.00000  Uiso   1.00
H162   H     0.32621   0.88167   0.59609   0.00000  Uiso   1.00
H163   H     0.16564   0.86795   0.61681   0.00000  Uiso   1.00
H164   H     0.42041   0.77302   0.65679   0.00000  Uiso   1.00
H165   H     0.38449   0.98610   0.49257   0.00000  Uiso   1.00
H166   H     0.00043   0.88097   0.67464   0.00000  Uiso   1.00
H167   H     0.53766   0.68081   0.75895   0.00000  Uiso   1.00
H168   H     0.46192   0.13013   0.41266   0.00000  Uiso   1.00
H169   H     0.42491   0.09944   0.86463   0.00000  Uiso   1.00
H170   H     0.26974   0.09767   0.90009   0.00000  Uiso   1.00
H171   H     0.52452   0.00273   0.94007   0.00000  Uiso   1.00
H172   H     0.48860   0.21581   0.77585   0.00000  Uiso   1.00
H173   H     0.08493   0.06742   0.90457   0.00000  Uiso   1.00
H174   H     0.62217   0.86726   0.98887   0.00000  Uiso   1.00
H175   H     0.54642   0.31658   0.64258   0.00000  Uiso   1.00
O176   O     0.93883   0.96908   0.80810   0.00000  Uiso   1.00
O177   O     0.64367   0.70648   0.91869   0.00000  Uiso   1.00
O178   O     0.54429   0.29598   0.46437   0.00000  Uiso   1.00
N179   N     0.04161   0.92511   0.72388   0.00000  Uiso   1.00
N180   N     0.54388   0.73796   0.80271   0.00000  Uiso   1.00
N181   N     0.47308   0.15803   0.47895   0.00000  Uiso   1.00
N182   N     0.08707   0.02544   0.84760   0.00000  Uiso   1.00
N183   N     0.58935   0.83829   0.92642   0.00000  Uiso   1.00
N184   N     0.51855   0.25836   0.60267   0.00000  Uiso   1.00
C185   C     0.65974   0.34902   0.92766   0.00000  Uiso   1.00
C186   C     0.70625   0.27407   0.95096   0.00000  Uiso   1.00
C187   C     0.67974   0.18536   0.91277   0.00000  Uiso   1.00
C188   C     0.73120   0.12707   0.94321   0.00000  Uiso   1.00
C189   C     0.79200   0.00621   0.96928   0.00000  Uiso   1.00
C190   C     0.72640   0.41472   0.89819   0.00000  Uiso   1.00
C191   C     0.71683   0.44428   0.81563   0.00000  Uiso   1.00
C192   C     0.78525   0.50441   0.80165   0.00000  Uiso   1.00
C193   C     0.87730   0.60196   0.74582   0.00000  Uiso   1.00
C194   C     0.64152   0.39546   0.01740   0.00000  Uiso   1.00
C195   C     0.56057   0.40883   0.03508   0.00000  Uiso   1.00
C196   C     0.55753   0.45276   0.12147   0.00000  Uiso   1.00
C197   C     0.51778   0.52040   0.25074   0.00000  Uiso   1.00
C198   C     0.79828   0.40327   0.04963   0.00000  Uiso   1.00
C199   C     0.78150   0.30354   0.01721   0.00000  Uiso   1.00
C200   C     0.83301   0.24538   0.04772   0.00000  Uiso   1.00
C201   C     0.80658   0.15659   0.00958   0.00000  Uiso   1.00
C202   C     0.80165   0.44419   0.96443   0.00000  Uiso   1.00
C203   C     0.87010   0.50430   0.95058   0.00000  Uiso   1.00
C204   C     0.86063   0.53393   0.86802   0.00000  Uiso   1.00
C205   C     0.71676   0.42492   0.08366   0.00000  Uiso   1.00
C206   C     0.71385   0.46885   0.17003   0.00000  Uiso   1.00
C207   C     0.63291   0.48228   0.18784   0.00000  Uiso   1.00
H208   H     0.60116   0.32609   0.87607   0.00000  Uiso   1.00
H209   H     0.62151   0.16258   0.86149   0.00000  Uiso   1.00
H210   H     0.65859   0.42147   0.76438   0.00000  Uiso   1.00
H211   H     0.50236   0.38602   0.98380   0.00000  Uiso   1.00
H212   H     0.67727   0.99430   0.87452   0.00000  Uiso   1.00
H213   H     0.75543   0.54020   0.66975   0.00000  Uiso   1.00
H214   H     0.42599   0.46546   0.13244   0.00000  Uiso   1.00
H215   H     0.85686   0.42622   0.10121   0.00000  Uiso   1.00
H216   H     0.89124   0.26820   0.09899   0.00000  Uiso   1.00
H217   H     0.92831   0.52709   0.00186   0.00000  Uiso   1.00
H218   H     0.77209   0.49164   0.22128   0.00000  Uiso   1.00
H219   H     0.89619   0.08002   0.06727   0.00000  Uiso   1.00
H220   H     0.97435   0.62593   0.86251   0.00000  Uiso   1.00
H221   H     0.64492   0.55118   0.32520   0.00000  Uiso   1.00
O222   O     0.80475   0.93141   0.96535   0.00000  Uiso   1.00
O223   O     0.90729   0.64763   0.69671   0.00000  Uiso   1.00
O224   O     0.47507   0.54955   0.30375   0.00000  Uiso   1.00
N225   N     0.72407   0.03616   0.92020   0.00000  Uiso   1.00
N226   N     0.79715   0.54653   0.72875   0.00000  Uiso   1.00
N227   N     0.48915   0.47667   0.16132   0.00000  Uiso   1.00
N228   N     0.84187   0.08229   0.02392   0.00000  Uiso   1.00
N229   N     0.91495   0.59266   0.83247   0.00000  Uiso   1.00
N230   N     0.60695   0.52280   0.26504   0.00000  Uiso   1.00
C231   C     0.93399   0.65957   0.34983   0.00000  Uiso   1.00
C232   C     0.95597   0.70662   0.27270   0.00000  Uiso   1.00
C233   C     0.91962   0.67953   0.18111   0.00000  Uiso   1.00
C234   C     0.94839   0.73165   0.12119   0.00000  Uiso   1.00
C235   C     0.97293   0.79311   0.99677   0.00000  Uiso   1.00
C236   C     0.90569   0.72767   0.41773   0.00000  Uiso   1.00
C237   C     0.82707   0.71828   0.44808   0.00000  Uiso   1.00
C238   C     0.81353   0.78811   0.51026   0.00000  Uiso   1.00
C239   C     0.76003   0.88223   0.61105   0.00000  Uiso   1.00
C240   C     0.01962   0.64084   0.39775   0.00000  Uiso   1.00
C241   C     0.03679   0.55845   0.41134   0.00000  Uiso   1.00
C242   C     0.11916   0.55519   0.45672   0.00000  Uiso   1.00
C243   C     0.24255   0.51449   0.52650   0.00000  Uiso   1.00
C244   C     0.04974   0.80028   0.40630   0.00000  Uiso   1.00
C245   C     0.01884   0.78305   0.30338   0.00000  Uiso   1.00
C246   C     0.04768   0.83522   0.24359   0.00000  Uiso   1.00
C247   C     0.01138   0.80822   0.15192   0.00000  Uiso   1.00
C248   C     0.96856   0.80410   0.44840   0.00000  Uiso   1.00
C249   C     0.95514   0.87397   0.51056   0.00000  Uiso   1.00
C250   C     0.87651   0.86469   0.54099   0.00000  Uiso   1.00
C251   C     0.08250   0.71728   0.42843   0.00000  Uiso   1.00
C252   C     0.16485   0.71414   0.47381   0.00000  Uiso   1.00
C253   C     0.18214   0.63176   0.48745   0.00000  Uiso   1.00
H254   H     0.88504   0.60006   0.32595   0.00000  Uiso   1.00
H255   H     0.87095   0.62038   0.15739   0.00000  Uiso   1.00
H256   H     0.77843   0.65912   0.42433   0.00000  Uiso   1.00
H257   H     0.98812   0.49932   0.38759   0.00000  Uiso   1.00
H258   H     0.88305   0.67664   0.98405   0.00000  Uiso   1.00
H259   H     0.68796   0.75830   0.54693   0.00000  Uiso   1.00
H260   H     0.13013   0.42133   0.46945   0.00000  Uiso   1.00
H261   H     0.09869   0.85979   0.43019   0.00000  Uiso   1.00
H262   H     0.09634   0.89437   0.26734   0.00000  Uiso   1.00
H263   H     0.00381   0.93310   0.53428   0.00000  Uiso   1.00
H264   H     0.21349   0.77330   0.49754   0.00000  Uiso   1.00
H265   H     0.06597   0.89902   0.07329   0.00000  Uiso   1.00
H266   H     0.87089   0.98068   0.63617   0.00000  Uiso   1.00
H267   H     0.31305   0.64371   0.55869   0.00000  Uiso   1.00
O268   O     0.96908   0.80590   0.91967   0.00000  Uiso   1.00
O269   O     0.71315   0.91303   0.65816   0.00000  Uiso   1.00
O270   O     0.29325   0.47093   0.55651   0.00000  Uiso   1.00
N271   N     0.92643   0.72422   0.02740   0.00000  Uiso   1.00
N272   N     0.74404   0.80058   0.55365   0.00000  Uiso   1.00
N273   N     0.15741   0.48554   0.48123   0.00000  Uiso   1.00
N274   N     0.02486   0.84388   0.07542   0.00000  Uiso   1.00
N275   N     0.84247   0.92024   0.60166   0.00000  Uiso   1.00
N276   N     0.25584   0.60520   0.52925   0.00000  Uiso   1.00
