data_job_02364
_audit_creation_date              2018-12-19
_audit_creation_method            'Materials Studio'
_symmetry_space_group_name_H-M    'P1'
_symmetry_Int_Tables_number       1
_symmetry_cell_setting            triclinic
loop_
_symmetry_equiv_pos_as_xyz
  x,y,z
_cell_length_a                    25.3123
_cell_length_b                    23.6925
_cell_length_c                    8.8874
_cell_angle_alpha                 91.0112
_cell_angle_beta                  90.3183
_cell_angle_gamma                 87.0476
loop_
_atom_site_label
_atom_site_type_symbol
_atom_site_fract_x
_atom_site_fract_y
_atom_site_fract_z
_atom_site_U_iso_or_equiv
_atom_site_adp_type
_atom_site_occupancy
C1     C     0.11767   0.05039   0.79912   0.00000  Uiso   1.00
C2     C     0.09555   0.07377   0.94817   0.00000  Uiso   1.00
C3     C     0.04491   0.09761   0.97054   0.00000  Uiso   1.00
C4     C     0.03230   0.11652   0.11531   0.00000  Uiso   1.00
C5     C     0.99237   0.15359   0.32876   0.00000  Uiso   1.00
C6     C     0.16745   0.08206   0.77009   0.00000  Uiso   1.00
C7     C     0.17726   0.11285   0.64272   0.00000  Uiso   1.00
C8     C     0.22518   0.13873   0.63757   0.00000  Uiso   1.00
C9     C     0.29690   0.18863   0.57450   0.00000  Uiso   1.00
C10    C     0.13638   0.98931   0.82804   0.00000  Uiso   1.00
C11    C     0.12007   0.94212   0.74938   0.00000  Uiso   1.00
C12    C     0.14184   0.88992   0.79301   0.00000  Uiso   1.00
C13    C     0.16530   0.79581   0.81993   0.00000  Uiso   1.00
C14    C     0.18533   0.04160   0.01644   0.00000  Uiso   1.00
C15    C     0.13230   0.06900   0.06620   0.00000  Uiso   1.00
C16    C     0.11977   0.08789   0.21098   0.00000  Uiso   1.00
C17    C     0.06911   0.11174   0.23356   0.00000  Uiso   1.00
C18    C     0.20420   0.07729   0.88812   0.00000  Uiso   1.00
C19    C     0.25212   0.10313   0.88316   0.00000  Uiso   1.00
C20    C     0.26200   0.13396   0.75582   0.00000  Uiso   1.00
C21    C     0.17313   0.98454   0.94609   0.00000  Uiso   1.00
C22    C     0.19493   0.93240   0.98983   0.00000  Uiso   1.00
C23    C     0.17865   0.88514   0.91126   0.00000  Uiso   1.00
H24    H     0.08906   0.05410   0.70722   0.00000  Uiso   1.00
H25    H     0.01648   0.10130   0.87916   0.00000  Uiso   1.00
H26    H     0.14882   0.11653   0.55138   0.00000  Uiso   1.00
H27    H     0.09163   0.94583   0.65804   0.00000  Uiso   1.00
H28    H     0.95223   0.15153   0.12182   0.00000  Uiso   1.00
H29    H     0.23127   0.18364   0.43067   0.00000  Uiso   1.00
H30    H     0.11068   0.82368   0.65557   0.00000  Uiso   1.00
H31    H     0.21395   0.03789   0.10835   0.00000  Uiso   1.00
H32    H     0.14822   0.08419   0.30230   0.00000  Uiso   1.00
H33    H     0.28055   0.09943   0.97452   0.00000  Uiso   1.00
H34    H     0.22337   0.92873   0.08118   0.00000  Uiso   1.00
H35    H     0.05915   0.13765   0.46526   0.00000  Uiso   1.00
H36    H     0.33820   0.16976   0.77410   0.00000  Uiso   1.00
H37    H     0.21760   0.80980   0.99901   0.00000  Uiso   1.00
O38    O     0.96020   0.17536   0.41388   0.00000  Uiso   1.00
O39    O     0.32630   0.21747   0.50710   0.00000  Uiso   1.00
O40    O     0.16809   0.74522   0.80218   0.00000  Uiso   1.00
N41    N     0.98641   0.14190   0.17604   0.00000  Uiso   1.00
N42    N     0.24729   0.17193   0.52986   0.00000  Uiso   1.00
N43    N     0.13456   0.83540   0.74010   0.00000  Uiso   1.00
N44    N     0.04394   0.13443   0.36084   0.00000  Uiso   1.00
N45    N     0.30483   0.16446   0.71467   0.00000  Uiso   1.00
N46    N     0.19210   0.82793   0.92491   0.00000  Uiso   1.00
C47    C     0.98170   0.61193   0.05868   0.00000  Uiso   1.00
C48    C     0.96159   0.58309   0.19771   0.00000  Uiso   1.00
C49    C     0.95088   0.52641   0.20711   0.00000  Uiso   1.00
C50    C     0.93277   0.50821   0.34429   0.00000  Uiso   1.00
C51    C     0.90259   0.45778   0.54140   0.00000  Uiso   1.00
C52    C     0.94183   0.66078   0.02699   0.00000  Uiso   1.00
C53    C     0.91452   0.66942   0.89284   0.00000  Uiso   1.00
C54    C     0.87979   0.71663   0.88632   0.00000  Uiso   1.00
C55    C     0.81898   0.78684   0.81833   0.00000  Uiso   1.00
C56    C     0.03269   0.63886   0.10686   0.00000  Uiso   1.00
C57    C     0.08178   0.62907   0.03984   0.00000  Uiso   1.00
C58    C     0.12355   0.65783   0.10053   0.00000  Uiso   1.00
C59    C     0.20381   0.69399   0.15656   0.00000  Uiso   1.00
C60    C     0.96859   0.68042   0.28562   0.00000  Uiso   1.00
C61    C     0.95446   0.62030   0.32097   0.00000  Uiso   1.00
C62    C     0.93637   0.60218   0.45819   0.00000  Uiso   1.00
C63    C     0.92563   0.54548   0.46778   0.00000  Uiso   1.00
C64    C     0.93471   0.69799   0.15025   0.00000  Uiso   1.00
C65    C     0.90001   0.74520   0.14392   0.00000  Uiso   1.00
C66    C     0.87265   0.75390   0.00980   0.00000  Uiso   1.00
C67    C     0.02557   0.67606   0.23013   0.00000  Uiso   1.00
C68    C     0.06727   0.70484   0.29093   0.00000  Uiso   1.00
C69    C     0.11641   0.69510   0.22402   0.00000  Uiso   1.00
H70    H     0.98725   0.58297   0.96271   0.00000  Uiso   1.00
H71    H     0.95639   0.49763   0.11168   0.00000  Uiso   1.00
H72    H     0.92005   0.64063   0.79747   0.00000  Uiso   1.00
H73    H     0.08728   0.60028   0.94445   0.00000  Uiso   1.00
H74    H     0.91902   0.41943   0.33119   0.00000  Uiso   1.00
H75    H     0.84240   0.72095   0.66862   0.00000  Uiso   1.00
H76    H     0.19504   0.63587   0.97856   0.00000  Uiso   1.00
H77    H     0.96304   0.70939   0.38159   0.00000  Uiso   1.00
H78    H     0.93086   0.63098   0.55356   0.00000  Uiso   1.00
H79    H     0.89451   0.77398   0.23933   0.00000  Uiso   1.00
H80    H     0.06174   0.73363   0.38632   0.00000  Uiso   1.00
H81    H     0.89830   0.52766   0.68983   0.00000  Uiso   1.00
H82    H     0.82168   0.82918   0.02725   0.00000  Uiso   1.00
H83    H     0.17432   0.74410   0.33720   0.00000  Uiso   1.00
O84    O     0.88791   0.41969   0.61606   0.00000  Uiso   1.00
O85    O     0.78740   0.81528   0.74678   0.00000  Uiso   1.00
O86    O     0.25005   0.70365   0.15343   0.00000  Uiso   1.00
N87    N     0.91857   0.45566   0.39200   0.00000  Uiso   1.00
N88    N     0.84693   0.73756   0.77255   0.00000  Uiso   1.00
N89    N     0.17662   0.65802   0.06229   0.00000  Uiso   1.00
N90    N     0.90742   0.51390   0.58498   0.00000  Uiso   1.00
N91    N     0.83578   0.79580   0.96553   0.00000  Uiso   1.00
N92    N     0.16546   0.71626   0.25527   0.00000  Uiso   1.00
C93    C     0.37808   0.45569   0.80097   0.00000  Uiso   1.00
C94    C     0.39951   0.43269   0.94971   0.00000  Uiso   1.00
C95    C     0.44885   0.40570   0.97150   0.00000  Uiso   1.00
C96    C     0.46101   0.38776   0.11607   0.00000  Uiso   1.00
C97    C     0.49973   0.35069   0.32899   0.00000  Uiso   1.00
C98    C     0.32615   0.42735   0.77228   0.00000  Uiso   1.00
C99    C     0.31381   0.39587   0.64487   0.00000  Uiso   1.00
C100   C     0.26421   0.37344   0.64008   0.00000  Uiso   1.00
C101   C     0.18902   0.32810   0.57749   0.00000  Uiso   1.00
C102   C     0.36326   0.51810   0.83032   0.00000  Uiso   1.00
C103   C     0.38211   0.56292   0.75169   0.00000  Uiso   1.00
C104   C     0.36375   0.61690   0.79574   0.00000  Uiso   1.00
C105   C     0.34619   0.71247   0.82327   0.00000  Uiso   1.00
C106   C     0.31193   0.47184   0.01897   0.00000  Uiso   1.00
C107   C     0.36357   0.44146   0.06811   0.00000  Uiso   1.00
C108   C     0.37566   0.42357   0.21269   0.00000  Uiso   1.00
C109   C     0.42502   0.39655   0.23469   0.00000  Uiso   1.00
C110   C     0.29022   0.43612   0.89068   0.00000  Uiso   1.00
C111   C     0.24062   0.41373   0.88607   0.00000  Uiso   1.00
C112   C     0.22821   0.38222   0.75870   0.00000  Uiso   1.00
C113   C     0.32733   0.52687   0.94873   0.00000  Uiso   1.00
C114   C     0.30893   0.58079   0.99290   0.00000  Uiso   1.00
C115   C     0.32776   0.62569   0.91437   0.00000  Uiso   1.00
H116   H     0.40605   0.44886   0.70878   0.00000  Uiso   1.00
H117   H     0.47664   0.39892   0.87983   0.00000  Uiso   1.00
H118   H     0.34162   0.38909   0.55325   0.00000  Uiso   1.00
H119   H     0.40992   0.55612   0.66007   0.00000  Uiso   1.00
H120   H     0.53905   0.34739   0.12168   0.00000  Uiso   1.00
H121   H     0.25434   0.32669   0.43305   0.00000  Uiso   1.00
H122   H     0.39836   0.67890   0.65828   0.00000  Uiso   1.00
H123   H     0.28396   0.47867   0.11116   0.00000  Uiso   1.00
H124   H     0.34785   0.43036   0.30430   0.00000  Uiso   1.00
H125   H     0.21283   0.42053   0.97772   0.00000  Uiso   1.00
H126   H     0.28113   0.58756   0.08454   0.00000  Uiso   1.00
H127   H     0.43452   0.37291   0.46619   0.00000  Uiso   1.00
H128   H     0.14981   0.35221   0.77756   0.00000  Uiso   1.00
H129   H     0.29383   0.70442   0.00280   0.00000  Uiso   1.00
O130   O     0.53101   0.32781   0.41372   0.00000  Uiso   1.00
O131   O     0.15748   0.30067   0.51026   0.00000  Uiso   1.00
O132   O     0.34643   0.76276   0.80576   0.00000  Uiso   1.00
N133   N     0.50569   0.36003   0.17626   0.00000  Uiso   1.00
N134   N     0.23950   0.34067   0.53245   0.00000  Uiso   1.00
N135   N     0.37414   0.66996   0.74299   0.00000  Uiso   1.00
N136   N     0.44944   0.37377   0.36164   0.00000  Uiso   1.00
N137   N     0.18325   0.35441   0.71783   0.00000  Uiso   1.00
N138   N     0.31789   0.68370   0.92837   0.00000  Uiso   1.00
C139   C     0.54025   0.88540   0.06976   0.00000  Uiso   1.00
C140   C     0.56238   0.91171   0.21311   0.00000  Uiso   1.00
C141   C     0.57752   0.96694   0.22988   0.00000  Uiso   1.00
C142   C     0.59682   0.98288   0.37000   0.00000  Uiso   1.00
C143   C     0.63061   0.02949   0.57447   0.00000  Uiso   1.00
C144   C     0.57638   0.83348   0.03376   0.00000  Uiso   1.00
C145   C     0.60328   0.82295   0.89972   0.00000  Uiso   1.00
C146   C     0.63435   0.77303   0.88886   0.00000  Uiso   1.00
C147   C     0.68984   0.69818   0.81483   0.00000  Uiso   1.00
C148   C     0.48702   0.86309   0.11252   0.00000  Uiso   1.00
C149   C     0.43879   0.87744   0.04468   0.00000  Uiso   1.00
C150   C     0.39463   0.85244   0.10012   0.00000  Uiso   1.00
C151   C     0.31137   0.82356   0.14839   0.00000  Uiso   1.00
C152   C     0.54759   0.81547   0.28881   0.00000  Uiso   1.00
C153   C     0.56637   0.87372   0.33209   0.00000  Uiso   1.00
C154   C     0.58565   0.88958   0.47223   0.00000  Uiso   1.00
C155   C     0.60081   0.94483   0.48920   0.00000  Uiso   1.00
C156   C     0.58037   0.79550   0.15273   0.00000  Uiso   1.00
C157   C     0.61141   0.74558   0.14207   0.00000  Uiso   1.00
C158   C     0.63835   0.73498   0.00805   0.00000  Uiso   1.00
C159   C     0.49101   0.82511   0.23151   0.00000  Uiso   1.00
C160   C     0.44691   0.80008   0.28705   0.00000  Uiso   1.00
C161   C     0.39862   0.81439   0.21931   0.00000  Uiso   1.00
H162   H     0.53715   0.91497   0.97713   0.00000  Uiso   1.00
H163   H     0.57443   0.99632   0.13777   0.00000  Uiso   1.00
H164   H     0.60018   0.85235   0.80766   0.00000  Uiso   1.00
H165   H     0.43572   0.90683   0.95261   0.00000  Uiso   1.00
H166   H     0.61755   0.06976   0.36832   0.00000  Uiso   1.00
H167   H     0.67183   0.76618   0.67225   0.00000  Uiso   1.00
H168   H     0.32502   0.88107   0.97790   0.00000  Uiso   1.00
H169   H     0.55070   0.78590   0.38145   0.00000  Uiso   1.00
H170   H     0.58873   0.86017   0.56428   0.00000  Uiso   1.00
H171   H     0.61448   0.71620   0.23417   0.00000  Uiso   1.00
H172   H     0.45002   0.77068   0.37912   0.00000  Uiso   1.00
H173   H     0.62916   0.95926   0.71450   0.00000  Uiso   1.00
H174   H     0.68344   0.65567   0.01841   0.00000  Uiso   1.00
H175   H     0.33663   0.77056   0.32408   0.00000  Uiso   1.00
O176   O     0.64815   0.06569   0.65437   0.00000  Uiso   1.00
O177   O     0.71935   0.66739   0.74113   0.00000  Uiso   1.00
O178   O     0.26434   0.81813   0.14216   0.00000  Uiso   1.00
N179   N     0.61505   0.03357   0.42471   0.00000  Uiso   1.00
N180   N     0.66581   0.74973   0.77393   0.00000  Uiso   1.00
N181   N     0.34157   0.85714   0.05967   0.00000  Uiso   1.00
N182   N     0.62130   0.97410   0.61098   0.00000  Uiso   1.00
N183   N     0.67206   0.69027   0.96020   0.00000  Uiso   1.00
N184   N     0.34782   0.79768   0.24594   0.00000  Uiso   1.00
C185   C     0.88233   0.94961   0.20088   0.00000  Uiso   1.00
C186   C     0.90445   0.92623   0.05183   0.00000  Uiso   1.00
C187   C     0.95509   0.90239   0.02946   0.00000  Uiso   1.00
C188   C     0.96770   0.88348   0.88469   0.00000  Uiso   1.00
C189   C     0.00763   0.84641   0.67124   0.00000  Uiso   1.00
C190   C     0.83255   0.91794   0.22991   0.00000  Uiso   1.00
C191   C     0.82274   0.88715   0.35728   0.00000  Uiso   1.00
C192   C     0.77482   0.86127   0.36243   0.00000  Uiso   1.00
C193   C     0.70310   0.81137   0.42550   0.00000  Uiso   1.00
C194   C     0.86362   0.01069   0.17196   0.00000  Uiso   1.00
C195   C     0.87993   0.05788   0.25062   0.00000  Uiso   1.00
C196   C     0.85816   0.11008   0.20699   0.00000  Uiso   1.00
C197   C     0.83470   0.20419   0.18007   0.00000  Uiso   1.00
C198   C     0.81467   0.95840   0.98356   0.00000  Uiso   1.00
C199   C     0.86770   0.93100   0.93380   0.00000  Uiso   1.00
C200   C     0.88023   0.91211   0.78902   0.00000  Uiso   1.00
C201   C     0.93089   0.88826   0.76644   0.00000  Uiso   1.00
C202   C     0.79580   0.92271   0.11188   0.00000  Uiso   1.00
C203   C     0.74788   0.89687   0.11684   0.00000  Uiso   1.00
C204   C     0.73800   0.86604   0.24418   0.00000  Uiso   1.00
C205   C     0.82687   0.01546   0.05391   0.00000  Uiso   1.00
C206   C     0.80507   0.06760   0.01017   0.00000  Uiso   1.00
C207   C     0.82135   0.11486   0.08874   0.00000  Uiso   1.00
H208   H     0.91094   0.94590   0.29278   0.00000  Uiso   1.00
H209   H     0.98352   0.89870   0.12084   0.00000  Uiso   1.00
H210   H     0.85118   0.88347   0.44862   0.00000  Uiso   1.00
H211   H     0.90837   0.05417   0.34196   0.00000  Uiso   1.00
H212   H     0.04777   0.84847   0.87818   0.00000  Uiso   1.00
H213   H     0.76873   0.81636   0.56933   0.00000  Uiso   1.00
H214   H     0.88932   0.17632   0.34443   0.00000  Uiso   1.00
H215   H     0.78605   0.96211   0.89165   0.00000  Uiso   1.00
H216   H     0.85178   0.91581   0.69770   0.00000  Uiso   1.00
H217   H     0.71945   0.90057   0.02548   0.00000  Uiso   1.00
H218   H     0.77663   0.07127   0.91882   0.00000  Uiso   1.00
H219   H     0.94085   0.86235   0.53474   0.00000  Uiso   1.00
H220   H     0.66180   0.83024   0.22590   0.00000  Uiso   1.00
H221   H     0.78240   0.19020   0.00099   0.00000  Uiso   1.00
O222   O     0.03980   0.82464   0.58612   0.00000  Uiso   1.00
O223   O     0.67370   0.78253   0.49290   0.00000  Uiso   1.00
O224   O     0.83191   0.25478   0.19782   0.00000  Uiso   1.00
N225   N     0.01359   0.85810   0.82396   0.00000  Uiso   1.00
N226   N     0.75271   0.82807   0.47014   0.00000  Uiso   1.00
N227   N     0.86544   0.16460   0.25990   0.00000  Uiso   1.00
N228   N     0.95606   0.86557   0.63916   0.00000  Uiso   1.00
N229   N     0.69517   0.83554   0.28533   0.00000  Uiso   1.00
N230   N     0.80790   0.17207   0.07509   0.00000  Uiso   1.00
C231   C     0.01830   0.38807   0.94132   0.00000  Uiso   1.00
C232   C     0.03841   0.41691   0.80229   0.00000  Uiso   1.00
C233   C     0.04912   0.47359   0.79289   0.00000  Uiso   1.00
C234   C     0.06723   0.49179   0.65571   0.00000  Uiso   1.00
C235   C     0.09741   0.54222   0.45860   0.00000  Uiso   1.00
C236   C     0.05817   0.33922   0.97301   0.00000  Uiso   1.00
C237   C     0.08548   0.33058   0.10716   0.00000  Uiso   1.00
C238   C     0.12021   0.28337   0.11368   0.00000  Uiso   1.00
C239   C     0.18102   0.21316   0.18167   0.00000  Uiso   1.00
C240   C     0.96731   0.36114   0.89314   0.00000  Uiso   1.00
C241   C     0.91822   0.37093   0.96016   0.00000  Uiso   1.00
C242   C     0.87645   0.34217   0.89947   0.00000  Uiso   1.00
C243   C     0.79619   0.30601   0.84344   0.00000  Uiso   1.00
C244   C     0.03141   0.31958   0.71438   0.00000  Uiso   1.00
C245   C     0.04554   0.37970   0.67903   0.00000  Uiso   1.00
C246   C     0.06363   0.39782   0.54181   0.00000  Uiso   1.00
C247   C     0.07437   0.45452   0.53222   0.00000  Uiso   1.00
C248   C     0.06529   0.30201   0.84975   0.00000  Uiso   1.00
C249   C     0.09999   0.25480   0.85608   0.00000  Uiso   1.00
C250   C     0.12735   0.24610   0.99020   0.00000  Uiso   1.00
C251   C     0.97443   0.32394   0.76987   0.00000  Uiso   1.00
C252   C     0.93273   0.29516   0.70907   0.00000  Uiso   1.00
C253   C     0.88359   0.30490   0.77598   0.00000  Uiso   1.00
H254   H     0.01275   0.41703   0.03729   0.00000  Uiso   1.00
H255   H     0.04361   0.50237   0.88832   0.00000  Uiso   1.00
H256   H     0.07995   0.35937   0.20253   0.00000  Uiso   1.00
H257   H     0.91272   0.39972   0.05555   0.00000  Uiso   1.00
H258   H     0.08098   0.58057   0.66881   0.00000  Uiso   1.00
H259   H     0.15760   0.27905   0.33138   0.00000  Uiso   1.00
H260   H     0.80496   0.36413   0.02144   0.00000  Uiso   1.00
H261   H     0.03696   0.29061   0.61841   0.00000  Uiso   1.00
H262   H     0.06914   0.36902   0.44644   0.00000  Uiso   1.00
H263   H     0.10549   0.22602   0.76067   0.00000  Uiso   1.00
H264   H     0.93826   0.26637   0.61368   0.00000  Uiso   1.00
H265   H     0.10170   0.47234   0.31017   0.00000  Uiso   1.00
H266   H     0.17832   0.17082   0.97275   0.00000  Uiso   1.00
H267   H     0.82568   0.25590   0.66280   0.00000  Uiso   1.00
O268   O     0.11209   0.58031   0.38394   0.00000  Uiso   1.00
O269   O     0.21260   0.18472   0.25322   0.00000  Uiso   1.00
O270   O     0.74995   0.29635   0.84657   0.00000  Uiso   1.00
N271   N     0.08143   0.54434   0.60800   0.00000  Uiso   1.00
N272   N     0.15307   0.26244   0.22745   0.00000  Uiso   1.00
N273   N     0.82338   0.34198   0.93771   0.00000  Uiso   1.00
N274   N     0.09258   0.48610   0.41502   0.00000  Uiso   1.00
N275   N     0.16422   0.20420   0.03447   0.00000  Uiso   1.00
N276   N     0.83454   0.28374   0.74473   0.00000  Uiso   1.00
C277   C     0.62192   0.54431   0.19903   0.00000  Uiso   1.00
C278   C     0.60049   0.56731   0.05029   0.00000  Uiso   1.00
C279   C     0.55115   0.59430   0.02850   0.00000  Uiso   1.00
C280   C     0.53899   0.61224   0.88393   0.00000  Uiso   1.00
C281   C     0.50027   0.64931   0.67101   0.00000  Uiso   1.00
C282   C     0.67385   0.57265   0.22772   0.00000  Uiso   1.00
C283   C     0.68619   0.60413   0.35513   0.00000  Uiso   1.00
C284   C     0.73579   0.62656   0.35992   0.00000  Uiso   1.00
C285   C     0.81098   0.67190   0.42251   0.00000  Uiso   1.00
C286   C     0.63674   0.48190   0.16968   0.00000  Uiso   1.00
C287   C     0.61789   0.43708   0.24831   0.00000  Uiso   1.00
C288   C     0.63625   0.38310   0.20426   0.00000  Uiso   1.00
C289   C     0.65381   0.28753   0.17673   0.00000  Uiso   1.00
C290   C     0.68807   0.52816   0.98103   0.00000  Uiso   1.00
C291   C     0.63643   0.55854   0.93189   0.00000  Uiso   1.00
C292   C     0.62434   0.57643   0.78731   0.00000  Uiso   1.00
C293   C     0.57498   0.60345   0.76531   0.00000  Uiso   1.00
C294   C     0.70978   0.56388   0.10932   0.00000  Uiso   1.00
C295   C     0.75938   0.58627   0.11393   0.00000  Uiso   1.00
C296   C     0.77179   0.61778   0.24130   0.00000  Uiso   1.00
C297   C     0.67267   0.47313   0.05127   0.00000  Uiso   1.00
C298   C     0.69107   0.41921   0.00710   0.00000  Uiso   1.00
C299   C     0.67224   0.37431   0.08563   0.00000  Uiso   1.00
H300   H     0.59395   0.55114   0.29122   0.00000  Uiso   1.00
H301   H     0.52336   0.60108   0.12017   0.00000  Uiso   1.00
H302   H     0.65838   0.61091   0.44675   0.00000  Uiso   1.00
H303   H     0.59008   0.44388   0.33993   0.00000  Uiso   1.00
H304   H     0.46095   0.65261   0.87832   0.00000  Uiso   1.00
H305   H     0.74566   0.67331   0.56695   0.00000  Uiso   1.00
H306   H     0.60164   0.32110   0.34172   0.00000  Uiso   1.00
H307   H     0.71604   0.52133   0.88884   0.00000  Uiso   1.00
H308   H     0.65215   0.56964   0.69570   0.00000  Uiso   1.00
H309   H     0.78717   0.57947   0.02228   0.00000  Uiso   1.00
H310   H     0.71887   0.41244   0.91546   0.00000  Uiso   1.00
H311   H     0.56548   0.62709   0.53381   0.00000  Uiso   1.00
H312   H     0.85019   0.64779   0.22244   0.00000  Uiso   1.00
H313   H     0.70617   0.29558   0.99720   0.00000  Uiso   1.00
O314   O     0.46899   0.67219   0.58628   0.00000  Uiso   1.00
O315   O     0.84252   0.69933   0.48974   0.00000  Uiso   1.00
O316   O     0.65357   0.23724   0.19424   0.00000  Uiso   1.00
N317   N     0.49431   0.63997   0.82374   0.00000  Uiso   1.00
N318   N     0.76050   0.65933   0.46755   0.00000  Uiso   1.00
N319   N     0.62586   0.33004   0.25701   0.00000  Uiso   1.00
N320   N     0.55056   0.62623   0.63836   0.00000  Uiso   1.00
N321   N     0.81675   0.64559   0.28217   0.00000  Uiso   1.00
N322   N     0.68211   0.31630   0.07163   0.00000  Uiso   1.00
C323   C     0.45975   0.11460   0.93024   0.00000  Uiso   1.00
C324   C     0.43762   0.08829   0.78689   0.00000  Uiso   1.00
C325   C     0.42248   0.03306   0.77012   0.00000  Uiso   1.00
C326   C     0.40318   0.01712   0.63000   0.00000  Uiso   1.00
C327   C     0.36939   0.97051   0.42553   0.00000  Uiso   1.00
C328   C     0.42362   0.16652   0.96624   0.00000  Uiso   1.00
C329   C     0.39672   0.17705   0.10028   0.00000  Uiso   1.00
C330   C     0.36565   0.22697   0.11114   0.00000  Uiso   1.00
C331   C     0.31016   0.30182   0.18517   0.00000  Uiso   1.00
C332   C     0.51298   0.13691   0.88748   0.00000  Uiso   1.00
C333   C     0.56121   0.12256   0.95532   0.00000  Uiso   1.00
C334   C     0.60537   0.14756   0.89988   0.00000  Uiso   1.00
C335   C     0.68863   0.17644   0.85161   0.00000  Uiso   1.00
C336   C     0.45241   0.18453   0.71119   0.00000  Uiso   1.00
C337   C     0.43363   0.12628   0.66791   0.00000  Uiso   1.00
C338   C     0.41435   0.11042   0.52777   0.00000  Uiso   1.00
C339   C     0.39919   0.05517   0.51080   0.00000  Uiso   1.00
C340   C     0.41963   0.20450   0.84727   0.00000  Uiso   1.00
C341   C     0.38859   0.25442   0.85793   0.00000  Uiso   1.00
C342   C     0.36165   0.26502   0.99195   0.00000  Uiso   1.00
C343   C     0.50899   0.17489   0.76849   0.00000  Uiso   1.00
C344   C     0.55309   0.19992   0.71295   0.00000  Uiso   1.00
C345   C     0.60138   0.18561   0.78069   0.00000  Uiso   1.00
H346   H     0.46285   0.08503   0.02287   0.00000  Uiso   1.00
H347   H     0.42557   0.00368   0.86223   0.00000  Uiso   1.00
H348   H     0.39982   0.14765   0.19234   0.00000  Uiso   1.00
H349   H     0.56428   0.09317   0.04739   0.00000  Uiso   1.00
H350   H     0.38245   0.93024   0.63168   0.00000  Uiso   1.00
H351   H     0.32817   0.23382   0.32775   0.00000  Uiso   1.00
H352   H     0.67498   0.11893   0.02210   0.00000  Uiso   1.00
H353   H     0.44930   0.21410   0.61855   0.00000  Uiso   1.00
H354   H     0.41127   0.13983   0.43572   0.00000  Uiso   1.00
H355   H     0.38552   0.28380   0.76583   0.00000  Uiso   1.00
H356   H     0.54998   0.22932   0.62088   0.00000  Uiso   1.00
H357   H     0.37084   0.04074   0.28550   0.00000  Uiso   1.00
H358   H     0.31656   0.34433   0.98159   0.00000  Uiso   1.00
H359   H     0.66337   0.22944   0.67592   0.00000  Uiso   1.00
O360   O     0.35185   0.93431   0.34563   0.00000  Uiso   1.00
O361   O     0.28065   0.33261   0.25887   0.00000  Uiso   1.00
O362   O     0.73566   0.18187   0.85784   0.00000  Uiso   1.00
N363   N     0.38495   0.96643   0.57529   0.00000  Uiso   1.00
N364   N     0.33419   0.25027   0.22607   0.00000  Uiso   1.00
N365   N     0.65843   0.14286   0.94033   0.00000  Uiso   1.00
N366   N     0.37870   0.02590   0.38902   0.00000  Uiso   1.00
N367   N     0.32794   0.30973   0.03980   0.00000  Uiso   1.00
N368   N     0.65218   0.20232   0.75406   0.00000  Uiso   1.00
