data_job_00312
_audit_creation_date              2018-12-19
_audit_creation_method            'Materials Studio'
_symmetry_space_group_name_H-M    'P1'
_symmetry_Int_Tables_number       1
_symmetry_cell_setting            triclinic
loop_
_symmetry_equiv_pos_as_xyz
  x,y,z
_cell_length_a                    16.7635
_cell_length_b                    11.2505
_cell_length_c                    24.3053
_cell_angle_alpha                 90.0000
_cell_angle_beta                  90.0000
_cell_angle_gamma                 90.0000
loop_
_atom_site_label
_atom_site_type_symbol
_atom_site_fract_x
_atom_site_fract_y
_atom_site_fract_z
_atom_site_U_iso_or_equiv
_atom_site_adp_type
_atom_site_occupancy
C1     C     0.40795   0.17538   0.38078   0.00000  Uiso   1.00
C2     C     0.45727   0.28920   0.37886   0.00000  Uiso   1.00
C3     C     0.53390   0.29962   0.35780   0.00000  Uiso   1.00
C4     C     0.56883   0.41142   0.35984   0.00000  Uiso   1.00
C5     C     0.65156   0.57326   0.35349   0.00000  Uiso   1.00
C6     C     0.38537   0.15726   0.44098   0.00000  Uiso   1.00
C7     C     0.40154   0.05673   0.47214   0.00000  Uiso   1.00
C8     C     0.37594   0.05746   0.52646   0.00000  Uiso   1.00
C9     C     0.34700   0.01443   0.61654   0.00000  Uiso   1.00
C10    C     0.33035   0.20306   0.35066   0.00000  Uiso   1.00
C11    C     0.30024   0.14103   0.30589   0.00000  Uiso   1.00
C12    C     0.22830   0.18031   0.28418   0.00000  Uiso   1.00
C13    C     0.11393   0.20839   0.23403   0.00000  Uiso   1.00
C14    C     0.33373   0.35542   0.42186   0.00000  Uiso   1.00
C15    C     0.41695   0.38699   0.40118   0.00000  Uiso   1.00
C16    C     0.45178   0.49881   0.40325   0.00000  Uiso   1.00
C17    C     0.52845   0.50939   0.38219   0.00000  Uiso   1.00
C18    C     0.34506   0.25505   0.46329   0.00000  Uiso   1.00
C19    C     0.31942   0.25592   0.51758   0.00000  Uiso   1.00
C20    C     0.33555   0.15543   0.54882   0.00000  Uiso   1.00
C21    C     0.29003   0.30086   0.37297   0.00000  Uiso   1.00
C22    C     0.21813   0.34023   0.35134   0.00000  Uiso   1.00
C23    C     0.18791   0.27827   0.30654   0.00000  Uiso   1.00
H24    H     0.43934   0.09925   0.36342   0.00000  Uiso   1.00
H25    H     0.56508   0.22391   0.34054   0.00000  Uiso   1.00
H26    H     0.43273   0.98107   0.45486   0.00000  Uiso   1.00
H27    H     0.33145   0.06536   0.28864   0.00000  Uiso   1.00
H28    H     0.68672   0.40525   0.32504   0.00000  Uiso   1.00
H29    H     0.40764   0.89317   0.56608   0.00000  Uiso   1.00
H30    H     0.19407   0.07091   0.21557   0.00000  Uiso   1.00
H31    H     0.30234   0.43156   0.43923   0.00000  Uiso   1.00
H32    H     0.42057   0.57447   0.42051   0.00000  Uiso   1.00
H33    H     0.28822   0.33161   0.53483   0.00000  Uiso   1.00
H34    H     0.18694   0.41591   0.36861   0.00000  Uiso   1.00
H35    H     0.56943   0.68977   0.38995   0.00000  Uiso   1.00
H36    H     0.29035   0.17769   0.63099   0.00000  Uiso   1.00
H37    H     0.07678   0.35544   0.28048   0.00000  Uiso   1.00
O38    O     0.70833   0.63551   0.34383   0.00000  Uiso   1.00
O39    O     0.34218   0.96368   0.66006   0.00000  Uiso   1.00
O40    O     0.06198   0.19688   0.20020   0.00000  Uiso   1.00
N41    N     0.64289   0.45260   0.34287   0.00000  Uiso   1.00
N42    N     0.38198   0.97385   0.56823   0.00000  Uiso   1.00
N43    N     0.18229   0.14000   0.24054   0.00000  Uiso   1.00
N44    N     0.57977   0.60570   0.37780   0.00000  Uiso   1.00
N45    N     0.31886   0.12695   0.60316   0.00000  Uiso   1.00
N46    N     0.11918   0.29310   0.27547   0.00000  Uiso   1.00
C47    C     0.09205   0.82462   0.38078   0.00000  Uiso   1.00
C48    C     0.04273   0.71080   0.37886   0.00000  Uiso   1.00
C49    C     0.96610   0.70038   0.35780   0.00000  Uiso   1.00
C50    C     0.93117   0.58858   0.35984   0.00000  Uiso   1.00
C51    C     0.84844   0.42674   0.35349   0.00000  Uiso   1.00
C52    C     0.11463   0.84274   0.44098   0.00000  Uiso   1.00
C53    C     0.09846   0.94327   0.47214   0.00000  Uiso   1.00
C54    C     0.12406   0.94254   0.52646   0.00000  Uiso   1.00
C55    C     0.15300   0.98557   0.61654   0.00000  Uiso   1.00
C56    C     0.16965   0.79694   0.35066   0.00000  Uiso   1.00
C57    C     0.19976   0.85897   0.30589   0.00000  Uiso   1.00
C58    C     0.27170   0.81969   0.28418   0.00000  Uiso   1.00
C59    C     0.38607   0.79161   0.23403   0.00000  Uiso   1.00
C60    C     0.16627   0.64458   0.42186   0.00000  Uiso   1.00
C61    C     0.08305   0.61301   0.40118   0.00000  Uiso   1.00
C62    C     0.04822   0.50119   0.40325   0.00000  Uiso   1.00
C63    C     0.97155   0.49061   0.38219   0.00000  Uiso   1.00
C64    C     0.15494   0.74495   0.46329   0.00000  Uiso   1.00
C65    C     0.18058   0.74408   0.51758   0.00000  Uiso   1.00
C66    C     0.16445   0.84457   0.54882   0.00000  Uiso   1.00
C67    C     0.20997   0.69914   0.37297   0.00000  Uiso   1.00
C68    C     0.28187   0.65977   0.35134   0.00000  Uiso   1.00
C69    C     0.31209   0.72173   0.30654   0.00000  Uiso   1.00
H70    H     0.06066   0.90075   0.36342   0.00000  Uiso   1.00
H71    H     0.93492   0.77609   0.34054   0.00000  Uiso   1.00
H72    H     0.06727   0.01893   0.45486   0.00000  Uiso   1.00
H73    H     0.16855   0.93464   0.28864   0.00000  Uiso   1.00
H74    H     0.81328   0.59475   0.32504   0.00000  Uiso   1.00
H75    H     0.09236   0.10683   0.56608   0.00000  Uiso   1.00
H76    H     0.30593   0.92909   0.21557   0.00000  Uiso   1.00
H77    H     0.19766   0.56844   0.43923   0.00000  Uiso   1.00
H78    H     0.07943   0.42553   0.42051   0.00000  Uiso   1.00
H79    H     0.21178   0.66839   0.53483   0.00000  Uiso   1.00
H80    H     0.31306   0.58409   0.36861   0.00000  Uiso   1.00
H81    H     0.93057   0.31023   0.38995   0.00000  Uiso   1.00
H82    H     0.20965   0.82231   0.63099   0.00000  Uiso   1.00
H83    H     0.42322   0.64456   0.28048   0.00000  Uiso   1.00
O84    O     0.79167   0.36449   0.34383   0.00000  Uiso   1.00
O85    O     0.15782   0.03632   0.66006   0.00000  Uiso   1.00
O86    O     0.43802   0.80312   0.20020   0.00000  Uiso   1.00
N87    N     0.85711   0.54740   0.34287   0.00000  Uiso   1.00
N88    N     0.11802   0.02615   0.56823   0.00000  Uiso   1.00
N89    N     0.31771   0.86000   0.24054   0.00000  Uiso   1.00
N90    N     0.92023   0.39430   0.37780   0.00000  Uiso   1.00
N91    N     0.18114   0.87305   0.60316   0.00000  Uiso   1.00
N92    N     0.38082   0.70690   0.27547   0.00000  Uiso   1.00
C93    C     0.59205   0.17538   0.11922   0.00000  Uiso   1.00
C94    C     0.54273   0.28920   0.12114   0.00000  Uiso   1.00
C95    C     0.46610   0.29962   0.14220   0.00000  Uiso   1.00
C96    C     0.43117   0.41142   0.14016   0.00000  Uiso   1.00
C97    C     0.34844   0.57326   0.14651   0.00000  Uiso   1.00
C98    C     0.61463   0.15726   0.05902   0.00000  Uiso   1.00
C99    C     0.59846   0.05673   0.02786   0.00000  Uiso   1.00
C100   C     0.62406   0.05746   0.97354   0.00000  Uiso   1.00
C101   C     0.65300   0.01443   0.88346   0.00000  Uiso   1.00
C102   C     0.66965   0.20306   0.14934   0.00000  Uiso   1.00
C103   C     0.69976   0.14103   0.19411   0.00000  Uiso   1.00
C104   C     0.77170   0.18031   0.21582   0.00000  Uiso   1.00
C105   C     0.88607   0.20839   0.26597   0.00000  Uiso   1.00
C106   C     0.66627   0.35542   0.07814   0.00000  Uiso   1.00
C107   C     0.58305   0.38699   0.09882   0.00000  Uiso   1.00
C108   C     0.54822   0.49881   0.09675   0.00000  Uiso   1.00
C109   C     0.47155   0.50939   0.11781   0.00000  Uiso   1.00
C110   C     0.65494   0.25505   0.03671   0.00000  Uiso   1.00
C111   C     0.68058   0.25592   0.98242   0.00000  Uiso   1.00
C112   C     0.66445   0.15543   0.95118   0.00000  Uiso   1.00
C113   C     0.70997   0.30086   0.12703   0.00000  Uiso   1.00
C114   C     0.78187   0.34023   0.14866   0.00000  Uiso   1.00
C115   C     0.81209   0.27827   0.19346   0.00000  Uiso   1.00
H116   H     0.56066   0.09925   0.13658   0.00000  Uiso   1.00
H117   H     0.43492   0.22391   0.15946   0.00000  Uiso   1.00
H118   H     0.56727   0.98107   0.04514   0.00000  Uiso   1.00
H119   H     0.66855   0.06536   0.21136   0.00000  Uiso   1.00
H120   H     0.31328   0.40525   0.17496   0.00000  Uiso   1.00
H121   H     0.59236   0.89317   0.93392   0.00000  Uiso   1.00
H122   H     0.80593   0.07091   0.28443   0.00000  Uiso   1.00
H123   H     0.69766   0.43156   0.06077   0.00000  Uiso   1.00
H124   H     0.57943   0.57447   0.07949   0.00000  Uiso   1.00
H125   H     0.71178   0.33161   0.96517   0.00000  Uiso   1.00
H126   H     0.81306   0.41591   0.13139   0.00000  Uiso   1.00
H127   H     0.43057   0.68977   0.11005   0.00000  Uiso   1.00
H128   H     0.70965   0.17769   0.86901   0.00000  Uiso   1.00
H129   H     0.92322   0.35544   0.21952   0.00000  Uiso   1.00
O130   O     0.29167   0.63551   0.15617   0.00000  Uiso   1.00
O131   O     0.65782   0.96368   0.83994   0.00000  Uiso   1.00
O132   O     0.93802   0.19688   0.29980   0.00000  Uiso   1.00
N133   N     0.35711   0.45260   0.15713   0.00000  Uiso   1.00
N134   N     0.61802   0.97385   0.93177   0.00000  Uiso   1.00
N135   N     0.81771   0.14000   0.25946   0.00000  Uiso   1.00
N136   N     0.42023   0.60570   0.12220   0.00000  Uiso   1.00
N137   N     0.68114   0.12695   0.89684   0.00000  Uiso   1.00
N138   N     0.88082   0.29310   0.22453   0.00000  Uiso   1.00
C139   C     0.90795   0.82462   0.11922   0.00000  Uiso   1.00
C140   C     0.95727   0.71080   0.12114   0.00000  Uiso   1.00
C141   C     0.03390   0.70038   0.14220   0.00000  Uiso   1.00
C142   C     0.06883   0.58858   0.14016   0.00000  Uiso   1.00
C143   C     0.15156   0.42674   0.14651   0.00000  Uiso   1.00
C144   C     0.88537   0.84274   0.05902   0.00000  Uiso   1.00
C145   C     0.90154   0.94327   0.02786   0.00000  Uiso   1.00
C146   C     0.87594   0.94254   0.97354   0.00000  Uiso   1.00
C147   C     0.84700   0.98557   0.88346   0.00000  Uiso   1.00
C148   C     0.83035   0.79694   0.14934   0.00000  Uiso   1.00
C149   C     0.80024   0.85897   0.19411   0.00000  Uiso   1.00
C150   C     0.72830   0.81969   0.21582   0.00000  Uiso   1.00
C151   C     0.61393   0.79161   0.26597   0.00000  Uiso   1.00
C152   C     0.83373   0.64458   0.07814   0.00000  Uiso   1.00
C153   C     0.91695   0.61301   0.09882   0.00000  Uiso   1.00
C154   C     0.95178   0.50119   0.09675   0.00000  Uiso   1.00
C155   C     0.02845   0.49061   0.11781   0.00000  Uiso   1.00
C156   C     0.84506   0.74495   0.03671   0.00000  Uiso   1.00
C157   C     0.81942   0.74408   0.98242   0.00000  Uiso   1.00
C158   C     0.83555   0.84457   0.95118   0.00000  Uiso   1.00
C159   C     0.79003   0.69914   0.12703   0.00000  Uiso   1.00
C160   C     0.71813   0.65977   0.14866   0.00000  Uiso   1.00
C161   C     0.68791   0.72173   0.19346   0.00000  Uiso   1.00
H162   H     0.93934   0.90075   0.13658   0.00000  Uiso   1.00
H163   H     0.06508   0.77609   0.15946   0.00000  Uiso   1.00
H164   H     0.93273   0.01893   0.04514   0.00000  Uiso   1.00
H165   H     0.83145   0.93464   0.21136   0.00000  Uiso   1.00
H166   H     0.18672   0.59475   0.17496   0.00000  Uiso   1.00
H167   H     0.90764   0.10683   0.93392   0.00000  Uiso   1.00
H168   H     0.69407   0.92909   0.28443   0.00000  Uiso   1.00
H169   H     0.80234   0.56844   0.06077   0.00000  Uiso   1.00
H170   H     0.92057   0.42553   0.07949   0.00000  Uiso   1.00
H171   H     0.78822   0.66839   0.96517   0.00000  Uiso   1.00
H172   H     0.68694   0.58409   0.13139   0.00000  Uiso   1.00
H173   H     0.06943   0.31023   0.11005   0.00000  Uiso   1.00
H174   H     0.79035   0.82231   0.86901   0.00000  Uiso   1.00
H175   H     0.57678   0.64456   0.21952   0.00000  Uiso   1.00
O176   O     0.20833   0.36449   0.15617   0.00000  Uiso   1.00
O177   O     0.84218   0.03632   0.83994   0.00000  Uiso   1.00
O178   O     0.56198   0.80312   0.29980   0.00000  Uiso   1.00
N179   N     0.14289   0.54740   0.15713   0.00000  Uiso   1.00
N180   N     0.88198   0.02615   0.93177   0.00000  Uiso   1.00
N181   N     0.68229   0.86000   0.25946   0.00000  Uiso   1.00
N182   N     0.07977   0.39430   0.12220   0.00000  Uiso   1.00
N183   N     0.81886   0.87305   0.89684   0.00000  Uiso   1.00
N184   N     0.61918   0.70690   0.22453   0.00000  Uiso   1.00
C185   C     0.59205   0.82462   0.61922   0.00000  Uiso   1.00
C186   C     0.54273   0.71080   0.62114   0.00000  Uiso   1.00
C187   C     0.46610   0.70038   0.64220   0.00000  Uiso   1.00
C188   C     0.43117   0.58858   0.64016   0.00000  Uiso   1.00
C189   C     0.34844   0.42674   0.64651   0.00000  Uiso   1.00
C190   C     0.61463   0.84274   0.55902   0.00000  Uiso   1.00
C191   C     0.59846   0.94327   0.52786   0.00000  Uiso   1.00
C192   C     0.62406   0.94254   0.47354   0.00000  Uiso   1.00
C193   C     0.65300   0.98557   0.38346   0.00000  Uiso   1.00
C194   C     0.66965   0.79694   0.64934   0.00000  Uiso   1.00
C195   C     0.69976   0.85897   0.69411   0.00000  Uiso   1.00
C196   C     0.77170   0.81969   0.71582   0.00000  Uiso   1.00
C197   C     0.88607   0.79161   0.76597   0.00000  Uiso   1.00
C198   C     0.66627   0.64458   0.57814   0.00000  Uiso   1.00
C199   C     0.58305   0.61301   0.59882   0.00000  Uiso   1.00
C200   C     0.54822   0.50119   0.59675   0.00000  Uiso   1.00
C201   C     0.47155   0.49061   0.61781   0.00000  Uiso   1.00
C202   C     0.65494   0.74495   0.53671   0.00000  Uiso   1.00
C203   C     0.68058   0.74408   0.48242   0.00000  Uiso   1.00
C204   C     0.66445   0.84457   0.45118   0.00000  Uiso   1.00
C205   C     0.70997   0.69914   0.62703   0.00000  Uiso   1.00
C206   C     0.78187   0.65977   0.64866   0.00000  Uiso   1.00
C207   C     0.81209   0.72173   0.69346   0.00000  Uiso   1.00
H208   H     0.56066   0.90075   0.63658   0.00000  Uiso   1.00
H209   H     0.43492   0.77609   0.65946   0.00000  Uiso   1.00
H210   H     0.56727   0.01893   0.54514   0.00000  Uiso   1.00
H211   H     0.66855   0.93464   0.71136   0.00000  Uiso   1.00
H212   H     0.31328   0.59475   0.67496   0.00000  Uiso   1.00
H213   H     0.59236   0.10683   0.43392   0.00000  Uiso   1.00
H214   H     0.80593   0.92909   0.78443   0.00000  Uiso   1.00
H215   H     0.69766   0.56844   0.56077   0.00000  Uiso   1.00
H216   H     0.57943   0.42553   0.57949   0.00000  Uiso   1.00
H217   H     0.71178   0.66839   0.46517   0.00000  Uiso   1.00
H218   H     0.81306   0.58409   0.63139   0.00000  Uiso   1.00
H219   H     0.43057   0.31023   0.61005   0.00000  Uiso   1.00
H220   H     0.70965   0.82231   0.36901   0.00000  Uiso   1.00
H221   H     0.92322   0.64456   0.71952   0.00000  Uiso   1.00
O222   O     0.29167   0.36449   0.65617   0.00000  Uiso   1.00
O223   O     0.65782   0.03632   0.33994   0.00000  Uiso   1.00
O224   O     0.93802   0.80312   0.79980   0.00000  Uiso   1.00
N225   N     0.35711   0.54740   0.65713   0.00000  Uiso   1.00
N226   N     0.61802   0.02615   0.43177   0.00000  Uiso   1.00
N227   N     0.81771   0.86000   0.75946   0.00000  Uiso   1.00
N228   N     0.42023   0.39430   0.62220   0.00000  Uiso   1.00
N229   N     0.68114   0.87305   0.39684   0.00000  Uiso   1.00
N230   N     0.88082   0.70690   0.72453   0.00000  Uiso   1.00
C231   C     0.90795   0.17538   0.61922   0.00000  Uiso   1.00
C232   C     0.95727   0.28920   0.62114   0.00000  Uiso   1.00
C233   C     0.03390   0.29962   0.64220   0.00000  Uiso   1.00
C234   C     0.06883   0.41142   0.64016   0.00000  Uiso   1.00
C235   C     0.15156   0.57326   0.64651   0.00000  Uiso   1.00
C236   C     0.88537   0.15726   0.55902   0.00000  Uiso   1.00
C237   C     0.90154   0.05673   0.52786   0.00000  Uiso   1.00
C238   C     0.87594   0.05746   0.47354   0.00000  Uiso   1.00
C239   C     0.84700   0.01443   0.38346   0.00000  Uiso   1.00
C240   C     0.83035   0.20306   0.64934   0.00000  Uiso   1.00
C241   C     0.80024   0.14103   0.69411   0.00000  Uiso   1.00
C242   C     0.72830   0.18031   0.71582   0.00000  Uiso   1.00
C243   C     0.61393   0.20839   0.76597   0.00000  Uiso   1.00
C244   C     0.83373   0.35542   0.57814   0.00000  Uiso   1.00
C245   C     0.91695   0.38699   0.59882   0.00000  Uiso   1.00
C246   C     0.95178   0.49881   0.59675   0.00000  Uiso   1.00
C247   C     0.02845   0.50939   0.61781   0.00000  Uiso   1.00
C248   C     0.84506   0.25505   0.53671   0.00000  Uiso   1.00
C249   C     0.81942   0.25592   0.48242   0.00000  Uiso   1.00
C250   C     0.83555   0.15543   0.45118   0.00000  Uiso   1.00
C251   C     0.79003   0.30086   0.62703   0.00000  Uiso   1.00
C252   C     0.71813   0.34023   0.64866   0.00000  Uiso   1.00
C253   C     0.68791   0.27827   0.69346   0.00000  Uiso   1.00
H254   H     0.93934   0.09925   0.63658   0.00000  Uiso   1.00
H255   H     0.06508   0.22391   0.65946   0.00000  Uiso   1.00
H256   H     0.93273   0.98107   0.54514   0.00000  Uiso   1.00
H257   H     0.83145   0.06536   0.71136   0.00000  Uiso   1.00
H258   H     0.18672   0.40525   0.67496   0.00000  Uiso   1.00
H259   H     0.90764   0.89317   0.43392   0.00000  Uiso   1.00
H260   H     0.69407   0.07091   0.78443   0.00000  Uiso   1.00
H261   H     0.80234   0.43156   0.56077   0.00000  Uiso   1.00
H262   H     0.92057   0.57447   0.57949   0.00000  Uiso   1.00
H263   H     0.78822   0.33161   0.46517   0.00000  Uiso   1.00
H264   H     0.68694   0.41591   0.63139   0.00000  Uiso   1.00
H265   H     0.06943   0.68977   0.61005   0.00000  Uiso   1.00
H266   H     0.79035   0.17769   0.36901   0.00000  Uiso   1.00
H267   H     0.57678   0.35544   0.71952   0.00000  Uiso   1.00
O268   O     0.20833   0.63551   0.65617   0.00000  Uiso   1.00
O269   O     0.84218   0.96368   0.33994   0.00000  Uiso   1.00
O270   O     0.56198   0.19688   0.79980   0.00000  Uiso   1.00
N271   N     0.14289   0.45260   0.65713   0.00000  Uiso   1.00
N272   N     0.88198   0.97385   0.43177   0.00000  Uiso   1.00
N273   N     0.68229   0.14000   0.75946   0.00000  Uiso   1.00
N274   N     0.07977   0.60570   0.62220   0.00000  Uiso   1.00
N275   N     0.81886   0.12695   0.39684   0.00000  Uiso   1.00
N276   N     0.61918   0.29310   0.72453   0.00000  Uiso   1.00
C277   C     0.40795   0.82462   0.88078   0.00000  Uiso   1.00
C278   C     0.45727   0.71080   0.87886   0.00000  Uiso   1.00
C279   C     0.53390   0.70038   0.85780   0.00000  Uiso   1.00
C280   C     0.56883   0.58858   0.85984   0.00000  Uiso   1.00
C281   C     0.65156   0.42674   0.85349   0.00000  Uiso   1.00
C282   C     0.38537   0.84274   0.94098   0.00000  Uiso   1.00
C283   C     0.40154   0.94327   0.97214   0.00000  Uiso   1.00
C284   C     0.37594   0.94254   0.02646   0.00000  Uiso   1.00
C285   C     0.34700   0.98557   0.11654   0.00000  Uiso   1.00
C286   C     0.33035   0.79694   0.85066   0.00000  Uiso   1.00
C287   C     0.30024   0.85897   0.80589   0.00000  Uiso   1.00
C288   C     0.22830   0.81969   0.78418   0.00000  Uiso   1.00
C289   C     0.11393   0.79161   0.73403   0.00000  Uiso   1.00
C290   C     0.33373   0.64458   0.92186   0.00000  Uiso   1.00
C291   C     0.41695   0.61301   0.90118   0.00000  Uiso   1.00
C292   C     0.45178   0.50119   0.90325   0.00000  Uiso   1.00
C293   C     0.52845   0.49061   0.88219   0.00000  Uiso   1.00
C294   C     0.34506   0.74495   0.96329   0.00000  Uiso   1.00
C295   C     0.31942   0.74408   0.01758   0.00000  Uiso   1.00
C296   C     0.33555   0.84457   0.04882   0.00000  Uiso   1.00
C297   C     0.29003   0.69914   0.87297   0.00000  Uiso   1.00
C298   C     0.21813   0.65977   0.85134   0.00000  Uiso   1.00
C299   C     0.18791   0.72173   0.80654   0.00000  Uiso   1.00
H300   H     0.43934   0.90075   0.86342   0.00000  Uiso   1.00
H301   H     0.56508   0.77609   0.84054   0.00000  Uiso   1.00
H302   H     0.43273   0.01893   0.95486   0.00000  Uiso   1.00
H303   H     0.33145   0.93464   0.78864   0.00000  Uiso   1.00
H304   H     0.68672   0.59475   0.82504   0.00000  Uiso   1.00
H305   H     0.40764   0.10683   0.06608   0.00000  Uiso   1.00
H306   H     0.19407   0.92909   0.71557   0.00000  Uiso   1.00
H307   H     0.30234   0.56844   0.93923   0.00000  Uiso   1.00
H308   H     0.42057   0.42553   0.92051   0.00000  Uiso   1.00
H309   H     0.28822   0.66839   0.03483   0.00000  Uiso   1.00
H310   H     0.18694   0.58409   0.86861   0.00000  Uiso   1.00
H311   H     0.56943   0.31023   0.88995   0.00000  Uiso   1.00
H312   H     0.29035   0.82231   0.13099   0.00000  Uiso   1.00
H313   H     0.07678   0.64456   0.78048   0.00000  Uiso   1.00
O314   O     0.70833   0.36449   0.84383   0.00000  Uiso   1.00
O315   O     0.34218   0.03632   0.16006   0.00000  Uiso   1.00
O316   O     0.06198   0.80312   0.70020   0.00000  Uiso   1.00
N317   N     0.64289   0.54740   0.84287   0.00000  Uiso   1.00
N318   N     0.38198   0.02615   0.06823   0.00000  Uiso   1.00
N319   N     0.18229   0.86000   0.74054   0.00000  Uiso   1.00
N320   N     0.57977   0.39430   0.87780   0.00000  Uiso   1.00
N321   N     0.31886   0.87305   0.10316   0.00000  Uiso   1.00
N322   N     0.11918   0.70690   0.77547   0.00000  Uiso   1.00
C323   C     0.09205   0.17538   0.88078   0.00000  Uiso   1.00
C324   C     0.04273   0.28920   0.87886   0.00000  Uiso   1.00
C325   C     0.96610   0.29962   0.85780   0.00000  Uiso   1.00
C326   C     0.93117   0.41142   0.85984   0.00000  Uiso   1.00
C327   C     0.84844   0.57326   0.85349   0.00000  Uiso   1.00
C328   C     0.11463   0.15726   0.94098   0.00000  Uiso   1.00
C329   C     0.09846   0.05673   0.97214   0.00000  Uiso   1.00
C330   C     0.12406   0.05746   0.02646   0.00000  Uiso   1.00
C331   C     0.15300   0.01443   0.11654   0.00000  Uiso   1.00
C332   C     0.16965   0.20306   0.85066   0.00000  Uiso   1.00
C333   C     0.19976   0.14103   0.80589   0.00000  Uiso   1.00
C334   C     0.27170   0.18031   0.78418   0.00000  Uiso   1.00
C335   C     0.38607   0.20839   0.73403   0.00000  Uiso   1.00
C336   C     0.16627   0.35542   0.92186   0.00000  Uiso   1.00
C337   C     0.08305   0.38699   0.90118   0.00000  Uiso   1.00
C338   C     0.04822   0.49881   0.90325   0.00000  Uiso   1.00
C339   C     0.97155   0.50939   0.88219   0.00000  Uiso   1.00
C340   C     0.15494   0.25505   0.96329   0.00000  Uiso   1.00
C341   C     0.18058   0.25592   0.01758   0.00000  Uiso   1.00
C342   C     0.16445   0.15543   0.04882   0.00000  Uiso   1.00
C343   C     0.20997   0.30086   0.87297   0.00000  Uiso   1.00
C344   C     0.28187   0.34023   0.85134   0.00000  Uiso   1.00
C345   C     0.31209   0.27827   0.80654   0.00000  Uiso   1.00
H346   H     0.06066   0.09925   0.86342   0.00000  Uiso   1.00
H347   H     0.93492   0.22391   0.84054   0.00000  Uiso   1.00
H348   H     0.06727   0.98107   0.95486   0.00000  Uiso   1.00
H349   H     0.16855   0.06536   0.78864   0.00000  Uiso   1.00
H350   H     0.81328   0.40525   0.82504   0.00000  Uiso   1.00
H351   H     0.09236   0.89317   0.06608   0.00000  Uiso   1.00
H352   H     0.30593   0.07091   0.71557   0.00000  Uiso   1.00
H353   H     0.19766   0.43156   0.93923   0.00000  Uiso   1.00
H354   H     0.07943   0.57447   0.92051   0.00000  Uiso   1.00
H355   H     0.21178   0.33161   0.03483   0.00000  Uiso   1.00
H356   H     0.31306   0.41591   0.86861   0.00000  Uiso   1.00
H357   H     0.93057   0.68977   0.88995   0.00000  Uiso   1.00
H358   H     0.20965   0.17769   0.13099   0.00000  Uiso   1.00
H359   H     0.42322   0.35544   0.78048   0.00000  Uiso   1.00
O360   O     0.79167   0.63551   0.84383   0.00000  Uiso   1.00
O361   O     0.15782   0.96368   0.16006   0.00000  Uiso   1.00
O362   O     0.43802   0.19688   0.70020   0.00000  Uiso   1.00
N363   N     0.85711   0.45260   0.84287   0.00000  Uiso   1.00
N364   N     0.11802   0.97385   0.06823   0.00000  Uiso   1.00
N365   N     0.31771   0.14000   0.74054   0.00000  Uiso   1.00
N366   N     0.92023   0.60570   0.87780   0.00000  Uiso   1.00
N367   N     0.18114   0.12695   0.10316   0.00000  Uiso   1.00
N368   N     0.38082   0.29310   0.77547   0.00000  Uiso   1.00
