data_job_01746
_audit_creation_date              2018-12-19
_audit_creation_method            'Materials Studio'
_symmetry_space_group_name_H-M    'P1'
_symmetry_Int_Tables_number       1
_symmetry_cell_setting            triclinic
loop_
_symmetry_equiv_pos_as_xyz
  x,y,z
_cell_length_a                    15.7803
_cell_length_b                    30.4817
_cell_length_c                    9.7629
_cell_angle_alpha                 90.0000
_cell_angle_beta                  90.0000
_cell_angle_gamma                 90.0000
loop_
_atom_site_label
_atom_site_type_symbol
_atom_site_fract_x
_atom_site_fract_y
_atom_site_fract_z
_atom_site_U_iso_or_equiv
_atom_site_adp_type
_atom_site_occupancy
C1     C     0.83899   0.59250   0.83048   0.00000  Uiso   1.00
C2     C     0.87286   0.63738   0.78854   0.00000  Uiso   1.00
C3     C     0.94150   0.64492   0.70285   0.00000  Uiso   1.00
C4     C     0.96248   0.68837   0.67697   0.00000  Uiso   1.00
C5     C     0.02205   0.75280   0.60300   0.00000  Uiso   1.00
C6     C     0.74580   0.59198   0.78917   0.00000  Uiso   1.00
C7     C     0.70762   0.56134   0.70403   0.00000  Uiso   1.00
C8     C     0.62163   0.56657   0.67870   0.00000  Uiso   1.00
C9     C     0.48393   0.56050   0.60578   0.00000  Uiso   1.00
C10    C     0.84018   0.59182   0.98664   0.00000  Uiso   1.00
C11    C     0.88133   0.56103   0.06756   0.00000  Uiso   1.00
C12    C     0.87479   0.56612   0.20849   0.00000  Uiso   1.00
C13    C     0.88362   0.55979   0.44219   0.00000  Uiso   1.00
C14    C     0.75418   0.65626   0.93689   0.00000  Uiso   1.00
C15    C     0.82679   0.67201   0.84633   0.00000  Uiso   1.00
C16    C     0.84767   0.71547   0.82058   0.00000  Uiso   1.00
C17    C     0.91633   0.72307   0.73488   0.00000  Uiso   1.00
C18    C     0.69973   0.62661   0.84696   0.00000  Uiso   1.00
C19    C     0.61378   0.63189   0.82176   0.00000  Uiso   1.00
C20    C     0.57548   0.60127   0.73660   0.00000  Uiso   1.00
C21    C     0.79411   0.62645   0.04444   0.00000  Uiso   1.00
C22    C     0.78750   0.63158   0.18528   0.00000  Uiso   1.00
C23    C     0.82863   0.60081   0.26639   0.00000  Uiso   1.00
H24    H     0.87485   0.56553   0.78548   0.00000  Uiso   1.00
H25    H     0.97713   0.61811   0.65814   0.00000  Uiso   1.00
H26    H     0.74328   0.53454   0.65933   0.00000  Uiso   1.00
H27    H     0.91697   0.53424   0.02279   0.00000  Uiso   1.00
H28    H     0.07020   0.69168   0.54240   0.00000  Uiso   1.00
H29    H     0.57710   0.51546   0.54495   0.00000  Uiso   1.00
H30    H     0.94336   0.51482   0.31139   0.00000  Uiso   1.00
H31    H     0.71831   0.68322   0.98188   0.00000  Uiso   1.00
H32    H     0.81201   0.74226   0.86532   0.00000  Uiso   1.00
H33    H     0.57815   0.65869   0.86651   0.00000  Uiso   1.00
H34    H     0.75184   0.65838   0.22997   0.00000  Uiso   1.00
H35    H     0.93617   0.79244   0.71055   0.00000  Uiso   1.00
H36    H     0.44307   0.61622   0.71310   0.00000  Uiso   1.00
H37    H     0.80934   0.61558   0.47954   0.00000  Uiso   1.00
O38    O     0.06763   0.77878   0.54621   0.00000  Uiso   1.00
O39    O     0.42071   0.54758   0.54958   0.00000  Uiso   1.00
O40    O     0.90123   0.54674   0.55512   0.00000  Uiso   1.00
N41    N     0.02581   0.70729   0.59799   0.00000  Uiso   1.00
N42    N     0.56479   0.54254   0.60036   0.00000  Uiso   1.00
N43    N     0.90720   0.54193   0.31691   0.00000  Uiso   1.00
N44    N     0.95369   0.76151   0.68848   0.00000  Uiso   1.00
N45    N     0.49268   0.59676   0.69084   0.00000  Uiso   1.00
N46    N     0.83508   0.59615   0.40740   0.00000  Uiso   1.00
C47    C     0.33899   0.09250   0.83048   0.00000  Uiso   1.00
C48    C     0.37286   0.13738   0.78854   0.00000  Uiso   1.00
C49    C     0.44150   0.14492   0.70285   0.00000  Uiso   1.00
C50    C     0.46248   0.18837   0.67697   0.00000  Uiso   1.00
C51    C     0.52205   0.25280   0.60300   0.00000  Uiso   1.00
C52    C     0.24580   0.09198   0.78917   0.00000  Uiso   1.00
C53    C     0.20762   0.06134   0.70403   0.00000  Uiso   1.00
C54    C     0.12163   0.06657   0.67870   0.00000  Uiso   1.00
C55    C     0.98393   0.06050   0.60578   0.00000  Uiso   1.00
C56    C     0.34018   0.09182   0.98664   0.00000  Uiso   1.00
C57    C     0.38133   0.06103   0.06756   0.00000  Uiso   1.00
C58    C     0.37479   0.06612   0.20849   0.00000  Uiso   1.00
C59    C     0.38362   0.05979   0.44219   0.00000  Uiso   1.00
C60    C     0.25418   0.15626   0.93689   0.00000  Uiso   1.00
C61    C     0.32679   0.17201   0.84633   0.00000  Uiso   1.00
C62    C     0.34767   0.21547   0.82058   0.00000  Uiso   1.00
C63    C     0.41633   0.22307   0.73488   0.00000  Uiso   1.00
C64    C     0.19973   0.12661   0.84696   0.00000  Uiso   1.00
C65    C     0.11378   0.13189   0.82176   0.00000  Uiso   1.00
C66    C     0.07548   0.10127   0.73660   0.00000  Uiso   1.00
C67    C     0.29411   0.12645   0.04444   0.00000  Uiso   1.00
C68    C     0.28750   0.13158   0.18528   0.00000  Uiso   1.00
C69    C     0.32863   0.10081   0.26639   0.00000  Uiso   1.00
H70    H     0.37485   0.06553   0.78548   0.00000  Uiso   1.00
H71    H     0.47713   0.11811   0.65814   0.00000  Uiso   1.00
H72    H     0.24328   0.03454   0.65933   0.00000  Uiso   1.00
H73    H     0.41697   0.03424   0.02279   0.00000  Uiso   1.00
H74    H     0.57020   0.19168   0.54240   0.00000  Uiso   1.00
H75    H     0.07710   0.01546   0.54495   0.00000  Uiso   1.00
H76    H     0.44336   0.01482   0.31139   0.00000  Uiso   1.00
H77    H     0.21831   0.18322   0.98188   0.00000  Uiso   1.00
H78    H     0.31201   0.24226   0.86532   0.00000  Uiso   1.00
H79    H     0.07815   0.15869   0.86651   0.00000  Uiso   1.00
H80    H     0.25184   0.15838   0.22997   0.00000  Uiso   1.00
H81    H     0.43617   0.29244   0.71055   0.00000  Uiso   1.00
H82    H     0.94307   0.11622   0.71310   0.00000  Uiso   1.00
H83    H     0.30934   0.11558   0.47954   0.00000  Uiso   1.00
O84    O     0.56763   0.27878   0.54621   0.00000  Uiso   1.00
O85    O     0.92071   0.04758   0.54958   0.00000  Uiso   1.00
O86    O     0.40123   0.04674   0.55512   0.00000  Uiso   1.00
N87    N     0.52581   0.20729   0.59799   0.00000  Uiso   1.00
N88    N     0.06479   0.04254   0.60036   0.00000  Uiso   1.00
N89    N     0.40720   0.04193   0.31691   0.00000  Uiso   1.00
N90    N     0.45369   0.26151   0.68848   0.00000  Uiso   1.00
N91    N     0.99268   0.09676   0.69084   0.00000  Uiso   1.00
N92    N     0.33508   0.09615   0.40740   0.00000  Uiso   1.00
C93    C     0.16101   0.40750   0.83048   0.00000  Uiso   1.00
C94    C     0.12714   0.36262   0.78854   0.00000  Uiso   1.00
C95    C     0.05850   0.35508   0.70285   0.00000  Uiso   1.00
C96    C     0.03752   0.31163   0.67697   0.00000  Uiso   1.00
C97    C     0.97795   0.24720   0.60300   0.00000  Uiso   1.00
C98    C     0.25420   0.40802   0.78917   0.00000  Uiso   1.00
C99    C     0.29238   0.43866   0.70403   0.00000  Uiso   1.00
C100   C     0.37837   0.43343   0.67870   0.00000  Uiso   1.00
C101   C     0.51607   0.43950   0.60578   0.00000  Uiso   1.00
C102   C     0.15982   0.40818   0.98664   0.00000  Uiso   1.00
C103   C     0.11867   0.43897   0.06756   0.00000  Uiso   1.00
C104   C     0.12521   0.43388   0.20849   0.00000  Uiso   1.00
C105   C     0.11638   0.44021   0.44219   0.00000  Uiso   1.00
C106   C     0.24582   0.34374   0.93689   0.00000  Uiso   1.00
C107   C     0.17321   0.32799   0.84633   0.00000  Uiso   1.00
C108   C     0.15233   0.28453   0.82058   0.00000  Uiso   1.00
C109   C     0.08367   0.27693   0.73488   0.00000  Uiso   1.00
C110   C     0.30027   0.37339   0.84696   0.00000  Uiso   1.00
C111   C     0.38622   0.36811   0.82176   0.00000  Uiso   1.00
C112   C     0.42452   0.39873   0.73660   0.00000  Uiso   1.00
C113   C     0.20589   0.37355   0.04444   0.00000  Uiso   1.00
C114   C     0.21250   0.36842   0.18528   0.00000  Uiso   1.00
C115   C     0.17137   0.39919   0.26639   0.00000  Uiso   1.00
H116   H     0.12515   0.43447   0.78548   0.00000  Uiso   1.00
H117   H     0.02287   0.38189   0.65814   0.00000  Uiso   1.00
H118   H     0.25672   0.46546   0.65933   0.00000  Uiso   1.00
H119   H     0.08303   0.46576   0.02279   0.00000  Uiso   1.00
H120   H     0.92980   0.30832   0.54240   0.00000  Uiso   1.00
H121   H     0.42290   0.48454   0.54495   0.00000  Uiso   1.00
H122   H     0.05664   0.48518   0.31139   0.00000  Uiso   1.00
H123   H     0.28169   0.31678   0.98188   0.00000  Uiso   1.00
H124   H     0.18799   0.25774   0.86532   0.00000  Uiso   1.00
H125   H     0.42185   0.34131   0.86651   0.00000  Uiso   1.00
H126   H     0.24816   0.34162   0.22997   0.00000  Uiso   1.00
H127   H     0.06383   0.20756   0.71055   0.00000  Uiso   1.00
H128   H     0.55693   0.38378   0.71310   0.00000  Uiso   1.00
H129   H     0.19066   0.38442   0.47954   0.00000  Uiso   1.00
O130   O     0.93237   0.22122   0.54621   0.00000  Uiso   1.00
O131   O     0.57929   0.45242   0.54958   0.00000  Uiso   1.00
O132   O     0.09877   0.45326   0.55512   0.00000  Uiso   1.00
N133   N     0.97419   0.29271   0.59799   0.00000  Uiso   1.00
N134   N     0.43521   0.45746   0.60036   0.00000  Uiso   1.00
N135   N     0.09280   0.45807   0.31691   0.00000  Uiso   1.00
N136   N     0.04631   0.23849   0.68848   0.00000  Uiso   1.00
N137   N     0.50732   0.40324   0.69084   0.00000  Uiso   1.00
N138   N     0.16492   0.40385   0.40740   0.00000  Uiso   1.00
C139   C     0.66101   0.90750   0.83048   0.00000  Uiso   1.00
C140   C     0.62714   0.86262   0.78854   0.00000  Uiso   1.00
C141   C     0.55850   0.85508   0.70285   0.00000  Uiso   1.00
C142   C     0.53752   0.81163   0.67697   0.00000  Uiso   1.00
C143   C     0.47795   0.74720   0.60300   0.00000  Uiso   1.00
C144   C     0.75420   0.90802   0.78917   0.00000  Uiso   1.00
C145   C     0.79238   0.93866   0.70403   0.00000  Uiso   1.00
C146   C     0.87837   0.93343   0.67870   0.00000  Uiso   1.00
C147   C     0.01607   0.93950   0.60578   0.00000  Uiso   1.00
C148   C     0.65982   0.90818   0.98664   0.00000  Uiso   1.00
C149   C     0.61867   0.93897   0.06756   0.00000  Uiso   1.00
C150   C     0.62521   0.93388   0.20849   0.00000  Uiso   1.00
C151   C     0.61638   0.94021   0.44219   0.00000  Uiso   1.00
C152   C     0.74582   0.84374   0.93689   0.00000  Uiso   1.00
C153   C     0.67321   0.82799   0.84633   0.00000  Uiso   1.00
C154   C     0.65233   0.78453   0.82058   0.00000  Uiso   1.00
C155   C     0.58367   0.77693   0.73488   0.00000  Uiso   1.00
C156   C     0.80027   0.87339   0.84696   0.00000  Uiso   1.00
C157   C     0.88622   0.86811   0.82176   0.00000  Uiso   1.00
C158   C     0.92452   0.89873   0.73660   0.00000  Uiso   1.00
C159   C     0.70589   0.87355   0.04444   0.00000  Uiso   1.00
C160   C     0.71250   0.86842   0.18528   0.00000  Uiso   1.00
C161   C     0.67137   0.89919   0.26639   0.00000  Uiso   1.00
H162   H     0.62515   0.93447   0.78548   0.00000  Uiso   1.00
H163   H     0.52287   0.88189   0.65814   0.00000  Uiso   1.00
H164   H     0.75672   0.96546   0.65933   0.00000  Uiso   1.00
H165   H     0.58303   0.96576   0.02279   0.00000  Uiso   1.00
H166   H     0.42980   0.80832   0.54240   0.00000  Uiso   1.00
H167   H     0.92290   0.98454   0.54495   0.00000  Uiso   1.00
H168   H     0.55664   0.98518   0.31139   0.00000  Uiso   1.00
H169   H     0.78169   0.81678   0.98188   0.00000  Uiso   1.00
H170   H     0.68799   0.75774   0.86532   0.00000  Uiso   1.00
H171   H     0.92185   0.84131   0.86651   0.00000  Uiso   1.00
H172   H     0.74816   0.84162   0.22997   0.00000  Uiso   1.00
H173   H     0.56383   0.70756   0.71055   0.00000  Uiso   1.00
H174   H     0.05693   0.88378   0.71310   0.00000  Uiso   1.00
H175   H     0.69066   0.88442   0.47954   0.00000  Uiso   1.00
O176   O     0.43237   0.72122   0.54621   0.00000  Uiso   1.00
O177   O     0.07929   0.95242   0.54958   0.00000  Uiso   1.00
O178   O     0.59877   0.95326   0.55512   0.00000  Uiso   1.00
N179   N     0.47419   0.79271   0.59799   0.00000  Uiso   1.00
N180   N     0.93521   0.95746   0.60036   0.00000  Uiso   1.00
N181   N     0.59280   0.95807   0.31691   0.00000  Uiso   1.00
N182   N     0.54631   0.73849   0.68848   0.00000  Uiso   1.00
N183   N     0.00732   0.90324   0.69084   0.00000  Uiso   1.00
N184   N     0.66492   0.90385   0.40740   0.00000  Uiso   1.00
C185   C     0.83899   0.40750   0.33048   0.00000  Uiso   1.00
C186   C     0.87286   0.36262   0.28854   0.00000  Uiso   1.00
C187   C     0.94150   0.35508   0.20285   0.00000  Uiso   1.00
C188   C     0.96248   0.31163   0.17697   0.00000  Uiso   1.00
C189   C     0.02205   0.24720   0.10300   0.00000  Uiso   1.00
C190   C     0.74580   0.40802   0.28917   0.00000  Uiso   1.00
C191   C     0.70762   0.43866   0.20403   0.00000  Uiso   1.00
C192   C     0.62163   0.43343   0.17870   0.00000  Uiso   1.00
C193   C     0.48393   0.43950   0.10578   0.00000  Uiso   1.00
C194   C     0.84018   0.40818   0.48664   0.00000  Uiso   1.00
C195   C     0.88133   0.43897   0.56756   0.00000  Uiso   1.00
C196   C     0.87479   0.43388   0.70849   0.00000  Uiso   1.00
C197   C     0.88362   0.44021   0.94219   0.00000  Uiso   1.00
C198   C     0.75418   0.34374   0.43689   0.00000  Uiso   1.00
C199   C     0.82679   0.32799   0.34633   0.00000  Uiso   1.00
C200   C     0.84767   0.28453   0.32058   0.00000  Uiso   1.00
C201   C     0.91633   0.27693   0.23488   0.00000  Uiso   1.00
C202   C     0.69973   0.37339   0.34696   0.00000  Uiso   1.00
C203   C     0.61378   0.36811   0.32176   0.00000  Uiso   1.00
C204   C     0.57548   0.39873   0.23660   0.00000  Uiso   1.00
C205   C     0.79411   0.37355   0.54444   0.00000  Uiso   1.00
C206   C     0.78750   0.36842   0.68528   0.00000  Uiso   1.00
C207   C     0.82863   0.39919   0.76639   0.00000  Uiso   1.00
H208   H     0.87485   0.43447   0.28548   0.00000  Uiso   1.00
H209   H     0.97713   0.38189   0.15814   0.00000  Uiso   1.00
H210   H     0.74328   0.46546   0.15933   0.00000  Uiso   1.00
H211   H     0.91697   0.46576   0.52279   0.00000  Uiso   1.00
H212   H     0.07020   0.30832   0.04240   0.00000  Uiso   1.00
H213   H     0.57710   0.48454   0.04495   0.00000  Uiso   1.00
H214   H     0.94336   0.48518   0.81139   0.00000  Uiso   1.00
H215   H     0.71831   0.31678   0.48188   0.00000  Uiso   1.00
H216   H     0.81201   0.25774   0.36532   0.00000  Uiso   1.00
H217   H     0.57815   0.34131   0.36651   0.00000  Uiso   1.00
H218   H     0.75184   0.34162   0.72997   0.00000  Uiso   1.00
H219   H     0.93617   0.20756   0.21055   0.00000  Uiso   1.00
H220   H     0.44307   0.38378   0.21310   0.00000  Uiso   1.00
H221   H     0.80934   0.38442   0.97954   0.00000  Uiso   1.00
O222   O     0.06763   0.22122   0.04621   0.00000  Uiso   1.00
O223   O     0.42071   0.45242   0.04958   0.00000  Uiso   1.00
O224   O     0.90123   0.45326   0.05512   0.00000  Uiso   1.00
N225   N     0.02581   0.29271   0.09799   0.00000  Uiso   1.00
N226   N     0.56479   0.45746   0.10036   0.00000  Uiso   1.00
N227   N     0.90720   0.45807   0.81691   0.00000  Uiso   1.00
N228   N     0.95369   0.23849   0.18848   0.00000  Uiso   1.00
N229   N     0.49268   0.40324   0.19084   0.00000  Uiso   1.00
N230   N     0.83508   0.40385   0.90740   0.00000  Uiso   1.00
C231   C     0.33899   0.90750   0.33048   0.00000  Uiso   1.00
C232   C     0.37286   0.86262   0.28854   0.00000  Uiso   1.00
C233   C     0.44150   0.85508   0.20285   0.00000  Uiso   1.00
C234   C     0.46248   0.81163   0.17697   0.00000  Uiso   1.00
C235   C     0.52205   0.74720   0.10300   0.00000  Uiso   1.00
C236   C     0.24580   0.90802   0.28917   0.00000  Uiso   1.00
C237   C     0.20762   0.93866   0.20403   0.00000  Uiso   1.00
C238   C     0.12163   0.93343   0.17870   0.00000  Uiso   1.00
C239   C     0.98393   0.93950   0.10578   0.00000  Uiso   1.00
C240   C     0.34018   0.90818   0.48664   0.00000  Uiso   1.00
C241   C     0.38133   0.93897   0.56756   0.00000  Uiso   1.00
C242   C     0.37479   0.93388   0.70849   0.00000  Uiso   1.00
C243   C     0.38362   0.94021   0.94219   0.00000  Uiso   1.00
C244   C     0.25418   0.84374   0.43689   0.00000  Uiso   1.00
C245   C     0.32679   0.82799   0.34633   0.00000  Uiso   1.00
C246   C     0.34767   0.78453   0.32058   0.00000  Uiso   1.00
C247   C     0.41633   0.77693   0.23488   0.00000  Uiso   1.00
C248   C     0.19973   0.87339   0.34696   0.00000  Uiso   1.00
C249   C     0.11378   0.86811   0.32176   0.00000  Uiso   1.00
C250   C     0.07548   0.89873   0.23660   0.00000  Uiso   1.00
C251   C     0.29411   0.87355   0.54444   0.00000  Uiso   1.00
C252   C     0.28750   0.86842   0.68528   0.00000  Uiso   1.00
C253   C     0.32863   0.89919   0.76639   0.00000  Uiso   1.00
H254   H     0.37485   0.93447   0.28548   0.00000  Uiso   1.00
H255   H     0.47713   0.88189   0.15814   0.00000  Uiso   1.00
H256   H     0.24328   0.96546   0.15933   0.00000  Uiso   1.00
H257   H     0.41697   0.96576   0.52279   0.00000  Uiso   1.00
H258   H     0.57020   0.80832   0.04240   0.00000  Uiso   1.00
H259   H     0.07710   0.98454   0.04495   0.00000  Uiso   1.00
H260   H     0.44336   0.98518   0.81139   0.00000  Uiso   1.00
H261   H     0.21831   0.81678   0.48188   0.00000  Uiso   1.00
H262   H     0.31201   0.75774   0.36532   0.00000  Uiso   1.00
H263   H     0.07815   0.84131   0.36651   0.00000  Uiso   1.00
H264   H     0.25184   0.84162   0.72997   0.00000  Uiso   1.00
H265   H     0.43617   0.70756   0.21055   0.00000  Uiso   1.00
H266   H     0.94307   0.88378   0.21310   0.00000  Uiso   1.00
H267   H     0.30934   0.88442   0.97954   0.00000  Uiso   1.00
O268   O     0.56763   0.72122   0.04621   0.00000  Uiso   1.00
O269   O     0.92071   0.95242   0.04958   0.00000  Uiso   1.00
O270   O     0.40123   0.95326   0.05512   0.00000  Uiso   1.00
N271   N     0.52581   0.79271   0.09799   0.00000  Uiso   1.00
N272   N     0.06479   0.95746   0.10036   0.00000  Uiso   1.00
N273   N     0.40720   0.95807   0.81691   0.00000  Uiso   1.00
N274   N     0.45369   0.73849   0.18848   0.00000  Uiso   1.00
N275   N     0.99268   0.90324   0.19084   0.00000  Uiso   1.00
N276   N     0.33508   0.90385   0.90740   0.00000  Uiso   1.00
C277   C     0.16101   0.59250   0.33048   0.00000  Uiso   1.00
C278   C     0.12714   0.63738   0.28854   0.00000  Uiso   1.00
C279   C     0.05850   0.64492   0.20285   0.00000  Uiso   1.00
C280   C     0.03752   0.68837   0.17697   0.00000  Uiso   1.00
C281   C     0.97795   0.75280   0.10300   0.00000  Uiso   1.00
C282   C     0.25420   0.59198   0.28917   0.00000  Uiso   1.00
C283   C     0.29238   0.56134   0.20403   0.00000  Uiso   1.00
C284   C     0.37837   0.56657   0.17870   0.00000  Uiso   1.00
C285   C     0.51607   0.56050   0.10578   0.00000  Uiso   1.00
C286   C     0.15982   0.59182   0.48664   0.00000  Uiso   1.00
C287   C     0.11867   0.56103   0.56756   0.00000  Uiso   1.00
C288   C     0.12521   0.56612   0.70849   0.00000  Uiso   1.00
C289   C     0.11638   0.55979   0.94219   0.00000  Uiso   1.00
C290   C     0.24582   0.65626   0.43689   0.00000  Uiso   1.00
C291   C     0.17321   0.67201   0.34633   0.00000  Uiso   1.00
C292   C     0.15233   0.71547   0.32058   0.00000  Uiso   1.00
C293   C     0.08367   0.72307   0.23488   0.00000  Uiso   1.00
C294   C     0.30027   0.62661   0.34696   0.00000  Uiso   1.00
C295   C     0.38622   0.63189   0.32176   0.00000  Uiso   1.00
C296   C     0.42452   0.60127   0.23660   0.00000  Uiso   1.00
C297   C     0.20589   0.62645   0.54444   0.00000  Uiso   1.00
C298   C     0.21250   0.63158   0.68528   0.00000  Uiso   1.00
C299   C     0.17137   0.60081   0.76639   0.00000  Uiso   1.00
H300   H     0.12515   0.56553   0.28548   0.00000  Uiso   1.00
H301   H     0.02287   0.61811   0.15814   0.00000  Uiso   1.00
H302   H     0.25672   0.53454   0.15933   0.00000  Uiso   1.00
H303   H     0.08303   0.53424   0.52279   0.00000  Uiso   1.00
H304   H     0.92980   0.69168   0.04240   0.00000  Uiso   1.00
H305   H     0.42290   0.51546   0.04495   0.00000  Uiso   1.00
H306   H     0.05664   0.51482   0.81139   0.00000  Uiso   1.00
H307   H     0.28169   0.68322   0.48188   0.00000  Uiso   1.00
H308   H     0.18799   0.74226   0.36532   0.00000  Uiso   1.00
H309   H     0.42185   0.65869   0.36651   0.00000  Uiso   1.00
H310   H     0.24816   0.65838   0.72997   0.00000  Uiso   1.00
H311   H     0.06383   0.79244   0.21055   0.00000  Uiso   1.00
H312   H     0.55693   0.61622   0.21310   0.00000  Uiso   1.00
H313   H     0.19066   0.61558   0.97954   0.00000  Uiso   1.00
O314   O     0.93237   0.77878   0.04621   0.00000  Uiso   1.00
O315   O     0.57929   0.54758   0.04958   0.00000  Uiso   1.00
O316   O     0.09877   0.54674   0.05512   0.00000  Uiso   1.00
N317   N     0.97419   0.70729   0.09799   0.00000  Uiso   1.00
N318   N     0.43521   0.54254   0.10036   0.00000  Uiso   1.00
N319   N     0.09280   0.54193   0.81691   0.00000  Uiso   1.00
N320   N     0.04631   0.76151   0.18848   0.00000  Uiso   1.00
N321   N     0.50732   0.59676   0.19084   0.00000  Uiso   1.00
N322   N     0.16492   0.59615   0.90740   0.00000  Uiso   1.00
C323   C     0.66101   0.09250   0.33048   0.00000  Uiso   1.00
C324   C     0.62714   0.13738   0.28854   0.00000  Uiso   1.00
C325   C     0.55850   0.14492   0.20285   0.00000  Uiso   1.00
C326   C     0.53752   0.18837   0.17697   0.00000  Uiso   1.00
C327   C     0.47795   0.25280   0.10300   0.00000  Uiso   1.00
C328   C     0.75420   0.09198   0.28917   0.00000  Uiso   1.00
C329   C     0.79238   0.06134   0.20403   0.00000  Uiso   1.00
C330   C     0.87837   0.06657   0.17870   0.00000  Uiso   1.00
C331   C     0.01607   0.06050   0.10578   0.00000  Uiso   1.00
C332   C     0.65982   0.09182   0.48664   0.00000  Uiso   1.00
C333   C     0.61867   0.06103   0.56756   0.00000  Uiso   1.00
C334   C     0.62521   0.06612   0.70849   0.00000  Uiso   1.00
C335   C     0.61638   0.05979   0.94219   0.00000  Uiso   1.00
C336   C     0.74582   0.15626   0.43689   0.00000  Uiso   1.00
C337   C     0.67321   0.17201   0.34633   0.00000  Uiso   1.00
C338   C     0.65233   0.21547   0.32058   0.00000  Uiso   1.00
C339   C     0.58367   0.22307   0.23488   0.00000  Uiso   1.00
C340   C     0.80027   0.12661   0.34696   0.00000  Uiso   1.00
C341   C     0.88622   0.13189   0.32176   0.00000  Uiso   1.00
C342   C     0.92452   0.10127   0.23660   0.00000  Uiso   1.00
C343   C     0.70589   0.12645   0.54444   0.00000  Uiso   1.00
C344   C     0.71250   0.13158   0.68528   0.00000  Uiso   1.00
C345   C     0.67137   0.10081   0.76639   0.00000  Uiso   1.00
H346   H     0.62515   0.06553   0.28548   0.00000  Uiso   1.00
H347   H     0.52287   0.11811   0.15814   0.00000  Uiso   1.00
H348   H     0.75672   0.03454   0.15933   0.00000  Uiso   1.00
H349   H     0.58303   0.03424   0.52279   0.00000  Uiso   1.00
H350   H     0.42980   0.19168   0.04240   0.00000  Uiso   1.00
H351   H     0.92290   0.01546   0.04495   0.00000  Uiso   1.00
H352   H     0.55664   0.01482   0.81139   0.00000  Uiso   1.00
H353   H     0.78169   0.18322   0.48188   0.00000  Uiso   1.00
H354   H     0.68799   0.24226   0.36532   0.00000  Uiso   1.00
H355   H     0.92185   0.15869   0.36651   0.00000  Uiso   1.00
H356   H     0.74816   0.15838   0.72997   0.00000  Uiso   1.00
H357   H     0.56383   0.29244   0.21055   0.00000  Uiso   1.00
H358   H     0.05693   0.11622   0.21310   0.00000  Uiso   1.00
H359   H     0.69066   0.11558   0.97954   0.00000  Uiso   1.00
O360   O     0.43237   0.27878   0.04621   0.00000  Uiso   1.00
O361   O     0.07929   0.04758   0.04958   0.00000  Uiso   1.00
O362   O     0.59877   0.04674   0.05512   0.00000  Uiso   1.00
N363   N     0.47419   0.20729   0.09799   0.00000  Uiso   1.00
N364   N     0.93521   0.04254   0.10036   0.00000  Uiso   1.00
N365   N     0.59280   0.04193   0.81691   0.00000  Uiso   1.00
N366   N     0.54631   0.26151   0.18848   0.00000  Uiso   1.00
N367   N     0.00732   0.09676   0.19084   0.00000  Uiso   1.00
N368   N     0.66492   0.09615   0.90740   0.00000  Uiso   1.00
