data_job_05364
_audit_creation_date              2018-12-19
_audit_creation_method            'Materials Studio'
_symmetry_space_group_name_H-M    'P1'
_symmetry_Int_Tables_number       1
_symmetry_cell_setting            triclinic
loop_
_symmetry_equiv_pos_as_xyz
  x,y,z
_cell_length_a                    12.3930
_cell_length_b                    12.3930
_cell_length_c                    15.0058
_cell_angle_alpha                 90.0000
_cell_angle_beta                  90.0000
_cell_angle_gamma                 90.0000
loop_
_atom_site_label
_atom_site_type_symbol
_atom_site_fract_x
_atom_site_fract_y
_atom_site_fract_z
_atom_site_U_iso_or_equiv
_atom_site_adp_type
_atom_site_occupancy
C1     C     0.38715   0.04758   0.25798   0.00000  Uiso   1.00
C2     C     0.35731   0.02594   0.35493   0.00000  Uiso   1.00
C3     C     0.25496   0.03580   0.39156   0.00000  Uiso   1.00
C4     C     0.24432   0.01235   0.48160   0.00000  Uiso   1.00
C5     C     0.18452   0.98369   0.62433   0.00000  Uiso   1.00
C6     C     0.47655   0.13209   0.26019   0.00000  Uiso   1.00
C7     C     0.47446   0.23118   0.21714   0.00000  Uiso   1.00
C8     C     0.56421   0.29707   0.22742   0.00000  Uiso   1.00
C9     C     0.68955   0.43318   0.22300   0.00000  Uiso   1.00
C10    C     0.43938   0.94416   0.22377   0.00000  Uiso   1.00
C11    C     0.40606   0.88525   0.15008   0.00000  Uiso   1.00
C12    C     0.46454   0.79293   0.12969   0.00000  Uiso   1.00
C13    C     0.53218   0.63725   0.06872   0.00000  Uiso   1.00
C14    C     0.55027   0.98839   0.35276   0.00000  Uiso   1.00
C15    C     0.44591   0.99380   0.40641   0.00000  Uiso   1.00
C16    C     0.43543   0.97032   0.49643   0.00000  Uiso   1.00
C17    C     0.33308   0.98014   0.53318   0.00000  Uiso   1.00
C18    C     0.56515   0.09994   0.31167   0.00000  Uiso   1.00
C19    C     0.65492   0.16570   0.32201   0.00000  Uiso   1.00
C20    C     0.65296   0.26487   0.27900   0.00000  Uiso   1.00
C21    C     0.52798   0.91201   0.27525   0.00000  Uiso   1.00
C22    C     0.58653   0.81977   0.25496   0.00000  Uiso   1.00
C23    C     0.55330   0.76073   0.18126   0.00000  Uiso   1.00
H24    H     0.31818   0.07261   0.21789   0.00000  Uiso   1.00
H25    H     0.18642   0.06069   0.35169   0.00000  Uiso   1.00
H26    H     0.40589   0.25603   0.17730   0.00000  Uiso   1.00
H27    H     0.33750   0.91016   0.11026   0.00000  Uiso   1.00
H28    H     0.07941   0.03333   0.52275   0.00000  Uiso   1.00
H29    H     0.54219   0.44521   0.15500   0.00000  Uiso   1.00
H30    H     0.39798   0.71586   0.01363   0.00000  Uiso   1.00
H31    H     0.61925   0.96336   0.39285   0.00000  Uiso   1.00
H32    H     0.50400   0.94544   0.53625   0.00000  Uiso   1.00
H33    H     0.72347   0.14079   0.36186   0.00000  Uiso   1.00
H34    H     0.65508   0.79491   0.29482   0.00000  Uiso   1.00
H35    H     0.33718   0.93980   0.67254   0.00000  Uiso   1.00
H36    H     0.79996   0.35168   0.30480   0.00000  Uiso   1.00
H37    H     0.65575   0.62233   0.16342   0.00000  Uiso   1.00
O38    O     0.12706   0.97678   0.68883   0.00000  Uiso   1.00
O39    O     0.73421   0.51714   0.20635   0.00000  Uiso   1.00
O40    O     0.54501   0.56025   0.02087   0.00000  Uiso   1.00
N41    N     0.15589   0.01376   0.53832   0.00000  Uiso   1.00
N42    N     0.58855   0.39885   0.19451   0.00000  Uiso   1.00
N43    N     0.45375   0.71698   0.06232   0.00000  Uiso   1.00
N44    N     0.29459   0.96343   0.61892   0.00000  Uiso   1.00
N45    N     0.72725   0.34852   0.27511   0.00000  Uiso   1.00
N46    N     0.59245   0.66665   0.14293   0.00000  Uiso   1.00
C47    C     0.61285   0.95242   0.75798   0.00000  Uiso   1.00
C48    C     0.64269   0.97406   0.85493   0.00000  Uiso   1.00
C49    C     0.74504   0.96420   0.89156   0.00000  Uiso   1.00
C50    C     0.75568   0.98765   0.98160   0.00000  Uiso   1.00
C51    C     0.81548   0.01631   0.12433   0.00000  Uiso   1.00
C52    C     0.52345   0.86791   0.76019   0.00000  Uiso   1.00
C53    C     0.52554   0.76882   0.71714   0.00000  Uiso   1.00
C54    C     0.43579   0.70293   0.72742   0.00000  Uiso   1.00
C55    C     0.31045   0.56682   0.72300   0.00000  Uiso   1.00
C56    C     0.56062   0.05584   0.72377   0.00000  Uiso   1.00
C57    C     0.59394   0.11475   0.65008   0.00000  Uiso   1.00
C58    C     0.53546   0.20707   0.62969   0.00000  Uiso   1.00
C59    C     0.46782   0.36275   0.56872   0.00000  Uiso   1.00
C60    C     0.44973   0.01161   0.85276   0.00000  Uiso   1.00
C61    C     0.55409   0.00620   0.90641   0.00000  Uiso   1.00
C62    C     0.56457   0.02968   0.99643   0.00000  Uiso   1.00
C63    C     0.66692   0.01986   0.03318   0.00000  Uiso   1.00
C64    C     0.43485   0.90006   0.81167   0.00000  Uiso   1.00
C65    C     0.34508   0.83430   0.82201   0.00000  Uiso   1.00
C66    C     0.34704   0.73513   0.77900   0.00000  Uiso   1.00
C67    C     0.47202   0.08799   0.77525   0.00000  Uiso   1.00
C68    C     0.41347   0.18023   0.75496   0.00000  Uiso   1.00
C69    C     0.44670   0.23927   0.68126   0.00000  Uiso   1.00
H70    H     0.68182   0.92739   0.71789   0.00000  Uiso   1.00
H71    H     0.81358   0.93931   0.85169   0.00000  Uiso   1.00
H72    H     0.59411   0.74397   0.67730   0.00000  Uiso   1.00
H73    H     0.66250   0.08984   0.61026   0.00000  Uiso   1.00
H74    H     0.92059   0.96667   0.02275   0.00000  Uiso   1.00
H75    H     0.45781   0.55479   0.65500   0.00000  Uiso   1.00
H76    H     0.60202   0.28414   0.51363   0.00000  Uiso   1.00
H77    H     0.38075   0.03664   0.89285   0.00000  Uiso   1.00
H78    H     0.49600   0.05456   0.03625   0.00000  Uiso   1.00
H79    H     0.27653   0.85921   0.86186   0.00000  Uiso   1.00
H80    H     0.34492   0.20509   0.79482   0.00000  Uiso   1.00
H81    H     0.66282   0.06020   0.17254   0.00000  Uiso   1.00
H82    H     0.20004   0.64832   0.80480   0.00000  Uiso   1.00
H83    H     0.34425   0.37767   0.66342   0.00000  Uiso   1.00
O84    O     0.87294   0.02322   0.18883   0.00000  Uiso   1.00
O85    O     0.26579   0.48286   0.70635   0.00000  Uiso   1.00
O86    O     0.45499   0.43975   0.52087   0.00000  Uiso   1.00
N87    N     0.84411   0.98624   0.03832   0.00000  Uiso   1.00
N88    N     0.41145   0.60115   0.69451   0.00000  Uiso   1.00
N89    N     0.54625   0.28302   0.56232   0.00000  Uiso   1.00
N90    N     0.70541   0.03657   0.11892   0.00000  Uiso   1.00
N91    N     0.27275   0.65148   0.77511   0.00000  Uiso   1.00
N92    N     0.40755   0.33335   0.64293   0.00000  Uiso   1.00
C93    C     0.95242   0.38715   0.50798   0.00000  Uiso   1.00
C94    C     0.97406   0.35731   0.60493   0.00000  Uiso   1.00
C95    C     0.96420   0.25496   0.64156   0.00000  Uiso   1.00
C96    C     0.98765   0.24432   0.73160   0.00000  Uiso   1.00
C97    C     0.01631   0.18452   0.87433   0.00000  Uiso   1.00
C98    C     0.86791   0.47655   0.51019   0.00000  Uiso   1.00
C99    C     0.76882   0.47446   0.46714   0.00000  Uiso   1.00
C100   C     0.70293   0.56421   0.47742   0.00000  Uiso   1.00
C101   C     0.56682   0.68955   0.47300   0.00000  Uiso   1.00
C102   C     0.05584   0.43938   0.47377   0.00000  Uiso   1.00
C103   C     0.11475   0.40606   0.40008   0.00000  Uiso   1.00
C104   C     0.20707   0.46454   0.37969   0.00000  Uiso   1.00
C105   C     0.36275   0.53218   0.31872   0.00000  Uiso   1.00
C106   C     0.01161   0.55027   0.60276   0.00000  Uiso   1.00
C107   C     0.00620   0.44591   0.65641   0.00000  Uiso   1.00
C108   C     0.02968   0.43543   0.74643   0.00000  Uiso   1.00
C109   C     0.01986   0.33308   0.78318   0.00000  Uiso   1.00
C110   C     0.90006   0.56515   0.56167   0.00000  Uiso   1.00
C111   C     0.83430   0.65492   0.57201   0.00000  Uiso   1.00
C112   C     0.73513   0.65296   0.52900   0.00000  Uiso   1.00
C113   C     0.08799   0.52798   0.52525   0.00000  Uiso   1.00
C114   C     0.18023   0.58653   0.50496   0.00000  Uiso   1.00
C115   C     0.23927   0.55330   0.43126   0.00000  Uiso   1.00
H116   H     0.92739   0.31818   0.46789   0.00000  Uiso   1.00
H117   H     0.93931   0.18642   0.60169   0.00000  Uiso   1.00
H118   H     0.74397   0.40589   0.42730   0.00000  Uiso   1.00
H119   H     0.08984   0.33750   0.36026   0.00000  Uiso   1.00
H120   H     0.96667   0.07941   0.77275   0.00000  Uiso   1.00
H121   H     0.55479   0.54219   0.40500   0.00000  Uiso   1.00
H122   H     0.28414   0.39798   0.26363   0.00000  Uiso   1.00
H123   H     0.03664   0.61925   0.64285   0.00000  Uiso   1.00
H124   H     0.05456   0.50400   0.78625   0.00000  Uiso   1.00
H125   H     0.85921   0.72347   0.61186   0.00000  Uiso   1.00
H126   H     0.20509   0.65508   0.54482   0.00000  Uiso   1.00
H127   H     0.06020   0.33718   0.92254   0.00000  Uiso   1.00
H128   H     0.64832   0.79996   0.55480   0.00000  Uiso   1.00
H129   H     0.37767   0.65575   0.41342   0.00000  Uiso   1.00
O130   O     0.02322   0.12706   0.93883   0.00000  Uiso   1.00
O131   O     0.48286   0.73421   0.45635   0.00000  Uiso   1.00
O132   O     0.43975   0.54501   0.27087   0.00000  Uiso   1.00
N133   N     0.98624   0.15589   0.78832   0.00000  Uiso   1.00
N134   N     0.60115   0.58855   0.44451   0.00000  Uiso   1.00
N135   N     0.28302   0.45375   0.31232   0.00000  Uiso   1.00
N136   N     0.03657   0.29459   0.86892   0.00000  Uiso   1.00
N137   N     0.65148   0.72725   0.52511   0.00000  Uiso   1.00
N138   N     0.33335   0.59245   0.39293   0.00000  Uiso   1.00
C139   C     0.04758   0.61285   0.00798   0.00000  Uiso   1.00
C140   C     0.02594   0.64269   0.10493   0.00000  Uiso   1.00
C141   C     0.03580   0.74504   0.14156   0.00000  Uiso   1.00
C142   C     0.01235   0.75568   0.23160   0.00000  Uiso   1.00
C143   C     0.98369   0.81548   0.37433   0.00000  Uiso   1.00
C144   C     0.13209   0.52345   0.01019   0.00000  Uiso   1.00
C145   C     0.23118   0.52554   0.96714   0.00000  Uiso   1.00
C146   C     0.29707   0.43579   0.97742   0.00000  Uiso   1.00
C147   C     0.43318   0.31045   0.97300   0.00000  Uiso   1.00
C148   C     0.94416   0.56062   0.97377   0.00000  Uiso   1.00
C149   C     0.88525   0.59394   0.90008   0.00000  Uiso   1.00
C150   C     0.79293   0.53546   0.87969   0.00000  Uiso   1.00
C151   C     0.63725   0.46782   0.81872   0.00000  Uiso   1.00
C152   C     0.98839   0.44973   0.10276   0.00000  Uiso   1.00
C153   C     0.99380   0.55409   0.15641   0.00000  Uiso   1.00
C154   C     0.97032   0.56457   0.24643   0.00000  Uiso   1.00
C155   C     0.98014   0.66692   0.28318   0.00000  Uiso   1.00
C156   C     0.09994   0.43485   0.06167   0.00000  Uiso   1.00
C157   C     0.16570   0.34508   0.07201   0.00000  Uiso   1.00
C158   C     0.26487   0.34704   0.02900   0.00000  Uiso   1.00
C159   C     0.91201   0.47202   0.02525   0.00000  Uiso   1.00
C160   C     0.81977   0.41347   0.00496   0.00000  Uiso   1.00
C161   C     0.76073   0.44670   0.93126   0.00000  Uiso   1.00
H162   H     0.07261   0.68182   0.96789   0.00000  Uiso   1.00
H163   H     0.06069   0.81358   0.10169   0.00000  Uiso   1.00
H164   H     0.25603   0.59411   0.92730   0.00000  Uiso   1.00
H165   H     0.91016   0.66250   0.86026   0.00000  Uiso   1.00
H166   H     0.03333   0.92059   0.27275   0.00000  Uiso   1.00
H167   H     0.44521   0.45781   0.90500   0.00000  Uiso   1.00
H168   H     0.71586   0.60202   0.76363   0.00000  Uiso   1.00
H169   H     0.96336   0.38075   0.14285   0.00000  Uiso   1.00
H170   H     0.94544   0.49600   0.28625   0.00000  Uiso   1.00
H171   H     0.14079   0.27653   0.11186   0.00000  Uiso   1.00
H172   H     0.79491   0.34492   0.04482   0.00000  Uiso   1.00
H173   H     0.93980   0.66282   0.42254   0.00000  Uiso   1.00
H174   H     0.35168   0.20004   0.05480   0.00000  Uiso   1.00
H175   H     0.62233   0.34425   0.91342   0.00000  Uiso   1.00
O176   O     0.97678   0.87294   0.43883   0.00000  Uiso   1.00
O177   O     0.51714   0.26579   0.95635   0.00000  Uiso   1.00
O178   O     0.56025   0.45499   0.77087   0.00000  Uiso   1.00
N179   N     0.01376   0.84411   0.28832   0.00000  Uiso   1.00
N180   N     0.39885   0.41145   0.94451   0.00000  Uiso   1.00
N181   N     0.71698   0.54625   0.81232   0.00000  Uiso   1.00
N182   N     0.96343   0.70541   0.36892   0.00000  Uiso   1.00
N183   N     0.34852   0.27275   0.02511   0.00000  Uiso   1.00
N184   N     0.66665   0.40755   0.89293   0.00000  Uiso   1.00
