data_job_01412
_audit_creation_date              2018-12-19
_audit_creation_method            'Materials Studio'
_symmetry_space_group_name_H-M    'P1'
_symmetry_Int_Tables_number       1
_symmetry_cell_setting            triclinic
loop_
_symmetry_equiv_pos_as_xyz
  x,y,z
_cell_length_a                    19.9511
_cell_length_b                    19.9511
_cell_length_c                    12.3964
_cell_angle_alpha                 90.0000
_cell_angle_beta                  90.0000
_cell_angle_gamma                 90.0000
loop_
_atom_site_label
_atom_site_type_symbol
_atom_site_fract_x
_atom_site_fract_y
_atom_site_fract_z
_atom_site_U_iso_or_equiv
_atom_site_adp_type
_atom_site_occupancy
C1     C     0.60250   0.76483   0.06618   0.00000  Uiso   1.00
C2     C     0.66850   0.72807   0.04741   0.00000  Uiso   1.00
C3     C     0.73205   0.75536   0.05932   0.00000  Uiso   1.00
C4     C     0.78610   0.71351   0.03831   0.00000  Uiso   1.00
C5     C     0.88998   0.66660   0.01394   0.00000  Uiso   1.00
C6     C     0.56303   0.75852   0.96133   0.00000  Uiso   1.00
C7     C     0.53789   0.81141   0.90089   0.00000  Uiso   1.00
C8     C     0.50315   0.79519   0.80742   0.00000  Uiso   1.00
C9     C     0.44324   0.79555   0.64946   0.00000  Uiso   1.00
C10    C     0.56431   0.72371   0.14969   0.00000  Uiso   1.00
C11    C     0.54025   0.74732   0.24761   0.00000  Uiso   1.00
C12    C     0.50657   0.70180   0.31272   0.00000  Uiso   1.00
C13    C     0.44866   0.64811   0.44722   0.00000  Uiso   1.00
C14    C     0.58547   0.64199   0.00767   0.00000  Uiso   1.00
C15    C     0.65925   0.66135   0.01562   0.00000  Uiso   1.00
C16    C     0.71321   0.61945   0.99459   0.00000  Uiso   1.00
C17    C     0.77683   0.64667   0.00647   0.00000  Uiso   1.00
C18    C     0.55378   0.69180   0.92955   0.00000  Uiso   1.00
C19    C     0.51905   0.67550   0.83616   0.00000  Uiso   1.00
C20    C     0.49388   0.72835   0.77558   0.00000  Uiso   1.00
C21    C     0.55506   0.65699   0.11791   0.00000  Uiso   1.00
C22    C     0.52141   0.61142   0.18288   0.00000  Uiso   1.00
C23    C     0.49730   0.63496   0.28088   0.00000  Uiso   1.00
H24    H     0.60970   0.81677   0.09092   0.00000  Uiso   1.00
H25    H     0.73919   0.80700   0.08391   0.00000  Uiso   1.00
H26    H     0.54506   0.86303   0.92551   0.00000  Uiso   1.00
H27    H     0.54741   0.79896   0.27218   0.00000  Uiso   1.00
H28    H     0.87867   0.76674   0.06209   0.00000  Uiso   1.00
H29    H     0.46931   0.88490   0.72811   0.00000  Uiso   1.00
H30    H     0.47428   0.74979   0.45913   0.00000  Uiso   1.00
H31    H     0.57827   0.59004   0.98293   0.00000  Uiso   1.00
H32    H     0.70604   0.56782   0.97000   0.00000  Uiso   1.00
H33    H     0.51190   0.62386   0.81159   0.00000  Uiso   1.00
H34    H     0.51426   0.55979   0.15826   0.00000  Uiso   1.00
H35    H     0.85176   0.57262   0.96963   0.00000  Uiso   1.00
H36    H     0.44240   0.69078   0.63565   0.00000  Uiso   1.00
H37    H     0.44737   0.55567   0.36667   0.00000  Uiso   1.00
O38    O     0.94983   0.65917   0.00926   0.00000  Uiso   1.00
O39    O     0.41276   0.81418   0.57111   0.00000  Uiso   1.00
O40    O     0.41928   0.63692   0.53019   0.00000  Uiso   1.00
N41    N     0.85480   0.72410   0.04212   0.00000  Uiso   1.00
N42    N     0.47209   0.83457   0.72986   0.00000  Uiso   1.00
N43    N     0.47671   0.70826   0.41329   0.00000  Uiso   1.00
N44    N     0.84033   0.61965   0.99237   0.00000  Uiso   1.00
N45    N     0.45761   0.73012   0.68011   0.00000  Uiso   1.00
N46    N     0.46224   0.60380   0.36354   0.00000  Uiso   1.00
C47    C     0.39750   0.23517   0.06618   0.00000  Uiso   1.00
C48    C     0.33150   0.27193   0.04741   0.00000  Uiso   1.00
C49    C     0.26795   0.24464   0.05932   0.00000  Uiso   1.00
C50    C     0.21390   0.28649   0.03831   0.00000  Uiso   1.00
C51    C     0.11002   0.33340   0.01394   0.00000  Uiso   1.00
C52    C     0.43697   0.24148   0.96133   0.00000  Uiso   1.00
C53    C     0.46211   0.18859   0.90089   0.00000  Uiso   1.00
C54    C     0.49685   0.20481   0.80742   0.00000  Uiso   1.00
C55    C     0.55676   0.20445   0.64946   0.00000  Uiso   1.00
C56    C     0.43569   0.27629   0.14969   0.00000  Uiso   1.00
C57    C     0.45975   0.25268   0.24761   0.00000  Uiso   1.00
C58    C     0.49343   0.29820   0.31272   0.00000  Uiso   1.00
C59    C     0.55134   0.35189   0.44722   0.00000  Uiso   1.00
C60    C     0.41453   0.35801   0.00767   0.00000  Uiso   1.00
C61    C     0.34075   0.33865   0.01562   0.00000  Uiso   1.00
C62    C     0.28679   0.38055   0.99459   0.00000  Uiso   1.00
C63    C     0.22317   0.35333   0.00647   0.00000  Uiso   1.00
C64    C     0.44622   0.30820   0.92955   0.00000  Uiso   1.00
C65    C     0.48095   0.32450   0.83616   0.00000  Uiso   1.00
C66    C     0.50612   0.27165   0.77558   0.00000  Uiso   1.00
C67    C     0.44494   0.34301   0.11791   0.00000  Uiso   1.00
C68    C     0.47859   0.38858   0.18288   0.00000  Uiso   1.00
C69    C     0.50270   0.36504   0.28088   0.00000  Uiso   1.00
H70    H     0.39030   0.18323   0.09092   0.00000  Uiso   1.00
H71    H     0.26081   0.19300   0.08391   0.00000  Uiso   1.00
H72    H     0.45494   0.13697   0.92551   0.00000  Uiso   1.00
H73    H     0.45259   0.20104   0.27218   0.00000  Uiso   1.00
H74    H     0.12133   0.23326   0.06209   0.00000  Uiso   1.00
H75    H     0.53069   0.11510   0.72811   0.00000  Uiso   1.00
H76    H     0.52572   0.25021   0.45913   0.00000  Uiso   1.00
H77    H     0.42173   0.40996   0.98293   0.00000  Uiso   1.00
H78    H     0.29396   0.43218   0.97000   0.00000  Uiso   1.00
H79    H     0.48810   0.37614   0.81159   0.00000  Uiso   1.00
H80    H     0.48574   0.44021   0.15826   0.00000  Uiso   1.00
H81    H     0.14824   0.42738   0.96963   0.00000  Uiso   1.00
H82    H     0.55760   0.30922   0.63565   0.00000  Uiso   1.00
H83    H     0.55263   0.44433   0.36667   0.00000  Uiso   1.00
O84    O     0.05017   0.34083   0.00926   0.00000  Uiso   1.00
O85    O     0.58724   0.18582   0.57111   0.00000  Uiso   1.00
O86    O     0.58072   0.36308   0.53019   0.00000  Uiso   1.00
N87    N     0.14520   0.27590   0.04212   0.00000  Uiso   1.00
N88    N     0.52791   0.16543   0.72986   0.00000  Uiso   1.00
N89    N     0.52329   0.29174   0.41329   0.00000  Uiso   1.00
N90    N     0.15967   0.38035   0.99237   0.00000  Uiso   1.00
N91    N     0.54239   0.26988   0.68011   0.00000  Uiso   1.00
N92    N     0.53776   0.39620   0.36354   0.00000  Uiso   1.00
C93    C     0.73517   0.10250   0.56618   0.00000  Uiso   1.00
C94    C     0.77193   0.16850   0.54741   0.00000  Uiso   1.00
C95    C     0.74464   0.23205   0.55932   0.00000  Uiso   1.00
C96    C     0.78649   0.28610   0.53831   0.00000  Uiso   1.00
C97    C     0.83340   0.38998   0.51394   0.00000  Uiso   1.00
C98    C     0.74148   0.06303   0.46133   0.00000  Uiso   1.00
C99    C     0.68859   0.03789   0.40089   0.00000  Uiso   1.00
C100   C     0.70481   0.00315   0.30742   0.00000  Uiso   1.00
C101   C     0.70445   0.94324   0.14946   0.00000  Uiso   1.00
C102   C     0.77629   0.06431   0.64969   0.00000  Uiso   1.00
C103   C     0.75268   0.04025   0.74761   0.00000  Uiso   1.00
C104   C     0.79820   0.00657   0.81272   0.00000  Uiso   1.00
C105   C     0.85189   0.94866   0.94722   0.00000  Uiso   1.00
C106   C     0.85801   0.08547   0.50767   0.00000  Uiso   1.00
C107   C     0.83865   0.15925   0.51562   0.00000  Uiso   1.00
C108   C     0.88055   0.21321   0.49459   0.00000  Uiso   1.00
C109   C     0.85333   0.27683   0.50647   0.00000  Uiso   1.00
C110   C     0.80820   0.05378   0.42955   0.00000  Uiso   1.00
C111   C     0.82450   0.01905   0.33616   0.00000  Uiso   1.00
C112   C     0.77165   0.99388   0.27558   0.00000  Uiso   1.00
C113   C     0.84301   0.05506   0.61791   0.00000  Uiso   1.00
C114   C     0.88858   0.02141   0.68288   0.00000  Uiso   1.00
C115   C     0.86504   0.99730   0.78088   0.00000  Uiso   1.00
H116   H     0.68323   0.10970   0.59092   0.00000  Uiso   1.00
H117   H     0.69300   0.23919   0.58391   0.00000  Uiso   1.00
H118   H     0.63697   0.04506   0.42551   0.00000  Uiso   1.00
H119   H     0.70104   0.04741   0.77218   0.00000  Uiso   1.00
H120   H     0.73326   0.37867   0.56209   0.00000  Uiso   1.00
H121   H     0.61510   0.96931   0.22811   0.00000  Uiso   1.00
H122   H     0.75021   0.97428   0.95913   0.00000  Uiso   1.00
H123   H     0.90996   0.07827   0.48293   0.00000  Uiso   1.00
H124   H     0.93218   0.20604   0.47000   0.00000  Uiso   1.00
H125   H     0.87614   0.01190   0.31159   0.00000  Uiso   1.00
H126   H     0.94021   0.01426   0.65826   0.00000  Uiso   1.00
H127   H     0.92738   0.35176   0.46963   0.00000  Uiso   1.00
H128   H     0.80922   0.94240   0.13565   0.00000  Uiso   1.00
H129   H     0.94433   0.94737   0.86667   0.00000  Uiso   1.00
O130   O     0.84083   0.44983   0.50926   0.00000  Uiso   1.00
O131   O     0.68582   0.91276   0.07111   0.00000  Uiso   1.00
O132   O     0.86308   0.91928   0.03019   0.00000  Uiso   1.00
N133   N     0.77590   0.35480   0.54212   0.00000  Uiso   1.00
N134   N     0.66543   0.97209   0.22986   0.00000  Uiso   1.00
N135   N     0.79174   0.97671   0.91329   0.00000  Uiso   1.00
N136   N     0.88035   0.34033   0.49237   0.00000  Uiso   1.00
N137   N     0.76988   0.95761   0.18011   0.00000  Uiso   1.00
N138   N     0.89620   0.96224   0.86354   0.00000  Uiso   1.00
C139   C     0.26483   0.89750   0.56618   0.00000  Uiso   1.00
C140   C     0.22807   0.83150   0.54741   0.00000  Uiso   1.00
C141   C     0.25536   0.76795   0.55932   0.00000  Uiso   1.00
C142   C     0.21351   0.71390   0.53831   0.00000  Uiso   1.00
C143   C     0.16660   0.61002   0.51394   0.00000  Uiso   1.00
C144   C     0.25852   0.93697   0.46133   0.00000  Uiso   1.00
C145   C     0.31141   0.96211   0.40089   0.00000  Uiso   1.00
C146   C     0.29519   0.99685   0.30742   0.00000  Uiso   1.00
C147   C     0.29555   0.05676   0.14946   0.00000  Uiso   1.00
C148   C     0.22371   0.93569   0.64969   0.00000  Uiso   1.00
C149   C     0.24732   0.95975   0.74761   0.00000  Uiso   1.00
C150   C     0.20180   0.99343   0.81272   0.00000  Uiso   1.00
C151   C     0.14811   0.05134   0.94722   0.00000  Uiso   1.00
C152   C     0.14199   0.91453   0.50767   0.00000  Uiso   1.00
C153   C     0.16135   0.84075   0.51562   0.00000  Uiso   1.00
C154   C     0.11945   0.78679   0.49459   0.00000  Uiso   1.00
C155   C     0.14667   0.72317   0.50647   0.00000  Uiso   1.00
C156   C     0.19180   0.94622   0.42955   0.00000  Uiso   1.00
C157   C     0.17550   0.98095   0.33616   0.00000  Uiso   1.00
C158   C     0.22835   0.00612   0.27558   0.00000  Uiso   1.00
C159   C     0.15699   0.94494   0.61791   0.00000  Uiso   1.00
C160   C     0.11142   0.97859   0.68288   0.00000  Uiso   1.00
C161   C     0.13496   0.00270   0.78088   0.00000  Uiso   1.00
H162   H     0.31677   0.89030   0.59092   0.00000  Uiso   1.00
H163   H     0.30700   0.76081   0.58391   0.00000  Uiso   1.00
H164   H     0.36303   0.95494   0.42551   0.00000  Uiso   1.00
H165   H     0.29896   0.95259   0.77218   0.00000  Uiso   1.00
H166   H     0.26674   0.62133   0.56209   0.00000  Uiso   1.00
H167   H     0.38490   0.03069   0.22811   0.00000  Uiso   1.00
H168   H     0.24979   0.02572   0.95913   0.00000  Uiso   1.00
H169   H     0.09004   0.92173   0.48293   0.00000  Uiso   1.00
H170   H     0.06782   0.79396   0.47000   0.00000  Uiso   1.00
H171   H     0.12386   0.98810   0.31159   0.00000  Uiso   1.00
H172   H     0.05979   0.98574   0.65826   0.00000  Uiso   1.00
H173   H     0.07262   0.64824   0.46963   0.00000  Uiso   1.00
H174   H     0.19078   0.05760   0.13565   0.00000  Uiso   1.00
H175   H     0.05567   0.05263   0.86667   0.00000  Uiso   1.00
O176   O     0.15917   0.55017   0.50926   0.00000  Uiso   1.00
O177   O     0.31418   0.08724   0.07111   0.00000  Uiso   1.00
O178   O     0.13692   0.08072   0.03019   0.00000  Uiso   1.00
N179   N     0.22410   0.64520   0.54212   0.00000  Uiso   1.00
N180   N     0.33457   0.02791   0.22986   0.00000  Uiso   1.00
N181   N     0.20826   0.02329   0.91329   0.00000  Uiso   1.00
N182   N     0.11965   0.65967   0.49237   0.00000  Uiso   1.00
N183   N     0.23012   0.04239   0.18011   0.00000  Uiso   1.00
N184   N     0.10380   0.03776   0.86354   0.00000  Uiso   1.00
C185   C     0.89750   0.73517   0.43382   0.00000  Uiso   1.00
C186   C     0.83150   0.77193   0.45259   0.00000  Uiso   1.00
C187   C     0.76795   0.74464   0.44068   0.00000  Uiso   1.00
C188   C     0.71390   0.78649   0.46169   0.00000  Uiso   1.00
C189   C     0.61002   0.83340   0.48606   0.00000  Uiso   1.00
C190   C     0.93697   0.74148   0.53867   0.00000  Uiso   1.00
C191   C     0.96211   0.68859   0.59911   0.00000  Uiso   1.00
C192   C     0.99685   0.70481   0.69258   0.00000  Uiso   1.00
C193   C     0.05676   0.70445   0.85054   0.00000  Uiso   1.00
C194   C     0.93569   0.77629   0.35031   0.00000  Uiso   1.00
C195   C     0.95975   0.75268   0.25239   0.00000  Uiso   1.00
C196   C     0.99343   0.79820   0.18728   0.00000  Uiso   1.00
C197   C     0.05134   0.85189   0.05278   0.00000  Uiso   1.00
C198   C     0.91453   0.85801   0.49233   0.00000  Uiso   1.00
C199   C     0.84075   0.83865   0.48438   0.00000  Uiso   1.00
C200   C     0.78679   0.88055   0.50541   0.00000  Uiso   1.00
C201   C     0.72317   0.85333   0.49353   0.00000  Uiso   1.00
C202   C     0.94622   0.80820   0.57045   0.00000  Uiso   1.00
C203   C     0.98095   0.82450   0.66384   0.00000  Uiso   1.00
C204   C     0.00612   0.77165   0.72442   0.00000  Uiso   1.00
C205   C     0.94494   0.84301   0.38209   0.00000  Uiso   1.00
C206   C     0.97859   0.88858   0.31712   0.00000  Uiso   1.00
C207   C     0.00270   0.86504   0.21912   0.00000  Uiso   1.00
H208   H     0.89030   0.68323   0.40908   0.00000  Uiso   1.00
H209   H     0.76081   0.69300   0.41609   0.00000  Uiso   1.00
H210   H     0.95494   0.63697   0.57449   0.00000  Uiso   1.00
H211   H     0.95259   0.70104   0.22782   0.00000  Uiso   1.00
H212   H     0.62133   0.73326   0.43791   0.00000  Uiso   1.00
H213   H     0.03069   0.61510   0.77189   0.00000  Uiso   1.00
H214   H     0.02572   0.75021   0.04087   0.00000  Uiso   1.00
H215   H     0.92173   0.90996   0.51707   0.00000  Uiso   1.00
H216   H     0.79396   0.93218   0.53000   0.00000  Uiso   1.00
H217   H     0.98810   0.87614   0.68841   0.00000  Uiso   1.00
H218   H     0.98574   0.94021   0.34174   0.00000  Uiso   1.00
H219   H     0.64824   0.92738   0.53037   0.00000  Uiso   1.00
H220   H     0.05760   0.80922   0.86435   0.00000  Uiso   1.00
H221   H     0.05263   0.94433   0.13333   0.00000  Uiso   1.00
O222   O     0.55017   0.84083   0.49074   0.00000  Uiso   1.00
O223   O     0.08724   0.68582   0.92889   0.00000  Uiso   1.00
O224   O     0.08072   0.86308   0.96981   0.00000  Uiso   1.00
N225   N     0.64520   0.77590   0.45788   0.00000  Uiso   1.00
N226   N     0.02791   0.66543   0.77014   0.00000  Uiso   1.00
N227   N     0.02329   0.79174   0.08671   0.00000  Uiso   1.00
N228   N     0.65967   0.88035   0.50763   0.00000  Uiso   1.00
N229   N     0.04239   0.76988   0.81989   0.00000  Uiso   1.00
N230   N     0.03776   0.89620   0.13646   0.00000  Uiso   1.00
C231   C     0.10250   0.26483   0.43382   0.00000  Uiso   1.00
C232   C     0.16850   0.22807   0.45259   0.00000  Uiso   1.00
C233   C     0.23205   0.25536   0.44068   0.00000  Uiso   1.00
C234   C     0.28610   0.21351   0.46169   0.00000  Uiso   1.00
C235   C     0.38998   0.16660   0.48606   0.00000  Uiso   1.00
C236   C     0.06303   0.25852   0.53867   0.00000  Uiso   1.00
C237   C     0.03789   0.31141   0.59911   0.00000  Uiso   1.00
C238   C     0.00315   0.29519   0.69258   0.00000  Uiso   1.00
C239   C     0.94324   0.29555   0.85054   0.00000  Uiso   1.00
C240   C     0.06431   0.22371   0.35031   0.00000  Uiso   1.00
C241   C     0.04025   0.24732   0.25239   0.00000  Uiso   1.00
C242   C     0.00657   0.20180   0.18728   0.00000  Uiso   1.00
C243   C     0.94866   0.14811   0.05278   0.00000  Uiso   1.00
C244   C     0.08547   0.14199   0.49233   0.00000  Uiso   1.00
C245   C     0.15925   0.16135   0.48438   0.00000  Uiso   1.00
C246   C     0.21321   0.11945   0.50541   0.00000  Uiso   1.00
C247   C     0.27683   0.14667   0.49353   0.00000  Uiso   1.00
C248   C     0.05378   0.19180   0.57045   0.00000  Uiso   1.00
C249   C     0.01905   0.17550   0.66384   0.00000  Uiso   1.00
C250   C     0.99388   0.22835   0.72442   0.00000  Uiso   1.00
C251   C     0.05506   0.15699   0.38209   0.00000  Uiso   1.00
C252   C     0.02141   0.11142   0.31712   0.00000  Uiso   1.00
C253   C     0.99730   0.13496   0.21912   0.00000  Uiso   1.00
H254   H     0.10970   0.31677   0.40908   0.00000  Uiso   1.00
H255   H     0.23919   0.30700   0.41609   0.00000  Uiso   1.00
H256   H     0.04506   0.36303   0.57449   0.00000  Uiso   1.00
H257   H     0.04741   0.29896   0.22782   0.00000  Uiso   1.00
H258   H     0.37867   0.26674   0.43791   0.00000  Uiso   1.00
H259   H     0.96931   0.38490   0.77189   0.00000  Uiso   1.00
H260   H     0.97428   0.24979   0.04087   0.00000  Uiso   1.00
H261   H     0.07827   0.09004   0.51707   0.00000  Uiso   1.00
H262   H     0.20604   0.06782   0.53000   0.00000  Uiso   1.00
H263   H     0.01190   0.12386   0.68841   0.00000  Uiso   1.00
H264   H     0.01426   0.05979   0.34174   0.00000  Uiso   1.00
H265   H     0.35176   0.07262   0.53037   0.00000  Uiso   1.00
H266   H     0.94240   0.19078   0.86435   0.00000  Uiso   1.00
H267   H     0.94737   0.05567   0.13333   0.00000  Uiso   1.00
O268   O     0.44983   0.15917   0.49074   0.00000  Uiso   1.00
O269   O     0.91276   0.31418   0.92889   0.00000  Uiso   1.00
O270   O     0.91928   0.13692   0.96981   0.00000  Uiso   1.00
N271   N     0.35480   0.22410   0.45788   0.00000  Uiso   1.00
N272   N     0.97209   0.33457   0.77014   0.00000  Uiso   1.00
N273   N     0.97671   0.20826   0.08671   0.00000  Uiso   1.00
N274   N     0.34033   0.11965   0.50763   0.00000  Uiso   1.00
N275   N     0.95761   0.23012   0.81989   0.00000  Uiso   1.00
N276   N     0.96224   0.10380   0.13646   0.00000  Uiso   1.00
C277   C     0.76483   0.39750   0.93382   0.00000  Uiso   1.00
C278   C     0.72807   0.33150   0.95259   0.00000  Uiso   1.00
C279   C     0.75536   0.26795   0.94068   0.00000  Uiso   1.00
C280   C     0.71351   0.21390   0.96169   0.00000  Uiso   1.00
C281   C     0.66660   0.11002   0.98606   0.00000  Uiso   1.00
C282   C     0.75852   0.43697   0.03867   0.00000  Uiso   1.00
C283   C     0.81141   0.46211   0.09911   0.00000  Uiso   1.00
C284   C     0.79519   0.49685   0.19258   0.00000  Uiso   1.00
C285   C     0.79555   0.55676   0.35054   0.00000  Uiso   1.00
C286   C     0.72371   0.43569   0.85031   0.00000  Uiso   1.00
C287   C     0.74732   0.45975   0.75239   0.00000  Uiso   1.00
C288   C     0.70180   0.49343   0.68728   0.00000  Uiso   1.00
C289   C     0.64811   0.55134   0.55278   0.00000  Uiso   1.00
C290   C     0.64199   0.41453   0.99233   0.00000  Uiso   1.00
C291   C     0.66135   0.34075   0.98438   0.00000  Uiso   1.00
C292   C     0.61945   0.28679   0.00541   0.00000  Uiso   1.00
C293   C     0.64667   0.22317   0.99353   0.00000  Uiso   1.00
C294   C     0.69180   0.44622   0.07045   0.00000  Uiso   1.00
C295   C     0.67550   0.48095   0.16384   0.00000  Uiso   1.00
C296   C     0.72835   0.50612   0.22442   0.00000  Uiso   1.00
C297   C     0.65699   0.44494   0.88209   0.00000  Uiso   1.00
C298   C     0.61142   0.47859   0.81712   0.00000  Uiso   1.00
C299   C     0.63496   0.50270   0.71912   0.00000  Uiso   1.00
H300   H     0.81677   0.39030   0.90908   0.00000  Uiso   1.00
H301   H     0.80700   0.26081   0.91609   0.00000  Uiso   1.00
H302   H     0.86303   0.45494   0.07449   0.00000  Uiso   1.00
H303   H     0.79896   0.45259   0.72782   0.00000  Uiso   1.00
H304   H     0.76674   0.12133   0.93791   0.00000  Uiso   1.00
H305   H     0.88490   0.53069   0.27189   0.00000  Uiso   1.00
H306   H     0.74979   0.52572   0.54087   0.00000  Uiso   1.00
H307   H     0.59004   0.42173   0.01707   0.00000  Uiso   1.00
H308   H     0.56782   0.29396   0.03000   0.00000  Uiso   1.00
H309   H     0.62386   0.48810   0.18841   0.00000  Uiso   1.00
H310   H     0.55979   0.48574   0.84174   0.00000  Uiso   1.00
H311   H     0.57262   0.14824   0.03037   0.00000  Uiso   1.00
H312   H     0.69078   0.55760   0.36435   0.00000  Uiso   1.00
H313   H     0.55567   0.55263   0.63333   0.00000  Uiso   1.00
O314   O     0.65917   0.05017   0.99074   0.00000  Uiso   1.00
O315   O     0.81418   0.58724   0.42889   0.00000  Uiso   1.00
O316   O     0.63692   0.58072   0.46981   0.00000  Uiso   1.00
N317   N     0.72410   0.14520   0.95788   0.00000  Uiso   1.00
N318   N     0.83457   0.52791   0.27014   0.00000  Uiso   1.00
N319   N     0.70826   0.52329   0.58671   0.00000  Uiso   1.00
N320   N     0.61965   0.15967   0.00763   0.00000  Uiso   1.00
N321   N     0.73012   0.54239   0.31989   0.00000  Uiso   1.00
N322   N     0.60380   0.53776   0.63646   0.00000  Uiso   1.00
C323   C     0.23517   0.60250   0.93382   0.00000  Uiso   1.00
C324   C     0.27193   0.66850   0.95259   0.00000  Uiso   1.00
C325   C     0.24464   0.73205   0.94068   0.00000  Uiso   1.00
C326   C     0.28649   0.78610   0.96169   0.00000  Uiso   1.00
C327   C     0.33340   0.88998   0.98606   0.00000  Uiso   1.00
C328   C     0.24148   0.56303   0.03867   0.00000  Uiso   1.00
C329   C     0.18859   0.53789   0.09911   0.00000  Uiso   1.00
C330   C     0.20481   0.50315   0.19258   0.00000  Uiso   1.00
C331   C     0.20445   0.44324   0.35054   0.00000  Uiso   1.00
C332   C     0.27629   0.56431   0.85031   0.00000  Uiso   1.00
C333   C     0.25268   0.54025   0.75239   0.00000  Uiso   1.00
C334   C     0.29820   0.50657   0.68728   0.00000  Uiso   1.00
C335   C     0.35189   0.44866   0.55278   0.00000  Uiso   1.00
C336   C     0.35801   0.58547   0.99233   0.00000  Uiso   1.00
C337   C     0.33865   0.65925   0.98438   0.00000  Uiso   1.00
C338   C     0.38055   0.71321   0.00541   0.00000  Uiso   1.00
C339   C     0.35333   0.77683   0.99353   0.00000  Uiso   1.00
C340   C     0.30820   0.55378   0.07045   0.00000  Uiso   1.00
C341   C     0.32450   0.51905   0.16384   0.00000  Uiso   1.00
C342   C     0.27165   0.49388   0.22442   0.00000  Uiso   1.00
C343   C     0.34301   0.55506   0.88209   0.00000  Uiso   1.00
C344   C     0.38858   0.52141   0.81712   0.00000  Uiso   1.00
C345   C     0.36504   0.49730   0.71912   0.00000  Uiso   1.00
H346   H     0.18323   0.60970   0.90908   0.00000  Uiso   1.00
H347   H     0.19300   0.73919   0.91609   0.00000  Uiso   1.00
H348   H     0.13697   0.54506   0.07449   0.00000  Uiso   1.00
H349   H     0.20104   0.54741   0.72782   0.00000  Uiso   1.00
H350   H     0.23326   0.87867   0.93791   0.00000  Uiso   1.00
H351   H     0.11510   0.46931   0.27189   0.00000  Uiso   1.00
H352   H     0.25021   0.47428   0.54087   0.00000  Uiso   1.00
H353   H     0.40996   0.57827   0.01707   0.00000  Uiso   1.00
H354   H     0.43218   0.70604   0.03000   0.00000  Uiso   1.00
H355   H     0.37614   0.51190   0.18841   0.00000  Uiso   1.00
H356   H     0.44021   0.51426   0.84174   0.00000  Uiso   1.00
H357   H     0.42738   0.85176   0.03037   0.00000  Uiso   1.00
H358   H     0.30922   0.44240   0.36435   0.00000  Uiso   1.00
H359   H     0.44433   0.44737   0.63333   0.00000  Uiso   1.00
O360   O     0.34083   0.94983   0.99074   0.00000  Uiso   1.00
O361   O     0.18582   0.41276   0.42889   0.00000  Uiso   1.00
O362   O     0.36308   0.41928   0.46981   0.00000  Uiso   1.00
N363   N     0.27590   0.85480   0.95788   0.00000  Uiso   1.00
N364   N     0.16543   0.47209   0.27014   0.00000  Uiso   1.00
N365   N     0.29174   0.47671   0.58671   0.00000  Uiso   1.00
N366   N     0.38035   0.84033   0.00763   0.00000  Uiso   1.00
N367   N     0.26988   0.45761   0.31989   0.00000  Uiso   1.00
N368   N     0.39620   0.46224   0.63646   0.00000  Uiso   1.00
