data_job_03234
_audit_creation_date              2018-12-19
_audit_creation_method            'Materials Studio'
_symmetry_space_group_name_H-M    'P1'
_symmetry_Int_Tables_number       1
_symmetry_cell_setting            triclinic
loop_
_symmetry_equiv_pos_as_xyz
  x,y,z
_cell_length_a                    15.3643
_cell_length_b                    9.3503
_cell_length_c                    23.0890
_cell_angle_alpha                 90.0000
_cell_angle_beta                  71.8151
_cell_angle_gamma                 90.0000
loop_
_atom_site_label
_atom_site_type_symbol
_atom_site_fract_x
_atom_site_fract_y
_atom_site_fract_z
_atom_site_U_iso_or_equiv
_atom_site_adp_type
_atom_site_occupancy
C1     C     0.76003   0.25758   0.82485   0.00000  Uiso   1.00
C2     C     0.77211   0.16332   0.87569   0.00000  Uiso   1.00
C3     C     0.85153   0.15081   0.89185   0.00000  Uiso   1.00
C4     C     0.84871   0.05892   0.93963   0.00000  Uiso   1.00
C5     C     0.87956   0.92416   0.01393   0.00000  Uiso   1.00
C6     C     0.72918   0.15817   0.78266   0.00000  Uiso   1.00
C7     C     0.77251   0.14136   0.72059   0.00000  Uiso   1.00
C8     C     0.73355   0.04515   0.69006   0.00000  Uiso   1.00
C9     C     0.69772   0.90247   0.61991   0.00000  Uiso   1.00
C10    C     0.67860   0.35463   0.85465   0.00000  Uiso   1.00
C11    C     0.67938   0.50301   0.85310   0.00000  Uiso   1.00
C12    C     0.59782   0.57221   0.88317   0.00000  Uiso   1.00
C13    C     0.48344   0.73457   0.92480   0.00000  Uiso   1.00
C14    C     0.61380   0.11662   0.88099   0.00000  Uiso   1.00
C15    C     0.69267   0.08675   0.90618   0.00000  Uiso   1.00
C16    C     0.68974   0.99486   0.95396   0.00000  Uiso   1.00
C17    C     0.76914   0.98223   0.97018   0.00000  Uiso   1.00
C18    C     0.64976   0.08161   0.81315   0.00000  Uiso   1.00
C19    C     0.61072   0.98541   0.78271   0.00000  Uiso   1.00
C20    C     0.65398   0.96845   0.72061   0.00000  Uiso   1.00
C21    C     0.59916   0.27807   0.88515   0.00000  Uiso   1.00
C22    C     0.51759   0.34705   0.91522   0.00000  Uiso   1.00
C23    C     0.51825   0.49551   0.91372   0.00000  Uiso   1.00
H24    H     0.82187   0.31718   0.80110   0.00000  Uiso   1.00
H25    H     0.91299   0.21007   0.86823   0.00000  Uiso   1.00
H26    H     0.83397   0.20064   0.69701   0.00000  Uiso   1.00
H27    H     0.74086   0.56222   0.82950   0.00000  Uiso   1.00
H28    H     0.97899   0.05752   0.95609   0.00000  Uiso   1.00
H29    H     0.81237   0.03766   0.59505   0.00000  Uiso   1.00
H30    H     0.61601   0.80014   0.87444   0.00000  Uiso   1.00
H31    H     0.55195   0.05701   0.90473   0.00000  Uiso   1.00
H32    H     0.62826   0.93562   0.97755   0.00000  Uiso   1.00
H33    H     0.54925   0.92618   0.80632   0.00000  Uiso   1.00
H34    H     0.45613   0.28777   0.93881   0.00000  Uiso   1.00
H35    H     0.74790   0.83476   0.04481   0.00000  Uiso   1.00
H36    H     0.58127   0.81490   0.68377   0.00000  Uiso   1.00
H37    H     0.38492   0.57738   0.96316   0.00000  Uiso   1.00
O38    O     0.91852   0.87095   0.04647   0.00000  Uiso   1.00
O39    O     0.69991   0.84492   0.57280   0.00000  Uiso   1.00
O40    O     0.44230   0.84527   0.93935   0.00000  Uiso   1.00
N41    N     0.91412   0.02178   0.96699   0.00000  Uiso   1.00
N42    N     0.75835   0.00319   0.62943   0.00000  Uiso   1.00
N43    N     0.57477   0.71605   0.89062   0.00000  Uiso   1.00
N44    N     0.78977   0.90191   0.01473   0.00000  Uiso   1.00
N45    N     0.63400   0.88332   0.67718   0.00000  Uiso   1.00
N46    N     0.45042   0.59618   0.93837   0.00000  Uiso   1.00
C47    C     0.23997   0.75758   0.67515   0.00000  Uiso   1.00
C48    C     0.22789   0.66332   0.62431   0.00000  Uiso   1.00
C49    C     0.14847   0.65081   0.60815   0.00000  Uiso   1.00
C50    C     0.15129   0.55892   0.56037   0.00000  Uiso   1.00
C51    C     0.12044   0.42416   0.48607   0.00000  Uiso   1.00
C52    C     0.27082   0.65817   0.71734   0.00000  Uiso   1.00
C53    C     0.22749   0.64136   0.77941   0.00000  Uiso   1.00
C54    C     0.26645   0.54515   0.80994   0.00000  Uiso   1.00
C55    C     0.30228   0.40247   0.88009   0.00000  Uiso   1.00
C56    C     0.32140   0.85463   0.64535   0.00000  Uiso   1.00
C57    C     0.32062   0.00301   0.64690   0.00000  Uiso   1.00
C58    C     0.40218   0.07221   0.61683   0.00000  Uiso   1.00
C59    C     0.51656   0.23457   0.57520   0.00000  Uiso   1.00
C60    C     0.38620   0.61662   0.61901   0.00000  Uiso   1.00
C61    C     0.30733   0.58675   0.59382   0.00000  Uiso   1.00
C62    C     0.31026   0.49486   0.54604   0.00000  Uiso   1.00
C63    C     0.23086   0.48223   0.52982   0.00000  Uiso   1.00
C64    C     0.35024   0.58161   0.68685   0.00000  Uiso   1.00
C65    C     0.38928   0.48541   0.71729   0.00000  Uiso   1.00
C66    C     0.34602   0.46845   0.77939   0.00000  Uiso   1.00
C67    C     0.40084   0.77807   0.61485   0.00000  Uiso   1.00
C68    C     0.48241   0.84705   0.58478   0.00000  Uiso   1.00
C69    C     0.48175   0.99551   0.58628   0.00000  Uiso   1.00
H70    H     0.17813   0.81718   0.69890   0.00000  Uiso   1.00
H71    H     0.08701   0.71007   0.63177   0.00000  Uiso   1.00
H72    H     0.16603   0.70064   0.80299   0.00000  Uiso   1.00
H73    H     0.25914   0.06222   0.67050   0.00000  Uiso   1.00
H74    H     0.02101   0.55752   0.54391   0.00000  Uiso   1.00
H75    H     0.18763   0.53766   0.90495   0.00000  Uiso   1.00
H76    H     0.38399   0.30014   0.62556   0.00000  Uiso   1.00
H77    H     0.44805   0.55701   0.59527   0.00000  Uiso   1.00
H78    H     0.37174   0.43562   0.52245   0.00000  Uiso   1.00
H79    H     0.45075   0.42618   0.69368   0.00000  Uiso   1.00
H80    H     0.54387   0.78777   0.56119   0.00000  Uiso   1.00
H81    H     0.25210   0.33476   0.45519   0.00000  Uiso   1.00
H82    H     0.41873   0.31490   0.81623   0.00000  Uiso   1.00
H83    H     0.61508   0.07738   0.53684   0.00000  Uiso   1.00
O84    O     0.08148   0.37095   0.45353   0.00000  Uiso   1.00
O85    O     0.30009   0.34492   0.92720   0.00000  Uiso   1.00
O86    O     0.55770   0.34527   0.56065   0.00000  Uiso   1.00
N87    N     0.08588   0.52178   0.53301   0.00000  Uiso   1.00
N88    N     0.24165   0.50319   0.87057   0.00000  Uiso   1.00
N89    N     0.42523   0.21605   0.60938   0.00000  Uiso   1.00
N90    N     0.21023   0.40191   0.48527   0.00000  Uiso   1.00
N91    N     0.36600   0.38332   0.82282   0.00000  Uiso   1.00
N92    N     0.54958   0.09618   0.56163   0.00000  Uiso   1.00
C93    C     0.23997   0.74242   0.17515   0.00000  Uiso   1.00
C94    C     0.22789   0.83668   0.12431   0.00000  Uiso   1.00
C95    C     0.14847   0.84919   0.10815   0.00000  Uiso   1.00
C96    C     0.15129   0.94108   0.06037   0.00000  Uiso   1.00
C97    C     0.12044   0.07584   0.98607   0.00000  Uiso   1.00
C98    C     0.27082   0.84183   0.21734   0.00000  Uiso   1.00
C99    C     0.22749   0.85864   0.27941   0.00000  Uiso   1.00
C100   C     0.26645   0.95485   0.30994   0.00000  Uiso   1.00
C101   C     0.30228   0.09753   0.38009   0.00000  Uiso   1.00
C102   C     0.32140   0.64537   0.14535   0.00000  Uiso   1.00
C103   C     0.32062   0.49699   0.14690   0.00000  Uiso   1.00
C104   C     0.40218   0.42779   0.11683   0.00000  Uiso   1.00
C105   C     0.51656   0.26543   0.07520   0.00000  Uiso   1.00
C106   C     0.38620   0.88338   0.11901   0.00000  Uiso   1.00
C107   C     0.30733   0.91325   0.09382   0.00000  Uiso   1.00
C108   C     0.31026   0.00514   0.04604   0.00000  Uiso   1.00
C109   C     0.23086   0.01777   0.02982   0.00000  Uiso   1.00
C110   C     0.35024   0.91839   0.18685   0.00000  Uiso   1.00
C111   C     0.38928   0.01459   0.21729   0.00000  Uiso   1.00
C112   C     0.34602   0.03155   0.27939   0.00000  Uiso   1.00
C113   C     0.40084   0.72193   0.11485   0.00000  Uiso   1.00
C114   C     0.48241   0.65295   0.08478   0.00000  Uiso   1.00
C115   C     0.48175   0.50449   0.08628   0.00000  Uiso   1.00
H116   H     0.17813   0.68282   0.19890   0.00000  Uiso   1.00
H117   H     0.08701   0.78993   0.13177   0.00000  Uiso   1.00
H118   H     0.16603   0.79936   0.30299   0.00000  Uiso   1.00
H119   H     0.25914   0.43778   0.17050   0.00000  Uiso   1.00
H120   H     0.02101   0.94248   0.04391   0.00000  Uiso   1.00
H121   H     0.18763   0.96234   0.40495   0.00000  Uiso   1.00
H122   H     0.38399   0.19986   0.12556   0.00000  Uiso   1.00
H123   H     0.44805   0.94299   0.09527   0.00000  Uiso   1.00
H124   H     0.37174   0.06438   0.02245   0.00000  Uiso   1.00
H125   H     0.45075   0.07382   0.19368   0.00000  Uiso   1.00
H126   H     0.54387   0.71223   0.06119   0.00000  Uiso   1.00
H127   H     0.25210   0.16524   0.95519   0.00000  Uiso   1.00
H128   H     0.41873   0.18510   0.31623   0.00000  Uiso   1.00
H129   H     0.61508   0.42262   0.03684   0.00000  Uiso   1.00
O130   O     0.08148   0.12905   0.95353   0.00000  Uiso   1.00
O131   O     0.30009   0.15508   0.42720   0.00000  Uiso   1.00
O132   O     0.55770   0.15473   0.06065   0.00000  Uiso   1.00
N133   N     0.08588   0.97822   0.03301   0.00000  Uiso   1.00
N134   N     0.24165   0.99681   0.37057   0.00000  Uiso   1.00
N135   N     0.42523   0.28395   0.10938   0.00000  Uiso   1.00
N136   N     0.21023   0.09809   0.98527   0.00000  Uiso   1.00
N137   N     0.36600   0.11668   0.32282   0.00000  Uiso   1.00
N138   N     0.54958   0.40382   0.06163   0.00000  Uiso   1.00
C139   C     0.76003   0.24242   0.32485   0.00000  Uiso   1.00
C140   C     0.77211   0.33668   0.37569   0.00000  Uiso   1.00
C141   C     0.85153   0.34919   0.39185   0.00000  Uiso   1.00
C142   C     0.84871   0.44108   0.43963   0.00000  Uiso   1.00
C143   C     0.87956   0.57584   0.51393   0.00000  Uiso   1.00
C144   C     0.72918   0.34183   0.28266   0.00000  Uiso   1.00
C145   C     0.77251   0.35864   0.22059   0.00000  Uiso   1.00
C146   C     0.73355   0.45485   0.19006   0.00000  Uiso   1.00
C147   C     0.69772   0.59753   0.11991   0.00000  Uiso   1.00
C148   C     0.67860   0.14537   0.35465   0.00000  Uiso   1.00
C149   C     0.67938   0.99699   0.35310   0.00000  Uiso   1.00
C150   C     0.59782   0.92779   0.38317   0.00000  Uiso   1.00
C151   C     0.48344   0.76543   0.42480   0.00000  Uiso   1.00
C152   C     0.61380   0.38338   0.38099   0.00000  Uiso   1.00
C153   C     0.69267   0.41325   0.40618   0.00000  Uiso   1.00
C154   C     0.68974   0.50514   0.45396   0.00000  Uiso   1.00
C155   C     0.76914   0.51777   0.47018   0.00000  Uiso   1.00
C156   C     0.64976   0.41839   0.31315   0.00000  Uiso   1.00
C157   C     0.61072   0.51459   0.28271   0.00000  Uiso   1.00
C158   C     0.65398   0.53155   0.22061   0.00000  Uiso   1.00
C159   C     0.59916   0.22193   0.38515   0.00000  Uiso   1.00
C160   C     0.51759   0.15295   0.41522   0.00000  Uiso   1.00
C161   C     0.51825   0.00449   0.41372   0.00000  Uiso   1.00
H162   H     0.82187   0.18282   0.30110   0.00000  Uiso   1.00
H163   H     0.91299   0.28993   0.36823   0.00000  Uiso   1.00
H164   H     0.83397   0.29936   0.19701   0.00000  Uiso   1.00
H165   H     0.74086   0.93778   0.32950   0.00000  Uiso   1.00
H166   H     0.97899   0.44248   0.45609   0.00000  Uiso   1.00
H167   H     0.81237   0.46234   0.09505   0.00000  Uiso   1.00
H168   H     0.61601   0.69986   0.37444   0.00000  Uiso   1.00
H169   H     0.55195   0.44299   0.40473   0.00000  Uiso   1.00
H170   H     0.62826   0.56438   0.47755   0.00000  Uiso   1.00
H171   H     0.54925   0.57382   0.30632   0.00000  Uiso   1.00
H172   H     0.45613   0.21223   0.43881   0.00000  Uiso   1.00
H173   H     0.74790   0.66524   0.54481   0.00000  Uiso   1.00
H174   H     0.58127   0.68510   0.18377   0.00000  Uiso   1.00
H175   H     0.38492   0.92262   0.46316   0.00000  Uiso   1.00
O176   O     0.91852   0.62905   0.54647   0.00000  Uiso   1.00
O177   O     0.69991   0.65508   0.07280   0.00000  Uiso   1.00
O178   O     0.44230   0.65473   0.43935   0.00000  Uiso   1.00
N179   N     0.91412   0.47822   0.46699   0.00000  Uiso   1.00
N180   N     0.75835   0.49681   0.12943   0.00000  Uiso   1.00
N181   N     0.57477   0.78395   0.39062   0.00000  Uiso   1.00
N182   N     0.78977   0.59809   0.51473   0.00000  Uiso   1.00
N183   N     0.63400   0.61668   0.17718   0.00000  Uiso   1.00
N184   N     0.45042   0.90382   0.43837   0.00000  Uiso   1.00
