data_job_00237
_audit_creation_date              2018-12-19
_audit_creation_method            'Materials Studio'
_symmetry_space_group_name_H-M    'P1'
_symmetry_Int_Tables_number       1
_symmetry_cell_setting            triclinic
loop_
_symmetry_equiv_pos_as_xyz
  x,y,z
_cell_length_a                    16.8520
_cell_length_b                    16.8520
_cell_length_c                    17.7057
_cell_angle_alpha                 90.0000
_cell_angle_beta                  90.0000
_cell_angle_gamma                 90.0000
loop_
_atom_site_label
_atom_site_type_symbol
_atom_site_fract_x
_atom_site_fract_y
_atom_site_fract_z
_atom_site_U_iso_or_equiv
_atom_site_adp_type
_atom_site_occupancy
C1     C     0.66095   0.53143   0.57993   0.00000  Uiso   1.00
C2     C     0.65922   0.55280   0.66361   0.00000  Uiso   1.00
C3     C     0.60594   0.60429   0.69781   0.00000  Uiso   1.00
C4     C     0.61420   0.61601   0.77503   0.00000  Uiso   1.00
C5     C     0.60250   0.65506   0.89864   0.00000  Uiso   1.00
C6     C     0.74421   0.55175   0.55231   0.00000  Uiso   1.00
C7     C     0.76239   0.60234   0.49293   0.00000  Uiso   1.00
C8     C     0.84221   0.61317   0.47645   0.00000  Uiso   1.00
C9     C     0.96247   0.65054   0.42723   0.00000  Uiso   1.00
C10    C     0.65441   0.44127   0.57617   0.00000  Uiso   1.00
C11    C     0.59709   0.39897   0.53684   0.00000  Uiso   1.00
C12    C     0.60132   0.31677   0.54044   0.00000  Uiso   1.00
C13    C     0.58213   0.18261   0.52828   0.00000  Uiso   1.00
C14    C     0.77038   0.46068   0.65624   0.00000  Uiso   1.00
C15    C     0.71866   0.51437   0.70505   0.00000  Uiso   1.00
C16    C     0.72701   0.52601   0.78224   0.00000  Uiso   1.00
C17    C     0.67375   0.57751   0.81655   0.00000  Uiso   1.00
C18    C     0.80365   0.51332   0.59375   0.00000  Uiso   1.00
C19    C     0.88346   0.52407   0.57735   0.00000  Uiso   1.00
C20    C     0.90176   0.57467   0.51797   0.00000  Uiso   1.00
C21    C     0.71385   0.40284   0.61762   0.00000  Uiso   1.00
C22    C     0.71816   0.32069   0.62127   0.00000  Uiso   1.00
C23    C     0.66086   0.27827   0.58196   0.00000  Uiso   1.00
H24    H     0.61468   0.56135   0.54766   0.00000  Uiso   1.00
H25    H     0.55995   0.63403   0.66572   0.00000  Uiso   1.00
H26    H     0.71638   0.63207   0.46086   0.00000  Uiso   1.00
H27    H     0.55111   0.42873   0.50477   0.00000  Uiso   1.00
H28    H     0.52551   0.69767   0.81488   0.00000  Uiso   1.00
H29    H     0.85535   0.69353   0.38291   0.00000  Uiso   1.00
H30    H     0.50684   0.26474   0.47550   0.00000  Uiso   1.00
H31    H     0.81666   0.43076   0.68850   0.00000  Uiso   1.00
H32    H     0.77301   0.49627   0.81429   0.00000  Uiso   1.00
H33    H     0.92944   0.49431   0.60943   0.00000  Uiso   1.00
H34    H     0.76417   0.29097   0.65335   0.00000  Uiso   1.00
H35    H     0.69844   0.58586   0.93547   0.00000  Uiso   1.00
H36    H     0.02828   0.58172   0.50349   0.00000  Uiso   1.00
H37    H     0.67977   0.15293   0.59609   0.00000  Uiso   1.00
O38    O     0.57963   0.68723   0.95538   0.00000  Uiso   1.00
O39    O     0.01237   0.68179   0.38864   0.00000  Uiso   1.00
O40    O     0.55513   0.11923   0.51013   0.00000  Uiso   1.00
N41    N     0.57219   0.66235   0.82600   0.00000  Uiso   1.00
N42    N     0.88057   0.65849   0.42214   0.00000  Uiso   1.00
N43    N     0.55475   0.25761   0.50869   0.00000  Uiso   1.00
N44    N     0.66524   0.60219   0.89089   0.00000  Uiso   1.00
N45    N     0.97362   0.59833   0.48703   0.00000  Uiso   1.00
N46    N     0.64780   0.19745   0.57358   0.00000  Uiso   1.00
C47    C     0.33905   0.46857   0.07993   0.00000  Uiso   1.00
C48    C     0.34078   0.44720   0.16361   0.00000  Uiso   1.00
C49    C     0.39406   0.39571   0.19781   0.00000  Uiso   1.00
C50    C     0.38580   0.38399   0.27503   0.00000  Uiso   1.00
C51    C     0.39750   0.34494   0.39864   0.00000  Uiso   1.00
C52    C     0.25579   0.44825   0.05231   0.00000  Uiso   1.00
C53    C     0.23761   0.39766   0.99293   0.00000  Uiso   1.00
C54    C     0.15779   0.38683   0.97645   0.00000  Uiso   1.00
C55    C     0.03753   0.34946   0.92723   0.00000  Uiso   1.00
C56    C     0.34559   0.55873   0.07617   0.00000  Uiso   1.00
C57    C     0.40291   0.60103   0.03684   0.00000  Uiso   1.00
C58    C     0.39868   0.68323   0.04044   0.00000  Uiso   1.00
C59    C     0.41787   0.81739   0.02828   0.00000  Uiso   1.00
C60    C     0.22962   0.53932   0.15624   0.00000  Uiso   1.00
C61    C     0.28134   0.48563   0.20505   0.00000  Uiso   1.00
C62    C     0.27299   0.47399   0.28224   0.00000  Uiso   1.00
C63    C     0.32625   0.42249   0.31655   0.00000  Uiso   1.00
C64    C     0.19635   0.48668   0.09375   0.00000  Uiso   1.00
C65    C     0.11654   0.47593   0.07735   0.00000  Uiso   1.00
C66    C     0.09824   0.42533   0.01797   0.00000  Uiso   1.00
C67    C     0.28615   0.59716   0.11762   0.00000  Uiso   1.00
C68    C     0.28184   0.67931   0.12127   0.00000  Uiso   1.00
C69    C     0.33914   0.72173   0.08196   0.00000  Uiso   1.00
H70    H     0.38532   0.43865   0.04766   0.00000  Uiso   1.00
H71    H     0.44005   0.36597   0.16572   0.00000  Uiso   1.00
H72    H     0.28362   0.36793   0.96086   0.00000  Uiso   1.00
H73    H     0.44889   0.57127   0.00477   0.00000  Uiso   1.00
H74    H     0.47449   0.30233   0.31488   0.00000  Uiso   1.00
H75    H     0.14465   0.30647   0.88291   0.00000  Uiso   1.00
H76    H     0.49316   0.73526   0.97550   0.00000  Uiso   1.00
H77    H     0.18334   0.56924   0.18850   0.00000  Uiso   1.00
H78    H     0.22699   0.50373   0.31429   0.00000  Uiso   1.00
H79    H     0.07056   0.50569   0.10943   0.00000  Uiso   1.00
H80    H     0.23583   0.70903   0.15335   0.00000  Uiso   1.00
H81    H     0.30156   0.41414   0.43547   0.00000  Uiso   1.00
H82    H     0.97172   0.41828   0.00349   0.00000  Uiso   1.00
H83    H     0.32023   0.84707   0.09609   0.00000  Uiso   1.00
O84    O     0.42037   0.31277   0.45538   0.00000  Uiso   1.00
O85    O     0.98763   0.31821   0.88864   0.00000  Uiso   1.00
O86    O     0.44487   0.88077   0.01013   0.00000  Uiso   1.00
N87    N     0.42781   0.33765   0.32600   0.00000  Uiso   1.00
N88    N     0.11943   0.34151   0.92214   0.00000  Uiso   1.00
N89    N     0.44525   0.74239   0.00869   0.00000  Uiso   1.00
N90    N     0.33476   0.39781   0.39089   0.00000  Uiso   1.00
N91    N     0.02638   0.40167   0.98703   0.00000  Uiso   1.00
N92    N     0.35220   0.80255   0.07358   0.00000  Uiso   1.00
C93    C     0.96857   0.16095   0.32993   0.00000  Uiso   1.00
C94    C     0.94720   0.15922   0.41361   0.00000  Uiso   1.00
C95    C     0.89571   0.10594   0.44781   0.00000  Uiso   1.00
C96    C     0.88399   0.11420   0.52503   0.00000  Uiso   1.00
C97    C     0.84494   0.10250   0.64864   0.00000  Uiso   1.00
C98    C     0.94825   0.24421   0.30231   0.00000  Uiso   1.00
C99    C     0.89766   0.26239   0.24293   0.00000  Uiso   1.00
C100   C     0.88683   0.34221   0.22645   0.00000  Uiso   1.00
C101   C     0.84946   0.46247   0.17723   0.00000  Uiso   1.00
C102   C     0.05873   0.15441   0.32617   0.00000  Uiso   1.00
C103   C     0.10103   0.09709   0.28684   0.00000  Uiso   1.00
C104   C     0.18323   0.10132   0.29044   0.00000  Uiso   1.00
C105   C     0.31739   0.08213   0.27828   0.00000  Uiso   1.00
C106   C     0.03932   0.27038   0.40624   0.00000  Uiso   1.00
C107   C     0.98563   0.21866   0.45505   0.00000  Uiso   1.00
C108   C     0.97399   0.22701   0.53224   0.00000  Uiso   1.00
C109   C     0.92249   0.17375   0.56655   0.00000  Uiso   1.00
C110   C     0.98668   0.30365   0.34375   0.00000  Uiso   1.00
C111   C     0.97593   0.38346   0.32735   0.00000  Uiso   1.00
C112   C     0.92533   0.40176   0.26797   0.00000  Uiso   1.00
C113   C     0.09716   0.21385   0.36762   0.00000  Uiso   1.00
C114   C     0.17931   0.21816   0.37127   0.00000  Uiso   1.00
C115   C     0.22173   0.16086   0.33196   0.00000  Uiso   1.00
H116   H     0.93865   0.11468   0.29766   0.00000  Uiso   1.00
H117   H     0.86597   0.05995   0.41572   0.00000  Uiso   1.00
H118   H     0.86793   0.21638   0.21086   0.00000  Uiso   1.00
H119   H     0.07127   0.05111   0.25477   0.00000  Uiso   1.00
H120   H     0.80233   0.02551   0.56488   0.00000  Uiso   1.00
H121   H     0.80647   0.35535   0.13291   0.00000  Uiso   1.00
H122   H     0.23526   0.00684   0.22550   0.00000  Uiso   1.00
H123   H     0.06924   0.31666   0.43850   0.00000  Uiso   1.00
H124   H     0.00373   0.27301   0.56429   0.00000  Uiso   1.00
H125   H     0.00569   0.42944   0.35943   0.00000  Uiso   1.00
H126   H     0.20903   0.26417   0.40335   0.00000  Uiso   1.00
H127   H     0.91414   0.19844   0.68547   0.00000  Uiso   1.00
H128   H     0.91828   0.52828   0.25349   0.00000  Uiso   1.00
H129   H     0.34707   0.17977   0.34609   0.00000  Uiso   1.00
O130   O     0.81277   0.07963   0.70538   0.00000  Uiso   1.00
O131   O     0.81821   0.51237   0.13864   0.00000  Uiso   1.00
O132   O     0.38077   0.05513   0.26013   0.00000  Uiso   1.00
N133   N     0.83765   0.07219   0.57600   0.00000  Uiso   1.00
N134   N     0.84151   0.38057   0.17214   0.00000  Uiso   1.00
N135   N     0.24239   0.05475   0.25869   0.00000  Uiso   1.00
N136   N     0.89781   0.16524   0.64089   0.00000  Uiso   1.00
N137   N     0.90167   0.47362   0.23703   0.00000  Uiso   1.00
N138   N     0.30255   0.14780   0.32358   0.00000  Uiso   1.00
C139   C     0.03143   0.83905   0.82993   0.00000  Uiso   1.00
C140   C     0.05280   0.84078   0.91361   0.00000  Uiso   1.00
C141   C     0.10429   0.89406   0.94781   0.00000  Uiso   1.00
C142   C     0.11601   0.88580   0.02503   0.00000  Uiso   1.00
C143   C     0.15506   0.89750   0.14864   0.00000  Uiso   1.00
C144   C     0.05175   0.75579   0.80231   0.00000  Uiso   1.00
C145   C     0.10234   0.73761   0.74293   0.00000  Uiso   1.00
C146   C     0.11317   0.65779   0.72645   0.00000  Uiso   1.00
C147   C     0.15054   0.53753   0.67723   0.00000  Uiso   1.00
C148   C     0.94127   0.84559   0.82617   0.00000  Uiso   1.00
C149   C     0.89897   0.90291   0.78684   0.00000  Uiso   1.00
C150   C     0.81677   0.89868   0.79044   0.00000  Uiso   1.00
C151   C     0.68261   0.91787   0.77828   0.00000  Uiso   1.00
C152   C     0.96068   0.72962   0.90624   0.00000  Uiso   1.00
C153   C     0.01437   0.78134   0.95505   0.00000  Uiso   1.00
C154   C     0.02601   0.77299   0.03224   0.00000  Uiso   1.00
C155   C     0.07751   0.82625   0.06655   0.00000  Uiso   1.00
C156   C     0.01332   0.69635   0.84375   0.00000  Uiso   1.00
C157   C     0.02407   0.61654   0.82735   0.00000  Uiso   1.00
C158   C     0.07467   0.59824   0.76797   0.00000  Uiso   1.00
C159   C     0.90284   0.78615   0.86762   0.00000  Uiso   1.00
C160   C     0.82069   0.78184   0.87127   0.00000  Uiso   1.00
C161   C     0.77827   0.83914   0.83196   0.00000  Uiso   1.00
H162   H     0.06135   0.88532   0.79766   0.00000  Uiso   1.00
H163   H     0.13403   0.94005   0.91572   0.00000  Uiso   1.00
H164   H     0.13207   0.78362   0.71086   0.00000  Uiso   1.00
H165   H     0.92873   0.94889   0.75477   0.00000  Uiso   1.00
H166   H     0.19767   0.97449   0.06488   0.00000  Uiso   1.00
H167   H     0.19353   0.64465   0.63291   0.00000  Uiso   1.00
H168   H     0.76474   0.99316   0.72550   0.00000  Uiso   1.00
H169   H     0.93076   0.68334   0.93850   0.00000  Uiso   1.00
H170   H     0.99627   0.72699   0.06429   0.00000  Uiso   1.00
H171   H     0.99431   0.57056   0.85943   0.00000  Uiso   1.00
H172   H     0.79097   0.73583   0.90335   0.00000  Uiso   1.00
H173   H     0.08586   0.80156   0.18547   0.00000  Uiso   1.00
H174   H     0.08172   0.47172   0.75349   0.00000  Uiso   1.00
H175   H     0.65293   0.82023   0.84609   0.00000  Uiso   1.00
O176   O     0.18723   0.92037   0.20538   0.00000  Uiso   1.00
O177   O     0.18179   0.48763   0.63864   0.00000  Uiso   1.00
O178   O     0.61923   0.94487   0.76013   0.00000  Uiso   1.00
N179   N     0.16235   0.92781   0.07600   0.00000  Uiso   1.00
N180   N     0.15849   0.61943   0.67214   0.00000  Uiso   1.00
N181   N     0.75761   0.94525   0.75869   0.00000  Uiso   1.00
N182   N     0.10219   0.83476   0.14089   0.00000  Uiso   1.00
N183   N     0.09833   0.52638   0.73703   0.00000  Uiso   1.00
N184   N     0.69745   0.85220   0.82358   0.00000  Uiso   1.00
C185   C     0.83905   0.03143   0.17007   0.00000  Uiso   1.00
C186   C     0.84078   0.05280   0.08639   0.00000  Uiso   1.00
C187   C     0.89406   0.10429   0.05219   0.00000  Uiso   1.00
C188   C     0.88580   0.11601   0.97497   0.00000  Uiso   1.00
C189   C     0.89750   0.15506   0.85136   0.00000  Uiso   1.00
C190   C     0.75579   0.05175   0.19769   0.00000  Uiso   1.00
C191   C     0.73761   0.10234   0.25707   0.00000  Uiso   1.00
C192   C     0.65779   0.11317   0.27355   0.00000  Uiso   1.00
C193   C     0.53753   0.15054   0.32277   0.00000  Uiso   1.00
C194   C     0.84559   0.94127   0.17383   0.00000  Uiso   1.00
C195   C     0.90291   0.89897   0.21316   0.00000  Uiso   1.00
C196   C     0.89868   0.81677   0.20956   0.00000  Uiso   1.00
C197   C     0.91787   0.68261   0.22172   0.00000  Uiso   1.00
C198   C     0.72962   0.96068   0.09376   0.00000  Uiso   1.00
C199   C     0.78134   0.01437   0.04495   0.00000  Uiso   1.00
C200   C     0.77299   0.02601   0.96776   0.00000  Uiso   1.00
C201   C     0.82625   0.07751   0.93345   0.00000  Uiso   1.00
C202   C     0.69635   0.01332   0.15625   0.00000  Uiso   1.00
C203   C     0.61654   0.02407   0.17265   0.00000  Uiso   1.00
C204   C     0.59824   0.07467   0.23203   0.00000  Uiso   1.00
C205   C     0.78615   0.90284   0.13238   0.00000  Uiso   1.00
C206   C     0.78184   0.82069   0.12873   0.00000  Uiso   1.00
C207   C     0.83914   0.77827   0.16804   0.00000  Uiso   1.00
H208   H     0.88532   0.06135   0.20234   0.00000  Uiso   1.00
H209   H     0.94005   0.13403   0.08428   0.00000  Uiso   1.00
H210   H     0.78362   0.13207   0.28914   0.00000  Uiso   1.00
H211   H     0.94889   0.92873   0.24523   0.00000  Uiso   1.00
H212   H     0.97449   0.19767   0.93512   0.00000  Uiso   1.00
H213   H     0.64465   0.19353   0.36709   0.00000  Uiso   1.00
H214   H     0.99316   0.76474   0.27450   0.00000  Uiso   1.00
H215   H     0.68334   0.93076   0.06150   0.00000  Uiso   1.00
H216   H     0.72699   0.99627   0.93571   0.00000  Uiso   1.00
H217   H     0.57056   0.99431   0.14057   0.00000  Uiso   1.00
H218   H     0.73583   0.79097   0.09665   0.00000  Uiso   1.00
H219   H     0.80156   0.08586   0.81453   0.00000  Uiso   1.00
H220   H     0.47172   0.08172   0.24651   0.00000  Uiso   1.00
H221   H     0.82023   0.65293   0.15391   0.00000  Uiso   1.00
O222   O     0.92037   0.18723   0.79462   0.00000  Uiso   1.00
O223   O     0.48763   0.18179   0.36136   0.00000  Uiso   1.00
O224   O     0.94487   0.61923   0.23987   0.00000  Uiso   1.00
N225   N     0.92781   0.16235   0.92400   0.00000  Uiso   1.00
N226   N     0.61943   0.15849   0.32786   0.00000  Uiso   1.00
N227   N     0.94525   0.75761   0.24131   0.00000  Uiso   1.00
N228   N     0.83476   0.10219   0.85911   0.00000  Uiso   1.00
N229   N     0.52638   0.09833   0.26297   0.00000  Uiso   1.00
N230   N     0.85220   0.69745   0.17642   0.00000  Uiso   1.00
C231   C     0.16095   0.96857   0.67007   0.00000  Uiso   1.00
C232   C     0.15922   0.94720   0.58639   0.00000  Uiso   1.00
C233   C     0.10594   0.89571   0.55219   0.00000  Uiso   1.00
C234   C     0.11420   0.88399   0.47497   0.00000  Uiso   1.00
C235   C     0.10250   0.84494   0.35136   0.00000  Uiso   1.00
C236   C     0.24421   0.94825   0.69769   0.00000  Uiso   1.00
C237   C     0.26239   0.89766   0.75707   0.00000  Uiso   1.00
C238   C     0.34221   0.88683   0.77355   0.00000  Uiso   1.00
C239   C     0.46247   0.84946   0.82277   0.00000  Uiso   1.00
C240   C     0.15441   0.05873   0.67383   0.00000  Uiso   1.00
C241   C     0.09709   0.10103   0.71316   0.00000  Uiso   1.00
C242   C     0.10132   0.18323   0.70956   0.00000  Uiso   1.00
C243   C     0.08213   0.31739   0.72172   0.00000  Uiso   1.00
C244   C     0.27038   0.03932   0.59376   0.00000  Uiso   1.00
C245   C     0.21866   0.98563   0.54495   0.00000  Uiso   1.00
C246   C     0.22701   0.97399   0.46776   0.00000  Uiso   1.00
C247   C     0.17375   0.92249   0.43345   0.00000  Uiso   1.00
C248   C     0.30365   0.98668   0.65625   0.00000  Uiso   1.00
C249   C     0.38346   0.97593   0.67265   0.00000  Uiso   1.00
C250   C     0.40176   0.92533   0.73203   0.00000  Uiso   1.00
C251   C     0.21385   0.09716   0.63238   0.00000  Uiso   1.00
C252   C     0.21816   0.17931   0.62873   0.00000  Uiso   1.00
C253   C     0.16086   0.22173   0.66804   0.00000  Uiso   1.00
H254   H     0.11468   0.93865   0.70234   0.00000  Uiso   1.00
H255   H     0.05995   0.86597   0.58428   0.00000  Uiso   1.00
H256   H     0.21638   0.86793   0.78914   0.00000  Uiso   1.00
H257   H     0.05111   0.07127   0.74523   0.00000  Uiso   1.00
H258   H     0.02551   0.80233   0.43512   0.00000  Uiso   1.00
H259   H     0.35535   0.80647   0.86709   0.00000  Uiso   1.00
H260   H     0.00684   0.23526   0.77450   0.00000  Uiso   1.00
H261   H     0.31666   0.06924   0.56150   0.00000  Uiso   1.00
H262   H     0.27301   0.00373   0.43571   0.00000  Uiso   1.00
H263   H     0.42944   0.00569   0.64057   0.00000  Uiso   1.00
H264   H     0.26417   0.20903   0.59665   0.00000  Uiso   1.00
H265   H     0.19844   0.91414   0.31453   0.00000  Uiso   1.00
H266   H     0.52828   0.91828   0.74651   0.00000  Uiso   1.00
H267   H     0.17977   0.34707   0.65391   0.00000  Uiso   1.00
O268   O     0.07963   0.81277   0.29462   0.00000  Uiso   1.00
O269   O     0.51237   0.81821   0.86136   0.00000  Uiso   1.00
O270   O     0.05513   0.38077   0.73987   0.00000  Uiso   1.00
N271   N     0.07219   0.83765   0.42400   0.00000  Uiso   1.00
N272   N     0.38057   0.84151   0.82786   0.00000  Uiso   1.00
N273   N     0.05475   0.24239   0.74131   0.00000  Uiso   1.00
N274   N     0.16524   0.89781   0.35911   0.00000  Uiso   1.00
N275   N     0.47362   0.90167   0.76297   0.00000  Uiso   1.00
N276   N     0.14780   0.30255   0.67642   0.00000  Uiso   1.00
C277   C     0.53143   0.66095   0.42007   0.00000  Uiso   1.00
C278   C     0.55280   0.65922   0.33639   0.00000  Uiso   1.00
C279   C     0.60429   0.60594   0.30219   0.00000  Uiso   1.00
C280   C     0.61601   0.61420   0.22497   0.00000  Uiso   1.00
C281   C     0.65506   0.60250   0.10136   0.00000  Uiso   1.00
C282   C     0.55175   0.74421   0.44769   0.00000  Uiso   1.00
C283   C     0.60234   0.76239   0.50707   0.00000  Uiso   1.00
C284   C     0.61317   0.84221   0.52355   0.00000  Uiso   1.00
C285   C     0.65054   0.96247   0.57277   0.00000  Uiso   1.00
C286   C     0.44127   0.65441   0.42383   0.00000  Uiso   1.00
C287   C     0.39897   0.59709   0.46316   0.00000  Uiso   1.00
C288   C     0.31677   0.60132   0.45956   0.00000  Uiso   1.00
C289   C     0.18261   0.58213   0.47172   0.00000  Uiso   1.00
C290   C     0.46068   0.77038   0.34376   0.00000  Uiso   1.00
C291   C     0.51437   0.71866   0.29495   0.00000  Uiso   1.00
C292   C     0.52601   0.72701   0.21776   0.00000  Uiso   1.00
C293   C     0.57751   0.67375   0.18345   0.00000  Uiso   1.00
C294   C     0.51332   0.80365   0.40625   0.00000  Uiso   1.00
C295   C     0.52407   0.88346   0.42265   0.00000  Uiso   1.00
C296   C     0.57467   0.90176   0.48203   0.00000  Uiso   1.00
C297   C     0.40284   0.71385   0.38238   0.00000  Uiso   1.00
C298   C     0.32069   0.71816   0.37873   0.00000  Uiso   1.00
C299   C     0.27827   0.66086   0.41804   0.00000  Uiso   1.00
H300   H     0.56135   0.61468   0.45234   0.00000  Uiso   1.00
H301   H     0.63403   0.55995   0.33428   0.00000  Uiso   1.00
H302   H     0.63207   0.71638   0.53914   0.00000  Uiso   1.00
H303   H     0.42873   0.55111   0.49523   0.00000  Uiso   1.00
H304   H     0.69767   0.52551   0.18512   0.00000  Uiso   1.00
H305   H     0.69353   0.85535   0.61709   0.00000  Uiso   1.00
H306   H     0.26474   0.50684   0.52450   0.00000  Uiso   1.00
H307   H     0.43076   0.81666   0.31150   0.00000  Uiso   1.00
H308   H     0.49627   0.77301   0.18571   0.00000  Uiso   1.00
H309   H     0.49431   0.92944   0.39057   0.00000  Uiso   1.00
H310   H     0.29097   0.76417   0.34665   0.00000  Uiso   1.00
H311   H     0.58586   0.69844   0.06453   0.00000  Uiso   1.00
H312   H     0.58172   0.02828   0.49651   0.00000  Uiso   1.00
H313   H     0.15293   0.67977   0.40391   0.00000  Uiso   1.00
O314   O     0.68723   0.57963   0.04462   0.00000  Uiso   1.00
O315   O     0.68179   0.01237   0.61136   0.00000  Uiso   1.00
O316   O     0.11923   0.55513   0.48987   0.00000  Uiso   1.00
N317   N     0.66235   0.57219   0.17400   0.00000  Uiso   1.00
N318   N     0.65849   0.88057   0.57786   0.00000  Uiso   1.00
N319   N     0.25761   0.55475   0.49131   0.00000  Uiso   1.00
N320   N     0.60219   0.66524   0.10911   0.00000  Uiso   1.00
N321   N     0.59833   0.97362   0.51297   0.00000  Uiso   1.00
N322   N     0.19745   0.64780   0.42642   0.00000  Uiso   1.00
C323   C     0.46857   0.33905   0.92007   0.00000  Uiso   1.00
C324   C     0.44720   0.34078   0.83639   0.00000  Uiso   1.00
C325   C     0.39571   0.39406   0.80219   0.00000  Uiso   1.00
C326   C     0.38399   0.38580   0.72497   0.00000  Uiso   1.00
C327   C     0.34494   0.39750   0.60136   0.00000  Uiso   1.00
C328   C     0.44825   0.25579   0.94769   0.00000  Uiso   1.00
C329   C     0.39766   0.23761   0.00707   0.00000  Uiso   1.00
C330   C     0.38683   0.15779   0.02355   0.00000  Uiso   1.00
C331   C     0.34946   0.03753   0.07277   0.00000  Uiso   1.00
C332   C     0.55873   0.34559   0.92383   0.00000  Uiso   1.00
C333   C     0.60103   0.40291   0.96316   0.00000  Uiso   1.00
C334   C     0.68323   0.39868   0.95956   0.00000  Uiso   1.00
C335   C     0.81739   0.41787   0.97172   0.00000  Uiso   1.00
C336   C     0.53932   0.22962   0.84376   0.00000  Uiso   1.00
C337   C     0.48563   0.28134   0.79495   0.00000  Uiso   1.00
C338   C     0.47399   0.27299   0.71776   0.00000  Uiso   1.00
C339   C     0.42249   0.32625   0.68345   0.00000  Uiso   1.00
C340   C     0.48668   0.19635   0.90625   0.00000  Uiso   1.00
C341   C     0.47593   0.11654   0.92265   0.00000  Uiso   1.00
C342   C     0.42533   0.09824   0.98203   0.00000  Uiso   1.00
C343   C     0.59716   0.28615   0.88238   0.00000  Uiso   1.00
C344   C     0.67931   0.28184   0.87873   0.00000  Uiso   1.00
C345   C     0.72173   0.33914   0.91804   0.00000  Uiso   1.00
H346   H     0.43865   0.38532   0.95234   0.00000  Uiso   1.00
H347   H     0.36597   0.44005   0.83428   0.00000  Uiso   1.00
H348   H     0.36793   0.28362   0.03914   0.00000  Uiso   1.00
H349   H     0.57127   0.44889   0.99523   0.00000  Uiso   1.00
H350   H     0.30233   0.47449   0.68512   0.00000  Uiso   1.00
H351   H     0.30647   0.14465   0.11709   0.00000  Uiso   1.00
H352   H     0.73526   0.49316   0.02450   0.00000  Uiso   1.00
H353   H     0.56924   0.18334   0.81150   0.00000  Uiso   1.00
H354   H     0.50373   0.22699   0.68571   0.00000  Uiso   1.00
H355   H     0.50569   0.07056   0.89057   0.00000  Uiso   1.00
H356   H     0.70903   0.23583   0.84665   0.00000  Uiso   1.00
H357   H     0.41414   0.30156   0.56453   0.00000  Uiso   1.00
H358   H     0.41828   0.97172   0.99651   0.00000  Uiso   1.00
H359   H     0.84707   0.32023   0.90391   0.00000  Uiso   1.00
O360   O     0.31277   0.42037   0.54462   0.00000  Uiso   1.00
O361   O     0.31821   0.98763   0.11136   0.00000  Uiso   1.00
O362   O     0.88077   0.44487   0.98987   0.00000  Uiso   1.00
N363   N     0.33765   0.42781   0.67400   0.00000  Uiso   1.00
N364   N     0.34151   0.11943   0.07786   0.00000  Uiso   1.00
N365   N     0.74239   0.44525   0.99131   0.00000  Uiso   1.00
N366   N     0.39781   0.33476   0.60911   0.00000  Uiso   1.00
N367   N     0.40167   0.02638   0.01297   0.00000  Uiso   1.00
N368   N     0.80255   0.35220   0.92642   0.00000  Uiso   1.00
