data_job_04915
_audit_creation_date              2018-12-19
_audit_creation_method            'Materials Studio'
_symmetry_space_group_name_H-M    'P1'
_symmetry_Int_Tables_number       1
_symmetry_cell_setting            triclinic
loop_
_symmetry_equiv_pos_as_xyz
  x,y,z
_cell_length_a                    20.4275
_cell_length_b                    8.2936
_cell_length_c                    17.3519
_cell_angle_alpha                 90.0000
_cell_angle_beta                  125.3760
_cell_angle_gamma                 90.0000
loop_
_atom_site_label
_atom_site_type_symbol
_atom_site_fract_x
_atom_site_fract_y
_atom_site_fract_z
_atom_site_U_iso_or_equiv
_atom_site_adp_type
_atom_site_occupancy
C1     C     0.30497   0.79190   0.68892   0.00000  Uiso   1.00
C2     C     0.36660   0.92365   0.74699   0.00000  Uiso   1.00
C3     C     0.43852   0.90343   0.83520   0.00000  Uiso   1.00
C4     C     0.48663   0.03891   0.87670   0.00000  Uiso   1.00
C5     C     0.58582   0.22066   0.97375   0.00000  Uiso   1.00
C6     C     0.22598   0.85194   0.66903   0.00000  Uiso   1.00
C7     C     0.17968   0.77139   0.69169   0.00000  Uiso   1.00
C8     C     0.10941   0.84650   0.66756   0.00000  Uiso   1.00
C9     C     0.99026   0.91684   0.64352   0.00000  Uiso   1.00
C10    C     0.29321   0.78966   0.59377   0.00000  Uiso   1.00
C11    C     0.30342   0.65674   0.55313   0.00000  Uiso   1.00
C12    C     0.28973   0.67941   0.46562   0.00000  Uiso   1.00
C13    C     0.27497   0.65306   0.32472   0.00000  Uiso   1.00
C14    C     0.26250   0.06849   0.60576   0.00000  Uiso   1.00
C15    C     0.34353   0.07389   0.70181   0.00000  Uiso   1.00
C16    C     0.39154   0.20944   0.74319   0.00000  Uiso   1.00
C17    C     0.46353   0.18942   0.83145   0.00000  Uiso   1.00
C18    C     0.20291   0.00216   0.62386   0.00000  Uiso   1.00
C19    C     0.13270   0.07741   0.59968   0.00000  Uiso   1.00
C20    C     0.08630   0.99700   0.62231   0.00000  Uiso   1.00
C21    C     0.27015   0.93989   0.54860   0.00000  Uiso   1.00
C22    C     0.25644   0.96277   0.46113   0.00000  Uiso   1.00
C23    C     0.26663   0.82991   0.42037   0.00000  Uiso   1.00
H24    H     0.32292   0.67494   0.72409   0.00000  Uiso   1.00
H25    H     0.45635   0.78714   0.87014   0.00000  Uiso   1.00
H26    H     0.19754   0.65512   0.72664   0.00000  Uiso   1.00
H27    H     0.32127   0.54050   0.58811   0.00000  Uiso   1.00
H28    H     0.59410   0.97781   0.01216   0.00000  Uiso   1.00
H29    H     0.04837   0.69941   0.70955   0.00000  Uiso   1.00
H30    H     0.30927   0.45770   0.41743   0.00000  Uiso   1.00
H31    H     0.24454   0.18546   0.57059   0.00000  Uiso   1.00
H32    H     0.37368   0.32569   0.70822   0.00000  Uiso   1.00
H33    H     0.11486   0.19366   0.56472   0.00000  Uiso   1.00
H34    H     0.23859   0.07904   0.42619   0.00000  Uiso   1.00
H35    H     0.52699   0.41492   0.88074   0.00000  Uiso   1.00
H36    H     0.98126   0.13651   0.57813   0.00000  Uiso   1.00
H37    H     0.24216   0.89481   0.28601   0.00000  Uiso   1.00
O38    O     0.64690   0.27941   0.03977   0.00000  Uiso   1.00
O39    O     0.93092   0.91414   0.64275   0.00000  Uiso   1.00
O40    O     0.27321   0.59703   0.25949   0.00000  Uiso   1.00
N41    N     0.56059   0.06143   0.96233   0.00000  Uiso   1.00
N42    N     0.05037   0.80116   0.67943   0.00000  Uiso   1.00
N43    N     0.29427   0.57517   0.40631   0.00000  Uiso   1.00
N44    N     0.52448   0.29664   0.89162   0.00000  Uiso   1.00
N45    N     0.01427   0.03636   0.60871   0.00000  Uiso   1.00
N46    N     0.25816   0.81037   0.33559   0.00000  Uiso   1.00
C47    C     0.69503   0.79190   0.81108   0.00000  Uiso   1.00
C48    C     0.63340   0.92365   0.75301   0.00000  Uiso   1.00
C49    C     0.56148   0.90343   0.66480   0.00000  Uiso   1.00
C50    C     0.51337   0.03891   0.62330   0.00000  Uiso   1.00
C51    C     0.41418   0.22066   0.52625   0.00000  Uiso   1.00
C52    C     0.77402   0.85194   0.83097   0.00000  Uiso   1.00
C53    C     0.82032   0.77139   0.80831   0.00000  Uiso   1.00
C54    C     0.89059   0.84650   0.83244   0.00000  Uiso   1.00
C55    C     0.00974   0.91684   0.85648   0.00000  Uiso   1.00
C56    C     0.70679   0.78966   0.90623   0.00000  Uiso   1.00
C57    C     0.69658   0.65674   0.94687   0.00000  Uiso   1.00
C58    C     0.71027   0.67941   0.03438   0.00000  Uiso   1.00
C59    C     0.72503   0.65306   0.17528   0.00000  Uiso   1.00
C60    C     0.73750   0.06849   0.89424   0.00000  Uiso   1.00
C61    C     0.65647   0.07389   0.79819   0.00000  Uiso   1.00
C62    C     0.60846   0.20944   0.75681   0.00000  Uiso   1.00
C63    C     0.53647   0.18942   0.66855   0.00000  Uiso   1.00
C64    C     0.79709   0.00216   0.87614   0.00000  Uiso   1.00
C65    C     0.86730   0.07741   0.90032   0.00000  Uiso   1.00
C66    C     0.91370   0.99700   0.87769   0.00000  Uiso   1.00
C67    C     0.72985   0.93989   0.95140   0.00000  Uiso   1.00
C68    C     0.74356   0.96277   0.03887   0.00000  Uiso   1.00
C69    C     0.73337   0.82991   0.07963   0.00000  Uiso   1.00
H70    H     0.67708   0.67494   0.77591   0.00000  Uiso   1.00
H71    H     0.54365   0.78714   0.62986   0.00000  Uiso   1.00
H72    H     0.80246   0.65512   0.77336   0.00000  Uiso   1.00
H73    H     0.67873   0.54050   0.91189   0.00000  Uiso   1.00
H74    H     0.40590   0.97781   0.48784   0.00000  Uiso   1.00
H75    H     0.95163   0.69941   0.79045   0.00000  Uiso   1.00
H76    H     0.69073   0.45770   0.08257   0.00000  Uiso   1.00
H77    H     0.75546   0.18546   0.92941   0.00000  Uiso   1.00
H78    H     0.62632   0.32569   0.79178   0.00000  Uiso   1.00
H79    H     0.88514   0.19366   0.93528   0.00000  Uiso   1.00
H80    H     0.76141   0.07904   0.07381   0.00000  Uiso   1.00
H81    H     0.47301   0.41492   0.61926   0.00000  Uiso   1.00
H82    H     0.01874   0.13651   0.92187   0.00000  Uiso   1.00
H83    H     0.75784   0.89481   0.21399   0.00000  Uiso   1.00
O84    O     0.35310   0.27941   0.46023   0.00000  Uiso   1.00
O85    O     0.06908   0.91414   0.85725   0.00000  Uiso   1.00
O86    O     0.72679   0.59703   0.24051   0.00000  Uiso   1.00
N87    N     0.43941   0.06143   0.53767   0.00000  Uiso   1.00
N88    N     0.94963   0.80116   0.82057   0.00000  Uiso   1.00
N89    N     0.70573   0.57517   0.09369   0.00000  Uiso   1.00
N90    N     0.47552   0.29664   0.60838   0.00000  Uiso   1.00
N91    N     0.98573   0.03636   0.89129   0.00000  Uiso   1.00
N92    N     0.74184   0.81037   0.16441   0.00000  Uiso   1.00
C93    C     0.69503   0.20810   0.31108   0.00000  Uiso   1.00
C94    C     0.63340   0.07635   0.25301   0.00000  Uiso   1.00
C95    C     0.56148   0.09657   0.16480   0.00000  Uiso   1.00
C96    C     0.51337   0.96109   0.12330   0.00000  Uiso   1.00
C97    C     0.41418   0.77934   0.02625   0.00000  Uiso   1.00
C98    C     0.77402   0.14806   0.33097   0.00000  Uiso   1.00
C99    C     0.82032   0.22861   0.30831   0.00000  Uiso   1.00
C100   C     0.89059   0.15350   0.33244   0.00000  Uiso   1.00
C101   C     0.00974   0.08316   0.35648   0.00000  Uiso   1.00
C102   C     0.70679   0.21034   0.40623   0.00000  Uiso   1.00
C103   C     0.69658   0.34326   0.44687   0.00000  Uiso   1.00
C104   C     0.71027   0.32059   0.53438   0.00000  Uiso   1.00
C105   C     0.72503   0.34694   0.67528   0.00000  Uiso   1.00
C106   C     0.73750   0.93151   0.39424   0.00000  Uiso   1.00
C107   C     0.65647   0.92611   0.29819   0.00000  Uiso   1.00
C108   C     0.60846   0.79056   0.25681   0.00000  Uiso   1.00
C109   C     0.53647   0.81058   0.16855   0.00000  Uiso   1.00
C110   C     0.79709   0.99784   0.37614   0.00000  Uiso   1.00
C111   C     0.86730   0.92259   0.40032   0.00000  Uiso   1.00
C112   C     0.91370   0.00300   0.37769   0.00000  Uiso   1.00
C113   C     0.72985   0.06011   0.45140   0.00000  Uiso   1.00
C114   C     0.74356   0.03723   0.53887   0.00000  Uiso   1.00
C115   C     0.73337   0.17009   0.57963   0.00000  Uiso   1.00
H116   H     0.67708   0.32506   0.27591   0.00000  Uiso   1.00
H117   H     0.54365   0.21286   0.12986   0.00000  Uiso   1.00
H118   H     0.80246   0.34488   0.27336   0.00000  Uiso   1.00
H119   H     0.67873   0.45950   0.41189   0.00000  Uiso   1.00
H120   H     0.40590   0.02219   0.98784   0.00000  Uiso   1.00
H121   H     0.95163   0.30059   0.29045   0.00000  Uiso   1.00
H122   H     0.69073   0.54230   0.58257   0.00000  Uiso   1.00
H123   H     0.75546   0.81454   0.42941   0.00000  Uiso   1.00
H124   H     0.62632   0.67431   0.29178   0.00000  Uiso   1.00
H125   H     0.88514   0.80634   0.43528   0.00000  Uiso   1.00
H126   H     0.76141   0.92096   0.57381   0.00000  Uiso   1.00
H127   H     0.47301   0.58508   0.11926   0.00000  Uiso   1.00
H128   H     0.01874   0.86349   0.42187   0.00000  Uiso   1.00
H129   H     0.75784   0.10519   0.71399   0.00000  Uiso   1.00
O130   O     0.35310   0.72059   0.96023   0.00000  Uiso   1.00
O131   O     0.06908   0.08586   0.35725   0.00000  Uiso   1.00
O132   O     0.72679   0.40297   0.74051   0.00000  Uiso   1.00
N133   N     0.43941   0.93857   0.03767   0.00000  Uiso   1.00
N134   N     0.94963   0.19884   0.32057   0.00000  Uiso   1.00
N135   N     0.70573   0.42483   0.59369   0.00000  Uiso   1.00
N136   N     0.47552   0.70336   0.10838   0.00000  Uiso   1.00
N137   N     0.98573   0.96364   0.39129   0.00000  Uiso   1.00
N138   N     0.74184   0.18963   0.66441   0.00000  Uiso   1.00
C139   C     0.30497   0.20810   0.18892   0.00000  Uiso   1.00
C140   C     0.36660   0.07635   0.24699   0.00000  Uiso   1.00
C141   C     0.43852   0.09657   0.33520   0.00000  Uiso   1.00
C142   C     0.48663   0.96109   0.37670   0.00000  Uiso   1.00
C143   C     0.58582   0.77934   0.47375   0.00000  Uiso   1.00
C144   C     0.22598   0.14806   0.16903   0.00000  Uiso   1.00
C145   C     0.17968   0.22861   0.19169   0.00000  Uiso   1.00
C146   C     0.10941   0.15350   0.16756   0.00000  Uiso   1.00
C147   C     0.99026   0.08316   0.14352   0.00000  Uiso   1.00
C148   C     0.29321   0.21034   0.09377   0.00000  Uiso   1.00
C149   C     0.30342   0.34326   0.05313   0.00000  Uiso   1.00
C150   C     0.28973   0.32059   0.96562   0.00000  Uiso   1.00
C151   C     0.27497   0.34694   0.82472   0.00000  Uiso   1.00
C152   C     0.26250   0.93151   0.10576   0.00000  Uiso   1.00
C153   C     0.34353   0.92611   0.20181   0.00000  Uiso   1.00
C154   C     0.39154   0.79056   0.24319   0.00000  Uiso   1.00
C155   C     0.46353   0.81058   0.33145   0.00000  Uiso   1.00
C156   C     0.20291   0.99784   0.12386   0.00000  Uiso   1.00
C157   C     0.13270   0.92259   0.09968   0.00000  Uiso   1.00
C158   C     0.08630   0.00300   0.12231   0.00000  Uiso   1.00
C159   C     0.27015   0.06011   0.04860   0.00000  Uiso   1.00
C160   C     0.25644   0.03723   0.96113   0.00000  Uiso   1.00
C161   C     0.26663   0.17009   0.92037   0.00000  Uiso   1.00
H162   H     0.32292   0.32506   0.22409   0.00000  Uiso   1.00
H163   H     0.45635   0.21286   0.37014   0.00000  Uiso   1.00
H164   H     0.19754   0.34488   0.22664   0.00000  Uiso   1.00
H165   H     0.32127   0.45950   0.08811   0.00000  Uiso   1.00
H166   H     0.59410   0.02219   0.51216   0.00000  Uiso   1.00
H167   H     0.04837   0.30059   0.20955   0.00000  Uiso   1.00
H168   H     0.30927   0.54230   0.91743   0.00000  Uiso   1.00
H169   H     0.24454   0.81454   0.07059   0.00000  Uiso   1.00
H170   H     0.37368   0.67431   0.20822   0.00000  Uiso   1.00
H171   H     0.11486   0.80634   0.06472   0.00000  Uiso   1.00
H172   H     0.23859   0.92096   0.92619   0.00000  Uiso   1.00
H173   H     0.52699   0.58508   0.38074   0.00000  Uiso   1.00
H174   H     0.98126   0.86349   0.07813   0.00000  Uiso   1.00
H175   H     0.24216   0.10519   0.78601   0.00000  Uiso   1.00
O176   O     0.64690   0.72059   0.53977   0.00000  Uiso   1.00
O177   O     0.93092   0.08586   0.14275   0.00000  Uiso   1.00
O178   O     0.27321   0.40297   0.75949   0.00000  Uiso   1.00
N179   N     0.56059   0.93857   0.46233   0.00000  Uiso   1.00
N180   N     0.05037   0.19884   0.17943   0.00000  Uiso   1.00
N181   N     0.29427   0.42483   0.90631   0.00000  Uiso   1.00
N182   N     0.52448   0.70336   0.39162   0.00000  Uiso   1.00
N183   N     0.01427   0.96364   0.10871   0.00000  Uiso   1.00
N184   N     0.25816   0.18963   0.83559   0.00000  Uiso   1.00
