data_job_04481
_audit_creation_date              2018-12-19
_audit_creation_method            'Materials Studio'
_symmetry_space_group_name_H-M    'P1'
_symmetry_Int_Tables_number       1
_symmetry_cell_setting            triclinic
loop_
_symmetry_equiv_pos_as_xyz
  x,y,z
_cell_length_a                    12.4182
_cell_length_b                    14.0853
_cell_length_c                    15.4848
_cell_angle_alpha                 107.9266
_cell_angle_beta                  100.6060
_cell_angle_gamma                 95.6435
loop_
_atom_site_label
_atom_site_type_symbol
_atom_site_fract_x
_atom_site_fract_y
_atom_site_fract_z
_atom_site_U_iso_or_equiv
_atom_site_adp_type
_atom_site_occupancy
C1     C     0.22037   0.97374   0.37272   0.00000  Uiso   1.00
C2     C     0.19771   0.86152   0.36079   0.00000  Uiso   1.00
C3     C     0.23042   0.81884   0.42909   0.00000  Uiso   1.00
C4     C     0.20166   0.71467   0.40436   0.00000  Uiso   1.00
C5     C     0.17556   0.54943   0.39949   0.00000  Uiso   1.00
C6     C     0.28129   0.98137   0.29752   0.00000  Uiso   1.00
C7     C     0.38427   0.03949   0.31262   0.00000  Uiso   1.00
C8     C     0.42586   0.03623   0.23462   0.00000  Uiso   1.00
C9     C     0.52948   0.05713   0.13151   0.00000  Uiso   1.00
C10    C     0.10725   0.00355   0.34652   0.00000  Uiso   1.00
C11    C     0.06390   0.08032   0.40281   0.00000  Uiso   1.00
C12    C     0.95896   0.09575   0.36606   0.00000  Uiso   1.00
C13    C     0.79235   0.15107   0.33904   0.00000  Uiso   1.00
C14    C     0.11113   0.86463   0.20735   0.00000  Uiso   1.00
C15    C     0.13838   0.80226   0.27097   0.00000  Uiso   1.00
C16    C     0.10956   0.69813   0.24613   0.00000  Uiso   1.00
C17    C     0.14222   0.65530   0.31438   0.00000  Uiso   1.00
C18    C     0.22196   0.92212   0.20770   0.00000  Uiso   1.00
C19    C     0.26341   0.91877   0.12966   0.00000  Uiso   1.00
C20    C     0.36642   0.97686   0.14464   0.00000  Uiso   1.00
C21    C     0.04791   0.94428   0.25670   0.00000  Uiso   1.00
C22    C     0.94303   0.95960   0.21986   0.00000  Uiso   1.00
C23    C     0.89952   0.03638   0.27608   0.00000  Uiso   1.00
H24    H     0.26657   0.01987   0.44264   0.00000  Uiso   1.00
H25    H     0.27635   0.86473   0.49859   0.00000  Uiso   1.00
H26    H     0.43016   0.08535   0.38213   0.00000  Uiso   1.00
H27    H     0.10984   0.12616   0.47232   0.00000  Uiso   1.00
H28    H     0.26106   0.66658   0.52099   0.00000  Uiso   1.00
H29    H     0.58536   0.13179   0.27544   0.00000  Uiso   1.00
H30    H     0.90990   0.21787   0.46560   0.00000  Uiso   1.00
H31    H     0.06494   0.81849   0.13742   0.00000  Uiso   1.00
H32    H     0.06365   0.65229   0.17662   0.00000  Uiso   1.00
H33    H     0.21746   0.87291   0.06016   0.00000  Uiso   1.00
H34    H     0.89714   0.91373   0.15035   0.00000  Uiso   1.00
H35    H     0.08843   0.49415   0.25966   0.00000  Uiso   1.00
H36    H     0.41273   0.95937   0.01411   0.00000  Uiso   1.00
H37    H     0.73727   0.04545   0.20428   0.00000  Uiso   1.00
O38    O     0.17757   0.47466   0.42161   0.00000  Uiso   1.00
O39    O     0.60303   0.08502   0.09945   0.00000  Uiso   1.00
O40    O     0.71684   0.19795   0.34895   0.00000  Uiso   1.00
N41    N     0.22059   0.64881   0.45411   0.00000  Uiso   1.00
N42    N     0.52380   0.08375   0.22454   0.00000  Uiso   1.00
N43    N     0.89231   0.16424   0.40232   0.00000  Uiso   1.00
N44    N     0.12769   0.55603   0.31350   0.00000  Uiso   1.00
N45    N     0.43091   0.99097   0.08392   0.00000  Uiso   1.00
N46    N     0.79942   0.07146   0.26170   0.00000  Uiso   1.00
C47    C     0.26175   0.51516   0.66110   0.00000  Uiso   1.00
C48    C     0.28996   0.45093   0.72281   0.00000  Uiso   1.00
C49    C     0.26242   0.34649   0.69585   0.00000  Uiso   1.00
C50    C     0.29576   0.30187   0.76258   0.00000  Uiso   1.00
C51    C     0.33058   0.19335   0.84466   0.00000  Uiso   1.00
C52    C     0.19743   0.59286   0.71178   0.00000  Uiso   1.00
C53    C     0.09210   0.60775   0.67554   0.00000  Uiso   1.00
C54    C     0.04756   0.68262   0.73300   0.00000  Uiso   1.00
C55    C     0.93876   0.79448   0.79792   0.00000  Uiso   1.00
C56    C     0.37199   0.57467   0.66279   0.00000  Uiso   1.00
C57    C     0.41342   0.57430   0.58536   0.00000  Uiso   1.00
C58    C     0.51584   0.63388   0.60156   0.00000  Uiso   1.00
C59    C     0.67807   0.71752   0.59042   0.00000  Uiso   1.00
C60    C     0.36995   0.62166   0.82756   0.00000  Uiso   1.00
C61    C     0.34873   0.50878   0.81322   0.00000  Uiso   1.00
C62    C     0.38213   0.46431   0.88001   0.00000  Uiso   1.00
C63    C     0.35464   0.35982   0.85316   0.00000  Uiso   1.00
C64    C     0.25620   0.65070   0.80219   0.00000  Uiso   1.00
C65    C     0.21181   0.72557   0.85971   0.00000  Uiso   1.00
C66    C     0.10643   0.74057   0.82357   0.00000  Uiso   1.00
C67    C     0.43077   0.63252   0.75320   0.00000  Uiso   1.00
C68    C     0.53314   0.69212   0.76952   0.00000  Uiso   1.00
C69    C     0.57471   0.69183   0.69213   0.00000  Uiso   1.00
H70    H     0.21599   0.47013   0.59071   0.00000  Uiso   1.00
H71    H     0.21693   0.30175   0.62588   0.00000  Uiso   1.00
H72    H     0.04664   0.56298   0.60557   0.00000  Uiso   1.00
H73    H     0.36792   0.52953   0.51540   0.00000  Uiso   1.00
H74    H     0.24385   0.14058   0.70474   0.00000  Uiso   1.00
H75    H     0.88481   0.69142   0.66192   0.00000  Uiso   1.00
H76    H     0.56228   0.62089   0.47177   0.00000  Uiso   1.00
H77    H     0.41571   0.66669   0.89795   0.00000  Uiso   1.00
H78    H     0.42761   0.50909   0.94997   0.00000  Uiso   1.00
H79    H     0.25732   0.77032   0.92967   0.00000  Uiso   1.00
H80    H     0.57859   0.73687   0.83950   0.00000  Uiso   1.00
H81    H     0.41484   0.30887   0.96779   0.00000  Uiso   1.00
H82    H     0.05580   0.85971   0.92496   0.00000  Uiso   1.00
H83    H     0.73327   0.78918   0.73482   0.00000  Uiso   1.00
O84    O     0.33354   0.11751   0.86496   0.00000  Uiso   1.00
O85    O     0.86250   0.84020   0.80876   0.00000  Uiso   1.00
O86    O     0.75132   0.74766   0.55930   0.00000  Uiso   1.00
N87    N     0.28248   0.20181   0.75951   0.00000  Uiso   1.00
N88    N     0.94679   0.71680   0.71947   0.00000  Uiso   1.00
N89    N     0.58015   0.65088   0.54170   0.00000  Uiso   1.00
N90    N     0.37449   0.29237   0.90105   0.00000  Uiso   1.00
N91    N     0.03880   0.80736   0.86102   0.00000  Uiso   1.00
N92    N     0.67216   0.74144   0.68325   0.00000  Uiso   1.00
C93    C     0.77963   0.02626   0.62728   0.00000  Uiso   1.00
C94    C     0.80229   0.13848   0.63921   0.00000  Uiso   1.00
C95    C     0.76958   0.18116   0.57091   0.00000  Uiso   1.00
C96    C     0.79834   0.28533   0.59564   0.00000  Uiso   1.00
C97    C     0.82444   0.45057   0.60051   0.00000  Uiso   1.00
C98    C     0.71871   0.01863   0.70248   0.00000  Uiso   1.00
C99    C     0.61573   0.96051   0.68738   0.00000  Uiso   1.00
C100   C     0.57414   0.96377   0.76538   0.00000  Uiso   1.00
C101   C     0.47052   0.94287   0.86849   0.00000  Uiso   1.00
C102   C     0.89275   0.99645   0.65348   0.00000  Uiso   1.00
C103   C     0.93610   0.91968   0.59719   0.00000  Uiso   1.00
C104   C     0.04104   0.90425   0.63394   0.00000  Uiso   1.00
C105   C     0.20765   0.84893   0.66096   0.00000  Uiso   1.00
C106   C     0.88887   0.13537   0.79265   0.00000  Uiso   1.00
C107   C     0.86162   0.19774   0.72903   0.00000  Uiso   1.00
C108   C     0.89044   0.30187   0.75387   0.00000  Uiso   1.00
C109   C     0.85778   0.34470   0.68562   0.00000  Uiso   1.00
C110   C     0.77804   0.07788   0.79230   0.00000  Uiso   1.00
C111   C     0.73659   0.08123   0.87034   0.00000  Uiso   1.00
C112   C     0.63358   0.02314   0.85536   0.00000  Uiso   1.00
C113   C     0.95209   0.05572   0.74330   0.00000  Uiso   1.00
C114   C     0.05697   0.04040   0.78014   0.00000  Uiso   1.00
C115   C     0.10048   0.96362   0.72392   0.00000  Uiso   1.00
H116   H     0.73343   0.98013   0.55736   0.00000  Uiso   1.00
H117   H     0.72365   0.13527   0.50141   0.00000  Uiso   1.00
H118   H     0.56984   0.91465   0.61787   0.00000  Uiso   1.00
H119   H     0.89016   0.87384   0.52768   0.00000  Uiso   1.00
H120   H     0.73894   0.33342   0.47901   0.00000  Uiso   1.00
H121   H     0.41464   0.86821   0.72456   0.00000  Uiso   1.00
H122   H     0.09010   0.78213   0.53440   0.00000  Uiso   1.00
H123   H     0.93506   0.18151   0.86258   0.00000  Uiso   1.00
H124   H     0.93635   0.34771   0.82338   0.00000  Uiso   1.00
H125   H     0.78254   0.12709   0.93984   0.00000  Uiso   1.00
H126   H     0.10286   0.08627   0.84965   0.00000  Uiso   1.00
H127   H     0.91157   0.50585   0.74034   0.00000  Uiso   1.00
H128   H     0.58727   0.04063   0.98589   0.00000  Uiso   1.00
H129   H     0.26273   0.95455   0.79572   0.00000  Uiso   1.00
O130   O     0.82243   0.52534   0.57839   0.00000  Uiso   1.00
O131   O     0.39697   0.91498   0.90055   0.00000  Uiso   1.00
O132   O     0.28316   0.80205   0.65105   0.00000  Uiso   1.00
N133   N     0.77941   0.35119   0.54589   0.00000  Uiso   1.00
N134   N     0.47620   0.91625   0.77546   0.00000  Uiso   1.00
N135   N     0.10769   0.83576   0.59768   0.00000  Uiso   1.00
N136   N     0.87231   0.44397   0.68650   0.00000  Uiso   1.00
N137   N     0.56909   0.00903   0.91608   0.00000  Uiso   1.00
N138   N     0.20058   0.92854   0.73830   0.00000  Uiso   1.00
C139   C     0.73825   0.48484   0.33890   0.00000  Uiso   1.00
C140   C     0.71004   0.54907   0.27719   0.00000  Uiso   1.00
C141   C     0.73758   0.65351   0.30415   0.00000  Uiso   1.00
C142   C     0.70424   0.69813   0.23742   0.00000  Uiso   1.00
C143   C     0.66942   0.80665   0.15534   0.00000  Uiso   1.00
C144   C     0.80257   0.40714   0.28822   0.00000  Uiso   1.00
C145   C     0.90790   0.39225   0.32446   0.00000  Uiso   1.00
C146   C     0.95244   0.31738   0.26701   0.00000  Uiso   1.00
C147   C     0.06124   0.20552   0.20208   0.00000  Uiso   1.00
C148   C     0.62801   0.42533   0.33721   0.00000  Uiso   1.00
C149   C     0.58658   0.42570   0.41464   0.00000  Uiso   1.00
C150   C     0.48416   0.36612   0.39844   0.00000  Uiso   1.00
C151   C     0.32193   0.28248   0.40958   0.00000  Uiso   1.00
C152   C     0.63005   0.37834   0.17244   0.00000  Uiso   1.00
C153   C     0.65127   0.49122   0.18678   0.00000  Uiso   1.00
C154   C     0.61787   0.53569   0.11999   0.00000  Uiso   1.00
C155   C     0.64536   0.64018   0.14684   0.00000  Uiso   1.00
C156   C     0.74380   0.34930   0.19781   0.00000  Uiso   1.00
C157   C     0.78819   0.27443   0.14029   0.00000  Uiso   1.00
C158   C     0.89357   0.25943   0.17643   0.00000  Uiso   1.00
C159   C     0.56923   0.36748   0.24680   0.00000  Uiso   1.00
C160   C     0.46686   0.30788   0.23048   0.00000  Uiso   1.00
C161   C     0.42529   0.30817   0.30787   0.00000  Uiso   1.00
H162   H     0.78401   0.52987   0.40929   0.00000  Uiso   1.00
H163   H     0.78307   0.69825   0.37412   0.00000  Uiso   1.00
H164   H     0.95336   0.43702   0.39443   0.00000  Uiso   1.00
H165   H     0.63208   0.47047   0.48460   0.00000  Uiso   1.00
H166   H     0.75615   0.85942   0.29526   0.00000  Uiso   1.00
H167   H     0.11519   0.30858   0.33808   0.00000  Uiso   1.00
H168   H     0.43772   0.37911   0.52823   0.00000  Uiso   1.00
H169   H     0.58429   0.33331   0.10205   0.00000  Uiso   1.00
H170   H     0.57239   0.49091   0.05003   0.00000  Uiso   1.00
H171   H     0.74268   0.22968   0.07033   0.00000  Uiso   1.00
H172   H     0.42141   0.26313   0.16050   0.00000  Uiso   1.00
H173   H     0.58516   0.69113   0.03221   0.00000  Uiso   1.00
H174   H     0.94420   0.14029   0.07504   0.00000  Uiso   1.00
H175   H     0.26673   0.21082   0.26518   0.00000  Uiso   1.00
O176   O     0.66646   0.88249   0.13504   0.00000  Uiso   1.00
O177   O     0.13750   0.15980   0.19124   0.00000  Uiso   1.00
O178   O     0.24868   0.25234   0.44070   0.00000  Uiso   1.00
N179   N     0.71752   0.79819   0.24049   0.00000  Uiso   1.00
N180   N     0.05321   0.28320   0.28053   0.00000  Uiso   1.00
N181   N     0.41985   0.34912   0.45830   0.00000  Uiso   1.00
N182   N     0.62551   0.70763   0.09895   0.00000  Uiso   1.00
N183   N     0.96120   0.19264   0.13898   0.00000  Uiso   1.00
N184   N     0.32784   0.25856   0.31675   0.00000  Uiso   1.00
