data_job_03090
_audit_creation_date              2018-12-19
_audit_creation_method            'Materials Studio'
_symmetry_space_group_name_H-M    'P1'
_symmetry_Int_Tables_number       1
_symmetry_cell_setting            triclinic
loop_
_symmetry_equiv_pos_as_xyz
  x,y,z
_cell_length_a                    29.1462
_cell_length_b                    8.8076
_cell_length_c                    23.9317
_cell_angle_alpha                 90.0000
_cell_angle_beta                  155.1251
_cell_angle_gamma                 90.0000
loop_
_atom_site_label
_atom_site_type_symbol
_atom_site_fract_x
_atom_site_fract_y
_atom_site_fract_z
_atom_site_U_iso_or_equiv
_atom_site_adp_type
_atom_site_occupancy
C1     C     0.83994   0.10987   0.50275   0.00000  Uiso   1.00
C2     C     0.72202   0.08485   0.35439   0.00000  Uiso   1.00
C3     C     0.66046   0.95559   0.29662   0.00000  Uiso   1.00
C4     C     0.55415   0.95481   0.15917   0.00000  Uiso   1.00
C5     C     0.37763   0.89705   0.94048   0.00000  Uiso   1.00
C6     C     0.90331   0.14581   0.51956   0.00000  Uiso   1.00
C7     C     0.99418   0.06781   0.60067   0.00000  Uiso   1.00
C8     C     0.04049   0.11836   0.60226   0.00000  Uiso   1.00
C9     C     0.14547   0.15532   0.64008   0.00000  Uiso   1.00
C10    C     0.84013   0.25550   0.53741   0.00000  Uiso   1.00
C11    C     0.87790   0.26975   0.63356   0.00000  Uiso   1.00
C12    C     0.87104   0.41266   0.65021   0.00000  Uiso   1.00
C13    C     0.87791   0.61993   0.71575   0.00000  Uiso   1.00
C14    C     0.76062   0.33833   0.36138   0.00000  Uiso   1.00
C15    C     0.67894   0.20894   0.27761   0.00000  Uiso   1.00
C16    C     0.57270   0.20836   0.14021   0.00000  Uiso   1.00
C17    C     0.51098   0.07912   0.08224   0.00000  Uiso   1.00
C18    C     0.86023   0.26989   0.44278   0.00000  Uiso   1.00
C19    C     0.90642   0.32058   0.44426   0.00000  Uiso   1.00
C20    C     0.99733   0.24268   0.52534   0.00000  Uiso   1.00
C21    C     0.79704   0.37959   0.46063   0.00000  Uiso   1.00
C22    C     0.79013   0.52251   0.47714   0.00000  Uiso   1.00
C23    C     0.82788   0.53698   0.57329   0.00000  Uiso   1.00
H24    H     0.87349   0.01326   0.56253   0.00000  Uiso   1.00
H25    H     0.69384   0.85958   0.35607   0.00000  Uiso   1.00
H26    H     0.02751   0.97180   0.66008   0.00000  Uiso   1.00
H27    H     0.91124   0.17370   0.69296   0.00000  Uiso   1.00
H28    H     0.47567   0.74390   0.09331   0.00000  Uiso   1.00
H29    H     0.17926   0.98055   0.73437   0.00000  Uiso   1.00
H30    H     0.93408   0.40630   0.80371   0.00000  Uiso   1.00
H31    H     0.72708   0.43494   0.30160   0.00000  Uiso   1.00
H32    H     0.53938   0.30440   0.08081   0.00000  Uiso   1.00
H33    H     0.87306   0.41661   0.38483   0.00000  Uiso   1.00
H34    H     0.75679   0.61851   0.41771   0.00000  Uiso   1.00
H35    H     0.35031   0.10493   0.86990   0.00000  Uiso   1.00
H36    H     0.05391   0.34158   0.51097   0.00000  Uiso   1.00
H37    H     0.80872   0.76733   0.58030   0.00000  Uiso   1.00
O38    O     0.29217   0.83091   0.84107   0.00000  Uiso   1.00
O39    O     0.21527   0.14140   0.68214   0.00000  Uiso   1.00
O40    O     0.89360   0.69997   0.77310   0.00000  Uiso   1.00
N41    N     0.47192   0.84679   0.07103   0.00000  Uiso   1.00
N42    N     0.12972   0.06803   0.67037   0.00000  Uiso   1.00
N43    N     0.90053   0.46608   0.73522   0.00000  Uiso   1.00
N44    N     0.40446   0.04106   0.95082   0.00000  Uiso   1.00
N45    N     0.06227   0.26230   0.55015   0.00000  Uiso   1.00
N46    N     0.83307   0.66035   0.61500   0.00000  Uiso   1.00
C47    C     0.16006   0.10987   0.99725   0.00000  Uiso   1.00
C48    C     0.27798   0.08485   0.14561   0.00000  Uiso   1.00
C49    C     0.33954   0.95559   0.20338   0.00000  Uiso   1.00
C50    C     0.44585   0.95481   0.34083   0.00000  Uiso   1.00
C51    C     0.62237   0.89705   0.55952   0.00000  Uiso   1.00
C52    C     0.09669   0.14581   0.98044   0.00000  Uiso   1.00
C53    C     0.00582   0.06781   0.89933   0.00000  Uiso   1.00
C54    C     0.95951   0.11836   0.89774   0.00000  Uiso   1.00
C55    C     0.85453   0.15532   0.85992   0.00000  Uiso   1.00
C56    C     0.15987   0.25550   0.96259   0.00000  Uiso   1.00
C57    C     0.12210   0.26975   0.86644   0.00000  Uiso   1.00
C58    C     0.12896   0.41266   0.84979   0.00000  Uiso   1.00
C59    C     0.12209   0.61993   0.78425   0.00000  Uiso   1.00
C60    C     0.23938   0.33833   0.13862   0.00000  Uiso   1.00
C61    C     0.32106   0.20894   0.22239   0.00000  Uiso   1.00
C62    C     0.42730   0.20836   0.35979   0.00000  Uiso   1.00
C63    C     0.48902   0.07912   0.41776   0.00000  Uiso   1.00
C64    C     0.13977   0.26989   0.05722   0.00000  Uiso   1.00
C65    C     0.09358   0.32058   0.05574   0.00000  Uiso   1.00
C66    C     0.00267   0.24268   0.97466   0.00000  Uiso   1.00
C67    C     0.20296   0.37959   0.03937   0.00000  Uiso   1.00
C68    C     0.20987   0.52251   0.02286   0.00000  Uiso   1.00
C69    C     0.17212   0.53698   0.92671   0.00000  Uiso   1.00
H70    H     0.12651   0.01326   0.93747   0.00000  Uiso   1.00
H71    H     0.30616   0.85958   0.14393   0.00000  Uiso   1.00
H72    H     0.97249   0.97180   0.83992   0.00000  Uiso   1.00
H73    H     0.08876   0.17370   0.80704   0.00000  Uiso   1.00
H74    H     0.52433   0.74390   0.40669   0.00000  Uiso   1.00
H75    H     0.82074   0.98055   0.76563   0.00000  Uiso   1.00
H76    H     0.06592   0.40630   0.69629   0.00000  Uiso   1.00
H77    H     0.27292   0.43494   0.19840   0.00000  Uiso   1.00
H78    H     0.46062   0.30440   0.41919   0.00000  Uiso   1.00
H79    H     0.12694   0.41661   0.11517   0.00000  Uiso   1.00
H80    H     0.24321   0.61851   0.08229   0.00000  Uiso   1.00
H81    H     0.64969   0.10493   0.63010   0.00000  Uiso   1.00
H82    H     0.94609   0.34158   0.98903   0.00000  Uiso   1.00
H83    H     0.19128   0.76733   0.91970   0.00000  Uiso   1.00
O84    O     0.70783   0.83091   0.65893   0.00000  Uiso   1.00
O85    O     0.78473   0.14140   0.81786   0.00000  Uiso   1.00
O86    O     0.10640   0.69997   0.72690   0.00000  Uiso   1.00
N87    N     0.52808   0.84679   0.42897   0.00000  Uiso   1.00
N88    N     0.87028   0.06803   0.82963   0.00000  Uiso   1.00
N89    N     0.09947   0.46608   0.76478   0.00000  Uiso   1.00
N90    N     0.59554   0.04106   0.54918   0.00000  Uiso   1.00
N91    N     0.93773   0.26230   0.94985   0.00000  Uiso   1.00
N92    N     0.16693   0.66035   0.88500   0.00000  Uiso   1.00
C93    C     0.16006   0.89013   0.49725   0.00000  Uiso   1.00
C94    C     0.27798   0.91515   0.64561   0.00000  Uiso   1.00
C95    C     0.33954   0.04441   0.70338   0.00000  Uiso   1.00
C96    C     0.44585   0.04519   0.84083   0.00000  Uiso   1.00
C97    C     0.62237   0.10295   0.05952   0.00000  Uiso   1.00
C98    C     0.09669   0.85419   0.48044   0.00000  Uiso   1.00
C99    C     0.00582   0.93219   0.39933   0.00000  Uiso   1.00
C100   C     0.95951   0.88164   0.39774   0.00000  Uiso   1.00
C101   C     0.85453   0.84468   0.35992   0.00000  Uiso   1.00
C102   C     0.15987   0.74450   0.46259   0.00000  Uiso   1.00
C103   C     0.12210   0.73025   0.36644   0.00000  Uiso   1.00
C104   C     0.12896   0.58734   0.34979   0.00000  Uiso   1.00
C105   C     0.12209   0.38007   0.28425   0.00000  Uiso   1.00
C106   C     0.23938   0.66167   0.63862   0.00000  Uiso   1.00
C107   C     0.32106   0.79106   0.72239   0.00000  Uiso   1.00
C108   C     0.42730   0.79164   0.85979   0.00000  Uiso   1.00
C109   C     0.48902   0.92088   0.91776   0.00000  Uiso   1.00
C110   C     0.13977   0.73011   0.55722   0.00000  Uiso   1.00
C111   C     0.09358   0.67942   0.55574   0.00000  Uiso   1.00
C112   C     0.00267   0.75732   0.47466   0.00000  Uiso   1.00
C113   C     0.20296   0.62041   0.53937   0.00000  Uiso   1.00
C114   C     0.20987   0.47749   0.52286   0.00000  Uiso   1.00
C115   C     0.17212   0.46302   0.42671   0.00000  Uiso   1.00
H116   H     0.12651   0.98674   0.43747   0.00000  Uiso   1.00
H117   H     0.30616   0.14042   0.64393   0.00000  Uiso   1.00
H118   H     0.97249   0.02820   0.33992   0.00000  Uiso   1.00
H119   H     0.08876   0.82630   0.30704   0.00000  Uiso   1.00
H120   H     0.52433   0.25610   0.90669   0.00000  Uiso   1.00
H121   H     0.82074   0.01945   0.26563   0.00000  Uiso   1.00
H122   H     0.06592   0.59370   0.19629   0.00000  Uiso   1.00
H123   H     0.27292   0.56506   0.69840   0.00000  Uiso   1.00
H124   H     0.46062   0.69560   0.91919   0.00000  Uiso   1.00
H125   H     0.12694   0.58339   0.61517   0.00000  Uiso   1.00
H126   H     0.24321   0.38149   0.58229   0.00000  Uiso   1.00
H127   H     0.64969   0.89507   0.13010   0.00000  Uiso   1.00
H128   H     0.94609   0.65842   0.48903   0.00000  Uiso   1.00
H129   H     0.19128   0.23267   0.41970   0.00000  Uiso   1.00
O130   O     0.70783   0.16909   0.15893   0.00000  Uiso   1.00
O131   O     0.78473   0.85860   0.31786   0.00000  Uiso   1.00
O132   O     0.10640   0.30003   0.22690   0.00000  Uiso   1.00
N133   N     0.52808   0.15321   0.92897   0.00000  Uiso   1.00
N134   N     0.87028   0.93197   0.32963   0.00000  Uiso   1.00
N135   N     0.09947   0.53392   0.26478   0.00000  Uiso   1.00
N136   N     0.59554   0.95894   0.04918   0.00000  Uiso   1.00
N137   N     0.93773   0.73770   0.44985   0.00000  Uiso   1.00
N138   N     0.16693   0.33965   0.38500   0.00000  Uiso   1.00
C139   C     0.83994   0.89013   0.00275   0.00000  Uiso   1.00
C140   C     0.72202   0.91515   0.85439   0.00000  Uiso   1.00
C141   C     0.66046   0.04441   0.79662   0.00000  Uiso   1.00
C142   C     0.55415   0.04519   0.65917   0.00000  Uiso   1.00
C143   C     0.37763   0.10295   0.44048   0.00000  Uiso   1.00
C144   C     0.90331   0.85419   0.01956   0.00000  Uiso   1.00
C145   C     0.99418   0.93219   0.10067   0.00000  Uiso   1.00
C146   C     0.04049   0.88164   0.10226   0.00000  Uiso   1.00
C147   C     0.14547   0.84468   0.14008   0.00000  Uiso   1.00
C148   C     0.84013   0.74450   0.03741   0.00000  Uiso   1.00
C149   C     0.87790   0.73025   0.13356   0.00000  Uiso   1.00
C150   C     0.87104   0.58734   0.15021   0.00000  Uiso   1.00
C151   C     0.87791   0.38007   0.21575   0.00000  Uiso   1.00
C152   C     0.76062   0.66167   0.86138   0.00000  Uiso   1.00
C153   C     0.67894   0.79106   0.77761   0.00000  Uiso   1.00
C154   C     0.57270   0.79164   0.64021   0.00000  Uiso   1.00
C155   C     0.51098   0.92088   0.58224   0.00000  Uiso   1.00
C156   C     0.86023   0.73011   0.94278   0.00000  Uiso   1.00
C157   C     0.90642   0.67942   0.94426   0.00000  Uiso   1.00
C158   C     0.99733   0.75732   0.02534   0.00000  Uiso   1.00
C159   C     0.79704   0.62041   0.96063   0.00000  Uiso   1.00
C160   C     0.79013   0.47749   0.97714   0.00000  Uiso   1.00
C161   C     0.82788   0.46302   0.07329   0.00000  Uiso   1.00
H162   H     0.87349   0.98674   0.06253   0.00000  Uiso   1.00
H163   H     0.69384   0.14042   0.85607   0.00000  Uiso   1.00
H164   H     0.02751   0.02820   0.16008   0.00000  Uiso   1.00
H165   H     0.91124   0.82630   0.19296   0.00000  Uiso   1.00
H166   H     0.47567   0.25610   0.59331   0.00000  Uiso   1.00
H167   H     0.17926   0.01945   0.23437   0.00000  Uiso   1.00
H168   H     0.93408   0.59370   0.30371   0.00000  Uiso   1.00
H169   H     0.72708   0.56506   0.80160   0.00000  Uiso   1.00
H170   H     0.53938   0.69560   0.58081   0.00000  Uiso   1.00
H171   H     0.87306   0.58339   0.88483   0.00000  Uiso   1.00
H172   H     0.75679   0.38149   0.91771   0.00000  Uiso   1.00
H173   H     0.35031   0.89507   0.36990   0.00000  Uiso   1.00
H174   H     0.05391   0.65842   0.01097   0.00000  Uiso   1.00
H175   H     0.80872   0.23267   0.08030   0.00000  Uiso   1.00
O176   O     0.29217   0.16909   0.34107   0.00000  Uiso   1.00
O177   O     0.21527   0.85860   0.18214   0.00000  Uiso   1.00
O178   O     0.89360   0.30003   0.27310   0.00000  Uiso   1.00
N179   N     0.47192   0.15321   0.57103   0.00000  Uiso   1.00
N180   N     0.12972   0.93197   0.17037   0.00000  Uiso   1.00
N181   N     0.90053   0.53392   0.23522   0.00000  Uiso   1.00
N182   N     0.40446   0.95894   0.45082   0.00000  Uiso   1.00
N183   N     0.06227   0.73770   0.05015   0.00000  Uiso   1.00
N184   N     0.83307   0.33965   0.11500   0.00000  Uiso   1.00
