data_job_04004
_audit_creation_date              2018-12-19
_audit_creation_method            'Materials Studio'
_symmetry_space_group_name_H-M    'P1'
_symmetry_Int_Tables_number       1
_symmetry_cell_setting            triclinic
loop_
_symmetry_equiv_pos_as_xyz
  x,y,z
_cell_length_a                    28.5345
_cell_length_b                    12.0129
_cell_length_c                    30.9934
_cell_angle_alpha                 90.0000
_cell_angle_beta                  143.1966
_cell_angle_gamma                 90.0000
loop_
_atom_site_label
_atom_site_type_symbol
_atom_site_fract_x
_atom_site_fract_y
_atom_site_fract_z
_atom_site_U_iso_or_equiv
_atom_site_adp_type
_atom_site_occupancy
C1     C     0.41587   0.51523   0.82718   0.00000  Uiso   1.00
C2     C     0.50222   0.49536   0.88120   0.00000  Uiso   1.00
C3     C     0.54138   0.39480   0.91445   0.00000  Uiso   1.00
C4     C     0.62036   0.39379   0.96221   0.00000  Uiso   1.00
C5     C     0.74862   0.34832   0.04398   0.00000  Uiso   1.00
C6     C     0.41322   0.60946   0.85817   0.00000  Uiso   1.00
C7     C     0.37753   0.60484   0.87204   0.00000  Uiso   1.00
C8     C     0.38157   0.69989   0.90041   0.00000  Uiso   1.00
C9     C     0.37160   0.83159   0.94637   0.00000  Uiso   1.00
C10    C     0.38056   0.56220   0.75980   0.00000  Uiso   1.00
C11    C     0.31740   0.51786   0.69097   0.00000  Uiso   1.00
C12    C     0.29393   0.57315   0.63652   0.00000  Uiso   1.00
C13    C     0.23325   0.63147   0.52976   0.00000  Uiso   1.00
C14    C     0.48649   0.69227   0.85288   0.00000  Uiso   1.00
C15    C     0.54058   0.59152   0.89515   0.00000  Uiso   1.00
C16    C     0.61951   0.59067   0.94287   0.00000  Uiso   1.00
C17    C     0.65878   0.49012   0.97619   0.00000  Uiso   1.00
C18    C     0.45157   0.70562   0.87212   0.00000  Uiso   1.00
C19    C     0.45566   0.80071   0.90047   0.00000  Uiso   1.00
C20    C     0.42000   0.79622   0.91439   0.00000  Uiso   1.00
C21    C     0.41892   0.65836   0.77376   0.00000  Uiso   1.00
C22    C     0.39553   0.71373   0.71940   0.00000  Uiso   1.00
C23    C     0.33236   0.66948   0.65050   0.00000  Uiso   1.00
H24    H     0.38601   0.44038   0.81632   0.00000  Uiso   1.00
H25    H     0.51168   0.32040   0.90364   0.00000  Uiso   1.00
H26    H     0.34785   0.53042   0.86123   0.00000  Uiso   1.00
H27    H     0.28773   0.44345   0.68019   0.00000  Uiso   1.00
H28    H     0.66794   0.22981   0.00662   0.00000  Uiso   1.00
H29    H     0.32247   0.67264   0.91718   0.00000  Uiso   1.00
H30    H     0.19569   0.48926   0.53542   0.00000  Uiso   1.00
H31    H     0.51635   0.76714   0.86374   0.00000  Uiso   1.00
H32    H     0.64918   0.66510   0.95366   0.00000  Uiso   1.00
H33    H     0.48535   0.87511   0.91126   0.00000  Uiso   1.00
H34    H     0.42523   0.78814   0.73022   0.00000  Uiso   1.00
H35    H     0.77954   0.50958   0.04723   0.00000  Uiso   1.00
H36    H     0.43406   0.95241   0.95778   0.00000  Uiso   1.00
H37    H     0.30729   0.76903   0.57603   0.00000  Uiso   1.00
O38    O     0.80877   0.29668   0.08524   0.00000  Uiso   1.00
O39    O     0.35551   0.87766   0.96788   0.00000  Uiso   1.00
O40    O     0.18920   0.63706   0.46702   0.00000  Uiso   1.00
N41    N     0.67597   0.30965   0.00382   0.00000  Uiso   1.00
N42    N     0.35298   0.72367   0.92021   0.00000  Uiso   1.00
N43    N     0.23445   0.55224   0.56330   0.00000  Uiso   1.00
N44    N     0.73602   0.46019   0.02567   0.00000  Uiso   1.00
N45    N     0.41304   0.87420   0.94206   0.00000  Uiso   1.00
N46    N     0.29450   0.70278   0.58515   0.00000  Uiso   1.00
C47    C     0.91587   0.01523   0.82718   0.00000  Uiso   1.00
C48    C     0.00222   0.99536   0.88120   0.00000  Uiso   1.00
C49    C     0.04138   0.89480   0.91445   0.00000  Uiso   1.00
C50    C     0.12036   0.89379   0.96221   0.00000  Uiso   1.00
C51    C     0.24862   0.84832   0.04398   0.00000  Uiso   1.00
C52    C     0.91322   0.10946   0.85817   0.00000  Uiso   1.00
C53    C     0.87753   0.10484   0.87204   0.00000  Uiso   1.00
C54    C     0.88157   0.19989   0.90041   0.00000  Uiso   1.00
C55    C     0.87160   0.33159   0.94637   0.00000  Uiso   1.00
C56    C     0.88056   0.06220   0.75980   0.00000  Uiso   1.00
C57    C     0.81740   0.01786   0.69097   0.00000  Uiso   1.00
C58    C     0.79393   0.07315   0.63652   0.00000  Uiso   1.00
C59    C     0.73325   0.13147   0.52976   0.00000  Uiso   1.00
C60    C     0.98649   0.19227   0.85288   0.00000  Uiso   1.00
C61    C     0.04058   0.09152   0.89515   0.00000  Uiso   1.00
C62    C     0.11951   0.09067   0.94287   0.00000  Uiso   1.00
C63    C     0.15878   0.99012   0.97619   0.00000  Uiso   1.00
C64    C     0.95157   0.20562   0.87212   0.00000  Uiso   1.00
C65    C     0.95566   0.30071   0.90047   0.00000  Uiso   1.00
C66    C     0.92000   0.29622   0.91439   0.00000  Uiso   1.00
C67    C     0.91892   0.15836   0.77376   0.00000  Uiso   1.00
C68    C     0.89553   0.21373   0.71940   0.00000  Uiso   1.00
C69    C     0.83236   0.16948   0.65050   0.00000  Uiso   1.00
H70    H     0.88601   0.94038   0.81632   0.00000  Uiso   1.00
H71    H     0.01168   0.82040   0.90364   0.00000  Uiso   1.00
H72    H     0.84785   0.03042   0.86123   0.00000  Uiso   1.00
H73    H     0.78773   0.94345   0.68019   0.00000  Uiso   1.00
H74    H     0.16794   0.72981   0.00662   0.00000  Uiso   1.00
H75    H     0.82247   0.17264   0.91718   0.00000  Uiso   1.00
H76    H     0.69569   0.98926   0.53542   0.00000  Uiso   1.00
H77    H     0.01635   0.26714   0.86374   0.00000  Uiso   1.00
H78    H     0.14918   0.16510   0.95366   0.00000  Uiso   1.00
H79    H     0.98535   0.37511   0.91126   0.00000  Uiso   1.00
H80    H     0.92523   0.28814   0.73022   0.00000  Uiso   1.00
H81    H     0.27954   0.00958   0.04723   0.00000  Uiso   1.00
H82    H     0.93406   0.45241   0.95778   0.00000  Uiso   1.00
H83    H     0.80729   0.26903   0.57603   0.00000  Uiso   1.00
O84    O     0.30877   0.79668   0.08524   0.00000  Uiso   1.00
O85    O     0.85551   0.37766   0.96788   0.00000  Uiso   1.00
O86    O     0.68920   0.13706   0.46702   0.00000  Uiso   1.00
N87    N     0.17597   0.80965   0.00382   0.00000  Uiso   1.00
N88    N     0.85298   0.22367   0.92021   0.00000  Uiso   1.00
N89    N     0.73445   0.05224   0.56330   0.00000  Uiso   1.00
N90    N     0.23602   0.96019   0.02567   0.00000  Uiso   1.00
N91    N     0.91304   0.37420   0.94206   0.00000  Uiso   1.00
N92    N     0.79450   0.20278   0.58515   0.00000  Uiso   1.00
C93    C     0.58413   0.51523   0.67282   0.00000  Uiso   1.00
C94    C     0.49778   0.49536   0.61880   0.00000  Uiso   1.00
C95    C     0.45862   0.39480   0.58555   0.00000  Uiso   1.00
C96    C     0.37964   0.39379   0.53779   0.00000  Uiso   1.00
C97    C     0.25138   0.34832   0.45602   0.00000  Uiso   1.00
C98    C     0.58678   0.60946   0.64183   0.00000  Uiso   1.00
C99    C     0.62247   0.60484   0.62796   0.00000  Uiso   1.00
C100   C     0.61843   0.69989   0.59959   0.00000  Uiso   1.00
C101   C     0.62840   0.83159   0.55363   0.00000  Uiso   1.00
C102   C     0.61944   0.56220   0.74020   0.00000  Uiso   1.00
C103   C     0.68260   0.51786   0.80903   0.00000  Uiso   1.00
C104   C     0.70607   0.57315   0.86348   0.00000  Uiso   1.00
C105   C     0.76675   0.63147   0.97024   0.00000  Uiso   1.00
C106   C     0.51351   0.69227   0.64712   0.00000  Uiso   1.00
C107   C     0.45942   0.59152   0.60485   0.00000  Uiso   1.00
C108   C     0.38049   0.59067   0.55713   0.00000  Uiso   1.00
C109   C     0.34122   0.49012   0.52381   0.00000  Uiso   1.00
C110   C     0.54843   0.70562   0.62788   0.00000  Uiso   1.00
C111   C     0.54434   0.80071   0.59953   0.00000  Uiso   1.00
C112   C     0.58000   0.79622   0.58561   0.00000  Uiso   1.00
C113   C     0.58108   0.65836   0.72624   0.00000  Uiso   1.00
C114   C     0.60447   0.71373   0.78060   0.00000  Uiso   1.00
C115   C     0.66764   0.66948   0.84950   0.00000  Uiso   1.00
H116   H     0.61399   0.44038   0.68368   0.00000  Uiso   1.00
H117   H     0.48832   0.32040   0.59636   0.00000  Uiso   1.00
H118   H     0.65215   0.53042   0.63877   0.00000  Uiso   1.00
H119   H     0.71227   0.44345   0.81981   0.00000  Uiso   1.00
H120   H     0.33206   0.22981   0.49338   0.00000  Uiso   1.00
H121   H     0.67753   0.67264   0.58282   0.00000  Uiso   1.00
H122   H     0.80431   0.48926   0.96458   0.00000  Uiso   1.00
H123   H     0.48365   0.76714   0.63626   0.00000  Uiso   1.00
H124   H     0.35082   0.66510   0.54634   0.00000  Uiso   1.00
H125   H     0.51465   0.87511   0.58874   0.00000  Uiso   1.00
H126   H     0.57477   0.78814   0.76978   0.00000  Uiso   1.00
H127   H     0.22046   0.50958   0.45277   0.00000  Uiso   1.00
H128   H     0.56594   0.95241   0.54222   0.00000  Uiso   1.00
H129   H     0.69271   0.76903   0.92397   0.00000  Uiso   1.00
O130   O     0.19123   0.29668   0.41476   0.00000  Uiso   1.00
O131   O     0.64449   0.87766   0.53212   0.00000  Uiso   1.00
O132   O     0.81080   0.63706   0.03298   0.00000  Uiso   1.00
N133   N     0.32403   0.30965   0.49618   0.00000  Uiso   1.00
N134   N     0.64702   0.72367   0.57979   0.00000  Uiso   1.00
N135   N     0.76555   0.55224   0.93670   0.00000  Uiso   1.00
N136   N     0.26398   0.46019   0.47433   0.00000  Uiso   1.00
N137   N     0.58696   0.87420   0.55794   0.00000  Uiso   1.00
N138   N     0.70550   0.70278   0.91485   0.00000  Uiso   1.00
C139   C     0.08413   0.01523   0.67282   0.00000  Uiso   1.00
C140   C     0.99778   0.99536   0.61880   0.00000  Uiso   1.00
C141   C     0.95862   0.89480   0.58555   0.00000  Uiso   1.00
C142   C     0.87964   0.89379   0.53779   0.00000  Uiso   1.00
C143   C     0.75138   0.84832   0.45602   0.00000  Uiso   1.00
C144   C     0.08678   0.10946   0.64183   0.00000  Uiso   1.00
C145   C     0.12247   0.10484   0.62796   0.00000  Uiso   1.00
C146   C     0.11843   0.19989   0.59959   0.00000  Uiso   1.00
C147   C     0.12840   0.33159   0.55363   0.00000  Uiso   1.00
C148   C     0.11944   0.06220   0.74020   0.00000  Uiso   1.00
C149   C     0.18260   0.01786   0.80903   0.00000  Uiso   1.00
C150   C     0.20607   0.07315   0.86348   0.00000  Uiso   1.00
C151   C     0.26675   0.13147   0.97024   0.00000  Uiso   1.00
C152   C     0.01351   0.19227   0.64712   0.00000  Uiso   1.00
C153   C     0.95942   0.09152   0.60485   0.00000  Uiso   1.00
C154   C     0.88049   0.09067   0.55713   0.00000  Uiso   1.00
C155   C     0.84122   0.99012   0.52381   0.00000  Uiso   1.00
C156   C     0.04843   0.20562   0.62788   0.00000  Uiso   1.00
C157   C     0.04434   0.30071   0.59953   0.00000  Uiso   1.00
C158   C     0.08000   0.29622   0.58561   0.00000  Uiso   1.00
C159   C     0.08108   0.15836   0.72624   0.00000  Uiso   1.00
C160   C     0.10447   0.21373   0.78060   0.00000  Uiso   1.00
C161   C     0.16764   0.16948   0.84950   0.00000  Uiso   1.00
H162   H     0.11399   0.94038   0.68368   0.00000  Uiso   1.00
H163   H     0.98832   0.82040   0.59636   0.00000  Uiso   1.00
H164   H     0.15215   0.03042   0.63877   0.00000  Uiso   1.00
H165   H     0.21227   0.94345   0.81981   0.00000  Uiso   1.00
H166   H     0.83206   0.72981   0.49338   0.00000  Uiso   1.00
H167   H     0.17753   0.17264   0.58282   0.00000  Uiso   1.00
H168   H     0.30431   0.98926   0.96458   0.00000  Uiso   1.00
H169   H     0.98365   0.26714   0.63626   0.00000  Uiso   1.00
H170   H     0.85082   0.16510   0.54634   0.00000  Uiso   1.00
H171   H     0.01465   0.37511   0.58874   0.00000  Uiso   1.00
H172   H     0.07477   0.28814   0.76978   0.00000  Uiso   1.00
H173   H     0.72046   0.00958   0.45277   0.00000  Uiso   1.00
H174   H     0.06594   0.45241   0.54222   0.00000  Uiso   1.00
H175   H     0.19271   0.26903   0.92397   0.00000  Uiso   1.00
O176   O     0.69123   0.79668   0.41476   0.00000  Uiso   1.00
O177   O     0.14449   0.37766   0.53212   0.00000  Uiso   1.00
O178   O     0.31080   0.13706   0.03298   0.00000  Uiso   1.00
N179   N     0.82403   0.80965   0.49618   0.00000  Uiso   1.00
N180   N     0.14702   0.22367   0.57979   0.00000  Uiso   1.00
N181   N     0.26555   0.05224   0.93670   0.00000  Uiso   1.00
N182   N     0.76398   0.96019   0.47433   0.00000  Uiso   1.00
N183   N     0.08696   0.37420   0.55794   0.00000  Uiso   1.00
N184   N     0.20550   0.20278   0.91485   0.00000  Uiso   1.00
C185   C     0.58413   0.48477   0.17282   0.00000  Uiso   1.00
C186   C     0.49778   0.50464   0.11880   0.00000  Uiso   1.00
C187   C     0.45862   0.60520   0.08555   0.00000  Uiso   1.00
C188   C     0.37964   0.60621   0.03779   0.00000  Uiso   1.00
C189   C     0.25138   0.65168   0.95602   0.00000  Uiso   1.00
C190   C     0.58678   0.39054   0.14183   0.00000  Uiso   1.00
C191   C     0.62247   0.39516   0.12796   0.00000  Uiso   1.00
C192   C     0.61843   0.30011   0.09959   0.00000  Uiso   1.00
C193   C     0.62840   0.16841   0.05363   0.00000  Uiso   1.00
C194   C     0.61944   0.43780   0.24020   0.00000  Uiso   1.00
C195   C     0.68260   0.48214   0.30903   0.00000  Uiso   1.00
C196   C     0.70607   0.42685   0.36348   0.00000  Uiso   1.00
C197   C     0.76675   0.36853   0.47024   0.00000  Uiso   1.00
C198   C     0.51351   0.30773   0.14712   0.00000  Uiso   1.00
C199   C     0.45942   0.40848   0.10485   0.00000  Uiso   1.00
C200   C     0.38049   0.40933   0.05713   0.00000  Uiso   1.00
C201   C     0.34122   0.50988   0.02381   0.00000  Uiso   1.00
C202   C     0.54843   0.29438   0.12788   0.00000  Uiso   1.00
C203   C     0.54434   0.19929   0.09953   0.00000  Uiso   1.00
C204   C     0.58000   0.20378   0.08561   0.00000  Uiso   1.00
C205   C     0.58108   0.34164   0.22624   0.00000  Uiso   1.00
C206   C     0.60447   0.28627   0.28060   0.00000  Uiso   1.00
C207   C     0.66764   0.33052   0.34950   0.00000  Uiso   1.00
H208   H     0.61399   0.55962   0.18368   0.00000  Uiso   1.00
H209   H     0.48832   0.67960   0.09636   0.00000  Uiso   1.00
H210   H     0.65215   0.46958   0.13877   0.00000  Uiso   1.00
H211   H     0.71227   0.55655   0.31981   0.00000  Uiso   1.00
H212   H     0.33206   0.77019   0.99338   0.00000  Uiso   1.00
H213   H     0.67753   0.32736   0.08282   0.00000  Uiso   1.00
H214   H     0.80431   0.51074   0.46458   0.00000  Uiso   1.00
H215   H     0.48365   0.23286   0.13626   0.00000  Uiso   1.00
H216   H     0.35082   0.33490   0.04634   0.00000  Uiso   1.00
H217   H     0.51465   0.12489   0.08874   0.00000  Uiso   1.00
H218   H     0.57477   0.21186   0.26978   0.00000  Uiso   1.00
H219   H     0.22046   0.49042   0.95277   0.00000  Uiso   1.00
H220   H     0.56594   0.04759   0.04222   0.00000  Uiso   1.00
H221   H     0.69271   0.23097   0.42397   0.00000  Uiso   1.00
O222   O     0.19123   0.70332   0.91476   0.00000  Uiso   1.00
O223   O     0.64449   0.12234   0.03212   0.00000  Uiso   1.00
O224   O     0.81080   0.36294   0.53298   0.00000  Uiso   1.00
N225   N     0.32403   0.69035   0.99618   0.00000  Uiso   1.00
N226   N     0.64702   0.27633   0.07979   0.00000  Uiso   1.00
N227   N     0.76555   0.44776   0.43670   0.00000  Uiso   1.00
N228   N     0.26398   0.53981   0.97433   0.00000  Uiso   1.00
N229   N     0.58696   0.12580   0.05794   0.00000  Uiso   1.00
N230   N     0.70550   0.29722   0.41485   0.00000  Uiso   1.00
C231   C     0.08413   0.98477   0.17282   0.00000  Uiso   1.00
C232   C     0.99778   0.00464   0.11880   0.00000  Uiso   1.00
C233   C     0.95862   0.10520   0.08555   0.00000  Uiso   1.00
C234   C     0.87964   0.10621   0.03779   0.00000  Uiso   1.00
C235   C     0.75138   0.15168   0.95602   0.00000  Uiso   1.00
C236   C     0.08678   0.89054   0.14183   0.00000  Uiso   1.00
C237   C     0.12247   0.89516   0.12796   0.00000  Uiso   1.00
C238   C     0.11843   0.80011   0.09959   0.00000  Uiso   1.00
C239   C     0.12840   0.66841   0.05363   0.00000  Uiso   1.00
C240   C     0.11944   0.93780   0.24020   0.00000  Uiso   1.00
C241   C     0.18260   0.98214   0.30903   0.00000  Uiso   1.00
C242   C     0.20607   0.92685   0.36348   0.00000  Uiso   1.00
C243   C     0.26675   0.86853   0.47024   0.00000  Uiso   1.00
C244   C     0.01351   0.80773   0.14712   0.00000  Uiso   1.00
C245   C     0.95942   0.90848   0.10485   0.00000  Uiso   1.00
C246   C     0.88049   0.90933   0.05713   0.00000  Uiso   1.00
C247   C     0.84122   0.00988   0.02381   0.00000  Uiso   1.00
C248   C     0.04843   0.79438   0.12788   0.00000  Uiso   1.00
C249   C     0.04434   0.69929   0.09953   0.00000  Uiso   1.00
C250   C     0.08000   0.70378   0.08561   0.00000  Uiso   1.00
C251   C     0.08108   0.84164   0.22624   0.00000  Uiso   1.00
C252   C     0.10447   0.78627   0.28060   0.00000  Uiso   1.00
C253   C     0.16764   0.83052   0.34950   0.00000  Uiso   1.00
H254   H     0.11399   0.05962   0.18368   0.00000  Uiso   1.00
H255   H     0.98832   0.17960   0.09636   0.00000  Uiso   1.00
H256   H     0.15215   0.96958   0.13877   0.00000  Uiso   1.00
H257   H     0.21227   0.05655   0.31981   0.00000  Uiso   1.00
H258   H     0.83206   0.27019   0.99338   0.00000  Uiso   1.00
H259   H     0.17753   0.82736   0.08282   0.00000  Uiso   1.00
H260   H     0.30431   0.01074   0.46458   0.00000  Uiso   1.00
H261   H     0.98365   0.73286   0.13626   0.00000  Uiso   1.00
H262   H     0.85082   0.83490   0.04634   0.00000  Uiso   1.00
H263   H     0.01465   0.62489   0.08874   0.00000  Uiso   1.00
H264   H     0.07477   0.71186   0.26978   0.00000  Uiso   1.00
H265   H     0.72046   0.99042   0.95277   0.00000  Uiso   1.00
H266   H     0.06594   0.54759   0.04222   0.00000  Uiso   1.00
H267   H     0.19271   0.73097   0.42397   0.00000  Uiso   1.00
O268   O     0.69123   0.20332   0.91476   0.00000  Uiso   1.00
O269   O     0.14449   0.62234   0.03212   0.00000  Uiso   1.00
O270   O     0.31080   0.86294   0.53298   0.00000  Uiso   1.00
N271   N     0.82403   0.19035   0.99618   0.00000  Uiso   1.00
N272   N     0.14702   0.77633   0.07979   0.00000  Uiso   1.00
N273   N     0.26555   0.94776   0.43670   0.00000  Uiso   1.00
N274   N     0.76398   0.03981   0.97433   0.00000  Uiso   1.00
N275   N     0.08696   0.62580   0.05794   0.00000  Uiso   1.00
N276   N     0.20550   0.79722   0.41485   0.00000  Uiso   1.00
C277   C     0.41587   0.48477   0.32718   0.00000  Uiso   1.00
C278   C     0.50222   0.50464   0.38120   0.00000  Uiso   1.00
C279   C     0.54138   0.60520   0.41445   0.00000  Uiso   1.00
C280   C     0.62036   0.60621   0.46221   0.00000  Uiso   1.00
C281   C     0.74862   0.65168   0.54398   0.00000  Uiso   1.00
C282   C     0.41322   0.39054   0.35817   0.00000  Uiso   1.00
C283   C     0.37753   0.39516   0.37204   0.00000  Uiso   1.00
C284   C     0.38157   0.30011   0.40041   0.00000  Uiso   1.00
C285   C     0.37160   0.16841   0.44637   0.00000  Uiso   1.00
C286   C     0.38056   0.43780   0.25980   0.00000  Uiso   1.00
C287   C     0.31740   0.48214   0.19097   0.00000  Uiso   1.00
C288   C     0.29393   0.42685   0.13652   0.00000  Uiso   1.00
C289   C     0.23325   0.36853   0.02976   0.00000  Uiso   1.00
C290   C     0.48649   0.30773   0.35288   0.00000  Uiso   1.00
C291   C     0.54058   0.40848   0.39515   0.00000  Uiso   1.00
C292   C     0.61951   0.40933   0.44287   0.00000  Uiso   1.00
C293   C     0.65878   0.50988   0.47619   0.00000  Uiso   1.00
C294   C     0.45157   0.29438   0.37212   0.00000  Uiso   1.00
C295   C     0.45566   0.19929   0.40047   0.00000  Uiso   1.00
C296   C     0.42000   0.20378   0.41439   0.00000  Uiso   1.00
C297   C     0.41892   0.34164   0.27376   0.00000  Uiso   1.00
C298   C     0.39553   0.28627   0.21940   0.00000  Uiso   1.00
C299   C     0.33236   0.33052   0.15050   0.00000  Uiso   1.00
H300   H     0.38601   0.55962   0.31632   0.00000  Uiso   1.00
H301   H     0.51168   0.67960   0.40364   0.00000  Uiso   1.00
H302   H     0.34785   0.46958   0.36123   0.00000  Uiso   1.00
H303   H     0.28773   0.55655   0.18019   0.00000  Uiso   1.00
H304   H     0.66794   0.77019   0.50662   0.00000  Uiso   1.00
H305   H     0.32247   0.32736   0.41718   0.00000  Uiso   1.00
H306   H     0.19569   0.51074   0.03542   0.00000  Uiso   1.00
H307   H     0.51635   0.23286   0.36374   0.00000  Uiso   1.00
H308   H     0.64918   0.33490   0.45366   0.00000  Uiso   1.00
H309   H     0.48535   0.12489   0.41126   0.00000  Uiso   1.00
H310   H     0.42523   0.21186   0.23022   0.00000  Uiso   1.00
H311   H     0.77954   0.49042   0.54723   0.00000  Uiso   1.00
H312   H     0.43406   0.04759   0.45778   0.00000  Uiso   1.00
H313   H     0.30729   0.23097   0.07603   0.00000  Uiso   1.00
O314   O     0.80877   0.70332   0.58524   0.00000  Uiso   1.00
O315   O     0.35551   0.12234   0.46788   0.00000  Uiso   1.00
O316   O     0.18920   0.36294   0.96702   0.00000  Uiso   1.00
N317   N     0.67597   0.69035   0.50382   0.00000  Uiso   1.00
N318   N     0.35298   0.27633   0.42021   0.00000  Uiso   1.00
N319   N     0.23445   0.44776   0.06330   0.00000  Uiso   1.00
N320   N     0.73602   0.53981   0.52567   0.00000  Uiso   1.00
N321   N     0.41304   0.12580   0.44206   0.00000  Uiso   1.00
N322   N     0.29450   0.29722   0.08515   0.00000  Uiso   1.00
C323   C     0.91587   0.98477   0.32718   0.00000  Uiso   1.00
C324   C     0.00222   0.00464   0.38120   0.00000  Uiso   1.00
C325   C     0.04138   0.10520   0.41445   0.00000  Uiso   1.00
C326   C     0.12036   0.10621   0.46221   0.00000  Uiso   1.00
C327   C     0.24862   0.15168   0.54398   0.00000  Uiso   1.00
C328   C     0.91322   0.89054   0.35817   0.00000  Uiso   1.00
C329   C     0.87753   0.89516   0.37204   0.00000  Uiso   1.00
C330   C     0.88157   0.80011   0.40041   0.00000  Uiso   1.00
C331   C     0.87160   0.66841   0.44637   0.00000  Uiso   1.00
C332   C     0.88056   0.93780   0.25980   0.00000  Uiso   1.00
C333   C     0.81740   0.98214   0.19097   0.00000  Uiso   1.00
C334   C     0.79393   0.92685   0.13652   0.00000  Uiso   1.00
C335   C     0.73325   0.86853   0.02976   0.00000  Uiso   1.00
C336   C     0.98649   0.80773   0.35288   0.00000  Uiso   1.00
C337   C     0.04058   0.90848   0.39515   0.00000  Uiso   1.00
C338   C     0.11951   0.90933   0.44287   0.00000  Uiso   1.00
C339   C     0.15878   0.00988   0.47619   0.00000  Uiso   1.00
C340   C     0.95157   0.79438   0.37212   0.00000  Uiso   1.00
C341   C     0.95566   0.69929   0.40047   0.00000  Uiso   1.00
C342   C     0.92000   0.70378   0.41439   0.00000  Uiso   1.00
C343   C     0.91892   0.84164   0.27376   0.00000  Uiso   1.00
C344   C     0.89553   0.78627   0.21940   0.00000  Uiso   1.00
C345   C     0.83236   0.83052   0.15050   0.00000  Uiso   1.00
H346   H     0.88601   0.05962   0.31632   0.00000  Uiso   1.00
H347   H     0.01168   0.17960   0.40364   0.00000  Uiso   1.00
H348   H     0.84785   0.96958   0.36123   0.00000  Uiso   1.00
H349   H     0.78773   0.05655   0.18019   0.00000  Uiso   1.00
H350   H     0.16794   0.27019   0.50662   0.00000  Uiso   1.00
H351   H     0.82247   0.82736   0.41718   0.00000  Uiso   1.00
H352   H     0.69569   0.01074   0.03542   0.00000  Uiso   1.00
H353   H     0.01635   0.73286   0.36374   0.00000  Uiso   1.00
H354   H     0.14918   0.83490   0.45366   0.00000  Uiso   1.00
H355   H     0.98535   0.62489   0.41126   0.00000  Uiso   1.00
H356   H     0.92523   0.71186   0.23022   0.00000  Uiso   1.00
H357   H     0.27954   0.99042   0.54723   0.00000  Uiso   1.00
H358   H     0.93406   0.54759   0.45778   0.00000  Uiso   1.00
H359   H     0.80729   0.73097   0.07603   0.00000  Uiso   1.00
O360   O     0.30877   0.20332   0.58524   0.00000  Uiso   1.00
O361   O     0.85551   0.62234   0.46788   0.00000  Uiso   1.00
O362   O     0.68920   0.86294   0.96702   0.00000  Uiso   1.00
N363   N     0.17597   0.19035   0.50382   0.00000  Uiso   1.00
N364   N     0.85298   0.77633   0.42021   0.00000  Uiso   1.00
N365   N     0.73445   0.94776   0.06330   0.00000  Uiso   1.00
N366   N     0.23602   0.03981   0.52567   0.00000  Uiso   1.00
N367   N     0.91304   0.62580   0.44206   0.00000  Uiso   1.00
N368   N     0.79450   0.79722   0.08515   0.00000  Uiso   1.00
