data_job_04024
_audit_creation_date              2018-12-19
_audit_creation_method            'Materials Studio'
_symmetry_space_group_name_H-M    'P1'
_symmetry_Int_Tables_number       1
_symmetry_cell_setting            triclinic
loop_
_symmetry_equiv_pos_as_xyz
  x,y,z
_cell_length_a                    15.9621
_cell_length_b                    19.1790
_cell_length_c                    10.8071
_cell_angle_alpha                 90.0000
_cell_angle_beta                  75.8477
_cell_angle_gamma                 90.0000
loop_
_atom_site_label
_atom_site_type_symbol
_atom_site_fract_x
_atom_site_fract_y
_atom_site_fract_z
_atom_site_U_iso_or_equiv
_atom_site_adp_type
_atom_site_occupancy
C1     C     0.73754   0.50274   0.40093   0.00000  Uiso   1.00
C2     C     0.82093   0.54306   0.34786   0.00000  Uiso   1.00
C3     C     0.82944   0.60138   0.26976   0.00000  Uiso   1.00
C4     C     0.91120   0.63073   0.23134   0.00000  Uiso   1.00
C5     C     0.02995   0.69757   0.14306   0.00000  Uiso   1.00
C6     C     0.75642   0.42743   0.35782   0.00000  Uiso   1.00
C7     C     0.71068   0.38853   0.28811   0.00000  Uiso   1.00
C8     C     0.73813   0.32055   0.25809   0.00000  Uiso   1.00
C9     C     0.75669   0.20786   0.18535   0.00000  Uiso   1.00
C10    C     0.72440   0.50239   0.54551   0.00000  Uiso   1.00
C11    C     0.65172   0.52649   0.63362   0.00000  Uiso   1.00
C12    C     0.65220   0.52160   0.76163   0.00000  Uiso   1.00
C13    C     0.62104   0.52529   0.98030   0.00000  Uiso   1.00
C14    C     0.86761   0.45116   0.47159   0.00000  Uiso   1.00
C15    C     0.89158   0.51504   0.38624   0.00000  Uiso   1.00
C16    C     0.97335   0.54431   0.34794   0.00000  Uiso   1.00
C17    C     0.98198   0.60267   0.26980   0.00000  Uiso   1.00
C18    C     0.82707   0.39942   0.39620   0.00000  Uiso   1.00
C19    C     0.85459   0.33147   0.36628   0.00000  Uiso   1.00
C20    C     0.80891   0.29248   0.29654   0.00000  Uiso   1.00
C21    C     0.79505   0.47437   0.58389   0.00000  Uiso   1.00
C22    C     0.79564   0.46943   0.71179   0.00000  Uiso   1.00
C23    C     0.72298   0.49353   0.80007   0.00000  Uiso   1.00
H24    H     0.68253   0.52455   0.37104   0.00000  Uiso   1.00
H25    H     0.77475   0.62304   0.24007   0.00000  Uiso   1.00
H26    H     0.65600   0.41023   0.25843   0.00000  Uiso   1.00
H27    H     0.59706   0.54817   0.60388   0.00000  Uiso   1.00
H28    H     0.90816   0.71986   0.11175   0.00000  Uiso   1.00
H29    H     0.65775   0.27113   0.15050   0.00000  Uiso   1.00
H30    H     0.53346   0.56201   0.87895   0.00000  Uiso   1.00
H31    H     0.92261   0.42935   0.50147   0.00000  Uiso   1.00
H32    H     0.02801   0.52262   0.37765   0.00000  Uiso   1.00
H33    H     0.90926   0.30981   0.39601   0.00000  Uiso   1.00
H34    H     0.85032   0.44775   0.74146   0.00000  Uiso   1.00
H35    H     0.11371   0.63836   0.22341   0.00000  Uiso   1.00
H36    H     0.86330   0.18963   0.26216   0.00000  Uiso   1.00
H37    H     0.73901   0.48051   0.99061   0.00000  Uiso   1.00
O38    O     0.07594   0.74217   0.08374   0.00000  Uiso   1.00
O39    O     0.74741   0.15345   0.13460   0.00000  Uiso   1.00
O40    O     0.58434   0.53508   0.09031   0.00000  Uiso   1.00
N41    N     0.94207   0.68789   0.15504   0.00000  Uiso   1.00
N42    N     0.70796   0.26836   0.19125   0.00000  Uiso   1.00
N43    N     0.59175   0.54028   0.87230   0.00000  Uiso   1.00
N44    N     0.05267   0.64404   0.21513   0.00000  Uiso   1.00
N45    N     0.81857   0.22450   0.25134   0.00000  Uiso   1.00
N46    N     0.70235   0.49643   0.93238   0.00000  Uiso   1.00
C47    C     0.23754   0.00274   0.40093   0.00000  Uiso   1.00
C48    C     0.32093   0.04306   0.34786   0.00000  Uiso   1.00
C49    C     0.32944   0.10138   0.26976   0.00000  Uiso   1.00
C50    C     0.41120   0.13073   0.23134   0.00000  Uiso   1.00
C51    C     0.52995   0.19757   0.14306   0.00000  Uiso   1.00
C52    C     0.25642   0.92743   0.35782   0.00000  Uiso   1.00
C53    C     0.21068   0.88853   0.28811   0.00000  Uiso   1.00
C54    C     0.23813   0.82055   0.25809   0.00000  Uiso   1.00
C55    C     0.25669   0.70786   0.18535   0.00000  Uiso   1.00
C56    C     0.22440   0.00239   0.54551   0.00000  Uiso   1.00
C57    C     0.15172   0.02649   0.63362   0.00000  Uiso   1.00
C58    C     0.15220   0.02160   0.76163   0.00000  Uiso   1.00
C59    C     0.12104   0.02529   0.98030   0.00000  Uiso   1.00
C60    C     0.36761   0.95116   0.47159   0.00000  Uiso   1.00
C61    C     0.39158   0.01504   0.38624   0.00000  Uiso   1.00
C62    C     0.47335   0.04431   0.34794   0.00000  Uiso   1.00
C63    C     0.48198   0.10267   0.26980   0.00000  Uiso   1.00
C64    C     0.32707   0.89942   0.39620   0.00000  Uiso   1.00
C65    C     0.35459   0.83147   0.36628   0.00000  Uiso   1.00
C66    C     0.30891   0.79248   0.29654   0.00000  Uiso   1.00
C67    C     0.29505   0.97437   0.58389   0.00000  Uiso   1.00
C68    C     0.29564   0.96943   0.71179   0.00000  Uiso   1.00
C69    C     0.22298   0.99353   0.80007   0.00000  Uiso   1.00
H70    H     0.18253   0.02455   0.37104   0.00000  Uiso   1.00
H71    H     0.27475   0.12304   0.24007   0.00000  Uiso   1.00
H72    H     0.15600   0.91023   0.25843   0.00000  Uiso   1.00
H73    H     0.09706   0.04817   0.60388   0.00000  Uiso   1.00
H74    H     0.40816   0.21986   0.11175   0.00000  Uiso   1.00
H75    H     0.15775   0.77113   0.15050   0.00000  Uiso   1.00
H76    H     0.03346   0.06201   0.87895   0.00000  Uiso   1.00
H77    H     0.42261   0.92935   0.50147   0.00000  Uiso   1.00
H78    H     0.52801   0.02262   0.37765   0.00000  Uiso   1.00
H79    H     0.40926   0.80981   0.39601   0.00000  Uiso   1.00
H80    H     0.35032   0.94775   0.74146   0.00000  Uiso   1.00
H81    H     0.61371   0.13836   0.22341   0.00000  Uiso   1.00
H82    H     0.36330   0.68963   0.26216   0.00000  Uiso   1.00
H83    H     0.23901   0.98051   0.99061   0.00000  Uiso   1.00
O84    O     0.57594   0.24217   0.08374   0.00000  Uiso   1.00
O85    O     0.24741   0.65345   0.13460   0.00000  Uiso   1.00
O86    O     0.08434   0.03508   0.09031   0.00000  Uiso   1.00
N87    N     0.44207   0.18789   0.15504   0.00000  Uiso   1.00
N88    N     0.20796   0.76836   0.19125   0.00000  Uiso   1.00
N89    N     0.09175   0.04028   0.87230   0.00000  Uiso   1.00
N90    N     0.55267   0.14404   0.21513   0.00000  Uiso   1.00
N91    N     0.31857   0.72450   0.25134   0.00000  Uiso   1.00
N92    N     0.20235   0.99643   0.93238   0.00000  Uiso   1.00
C93    C     0.26246   0.50274   0.59907   0.00000  Uiso   1.00
C94    C     0.17907   0.54306   0.65214   0.00000  Uiso   1.00
C95    C     0.17056   0.60138   0.73024   0.00000  Uiso   1.00
C96    C     0.08880   0.63073   0.76866   0.00000  Uiso   1.00
C97    C     0.97005   0.69757   0.85694   0.00000  Uiso   1.00
C98    C     0.24358   0.42743   0.64218   0.00000  Uiso   1.00
C99    C     0.28932   0.38853   0.71189   0.00000  Uiso   1.00
C100   C     0.26187   0.32055   0.74191   0.00000  Uiso   1.00
C101   C     0.24331   0.20786   0.81465   0.00000  Uiso   1.00
C102   C     0.27560   0.50239   0.45449   0.00000  Uiso   1.00
C103   C     0.34828   0.52649   0.36638   0.00000  Uiso   1.00
C104   C     0.34780   0.52160   0.23837   0.00000  Uiso   1.00
C105   C     0.37896   0.52529   0.01970   0.00000  Uiso   1.00
C106   C     0.13239   0.45116   0.52841   0.00000  Uiso   1.00
C107   C     0.10842   0.51504   0.61376   0.00000  Uiso   1.00
C108   C     0.02665   0.54431   0.65206   0.00000  Uiso   1.00
C109   C     0.01802   0.60267   0.73020   0.00000  Uiso   1.00
C110   C     0.17293   0.39942   0.60380   0.00000  Uiso   1.00
C111   C     0.14541   0.33147   0.63372   0.00000  Uiso   1.00
C112   C     0.19109   0.29248   0.70346   0.00000  Uiso   1.00
C113   C     0.20495   0.47437   0.41611   0.00000  Uiso   1.00
C114   C     0.20436   0.46943   0.28821   0.00000  Uiso   1.00
C115   C     0.27702   0.49353   0.19993   0.00000  Uiso   1.00
H116   H     0.31747   0.52455   0.62896   0.00000  Uiso   1.00
H117   H     0.22525   0.62304   0.75993   0.00000  Uiso   1.00
H118   H     0.34400   0.41023   0.74157   0.00000  Uiso   1.00
H119   H     0.40294   0.54817   0.39612   0.00000  Uiso   1.00
H120   H     0.09184   0.71986   0.88825   0.00000  Uiso   1.00
H121   H     0.34225   0.27113   0.84950   0.00000  Uiso   1.00
H122   H     0.46654   0.56201   0.12105   0.00000  Uiso   1.00
H123   H     0.07739   0.42935   0.49853   0.00000  Uiso   1.00
H124   H     0.97199   0.52262   0.62235   0.00000  Uiso   1.00
H125   H     0.09074   0.30981   0.60399   0.00000  Uiso   1.00
H126   H     0.14968   0.44775   0.25854   0.00000  Uiso   1.00
H127   H     0.88629   0.63836   0.77659   0.00000  Uiso   1.00
H128   H     0.13670   0.18963   0.73784   0.00000  Uiso   1.00
H129   H     0.26099   0.48051   0.00939   0.00000  Uiso   1.00
O130   O     0.92406   0.74217   0.91626   0.00000  Uiso   1.00
O131   O     0.25259   0.15345   0.86540   0.00000  Uiso   1.00
O132   O     0.41566   0.53508   0.90969   0.00000  Uiso   1.00
N133   N     0.05793   0.68789   0.84496   0.00000  Uiso   1.00
N134   N     0.29204   0.26836   0.80875   0.00000  Uiso   1.00
N135   N     0.40825   0.54028   0.12770   0.00000  Uiso   1.00
N136   N     0.94733   0.64404   0.78487   0.00000  Uiso   1.00
N137   N     0.18143   0.22450   0.74866   0.00000  Uiso   1.00
N138   N     0.29765   0.49643   0.06762   0.00000  Uiso   1.00
C139   C     0.76246   0.00274   0.59907   0.00000  Uiso   1.00
C140   C     0.67907   0.04306   0.65214   0.00000  Uiso   1.00
C141   C     0.67056   0.10138   0.73024   0.00000  Uiso   1.00
C142   C     0.58880   0.13073   0.76866   0.00000  Uiso   1.00
C143   C     0.47005   0.19757   0.85694   0.00000  Uiso   1.00
C144   C     0.74358   0.92743   0.64218   0.00000  Uiso   1.00
C145   C     0.78932   0.88853   0.71189   0.00000  Uiso   1.00
C146   C     0.76187   0.82055   0.74191   0.00000  Uiso   1.00
C147   C     0.74331   0.70786   0.81465   0.00000  Uiso   1.00
C148   C     0.77560   0.00239   0.45449   0.00000  Uiso   1.00
C149   C     0.84828   0.02649   0.36638   0.00000  Uiso   1.00
C150   C     0.84780   0.02160   0.23837   0.00000  Uiso   1.00
C151   C     0.87896   0.02529   0.01970   0.00000  Uiso   1.00
C152   C     0.63239   0.95116   0.52841   0.00000  Uiso   1.00
C153   C     0.60842   0.01504   0.61376   0.00000  Uiso   1.00
C154   C     0.52665   0.04431   0.65206   0.00000  Uiso   1.00
C155   C     0.51802   0.10267   0.73020   0.00000  Uiso   1.00
C156   C     0.67293   0.89942   0.60380   0.00000  Uiso   1.00
C157   C     0.64541   0.83147   0.63372   0.00000  Uiso   1.00
C158   C     0.69109   0.79248   0.70346   0.00000  Uiso   1.00
C159   C     0.70495   0.97437   0.41611   0.00000  Uiso   1.00
C160   C     0.70436   0.96943   0.28821   0.00000  Uiso   1.00
C161   C     0.77702   0.99353   0.19993   0.00000  Uiso   1.00
H162   H     0.81747   0.02455   0.62896   0.00000  Uiso   1.00
H163   H     0.72525   0.12304   0.75993   0.00000  Uiso   1.00
H164   H     0.84400   0.91023   0.74157   0.00000  Uiso   1.00
H165   H     0.90294   0.04817   0.39612   0.00000  Uiso   1.00
H166   H     0.59184   0.21986   0.88825   0.00000  Uiso   1.00
H167   H     0.84225   0.77113   0.84950   0.00000  Uiso   1.00
H168   H     0.96654   0.06201   0.12105   0.00000  Uiso   1.00
H169   H     0.57739   0.92935   0.49853   0.00000  Uiso   1.00
H170   H     0.47199   0.02262   0.62235   0.00000  Uiso   1.00
H171   H     0.59074   0.80981   0.60399   0.00000  Uiso   1.00
H172   H     0.64968   0.94775   0.25854   0.00000  Uiso   1.00
H173   H     0.38629   0.13836   0.77659   0.00000  Uiso   1.00
H174   H     0.63670   0.68963   0.73784   0.00000  Uiso   1.00
H175   H     0.76099   0.98051   0.00939   0.00000  Uiso   1.00
O176   O     0.42406   0.24217   0.91626   0.00000  Uiso   1.00
O177   O     0.75259   0.65345   0.86540   0.00000  Uiso   1.00
O178   O     0.91566   0.03508   0.90969   0.00000  Uiso   1.00
N179   N     0.55793   0.18789   0.84496   0.00000  Uiso   1.00
N180   N     0.79204   0.76836   0.80875   0.00000  Uiso   1.00
N181   N     0.90825   0.04028   0.12770   0.00000  Uiso   1.00
N182   N     0.44733   0.14404   0.78487   0.00000  Uiso   1.00
N183   N     0.68143   0.72450   0.74866   0.00000  Uiso   1.00
N184   N     0.79765   0.99643   0.06762   0.00000  Uiso   1.00
