data_job_04647
_audit_creation_date              2018-12-19
_audit_creation_method            'Materials Studio'
_symmetry_space_group_name_H-M    'P1'
_symmetry_Int_Tables_number       1
_symmetry_cell_setting            triclinic
loop_
_symmetry_equiv_pos_as_xyz
  x,y,z
_cell_length_a                    17.7398
_cell_length_b                    17.7398
_cell_length_c                    13.2988
_cell_angle_alpha                 90.0000
_cell_angle_beta                  90.0000
_cell_angle_gamma                 120.0000
loop_
_atom_site_label
_atom_site_type_symbol
_atom_site_fract_x
_atom_site_fract_y
_atom_site_fract_z
_atom_site_U_iso_or_equiv
_atom_site_adp_type
_atom_site_occupancy
C1     C     0.52817   0.89247   0.51026   0.00000  Uiso   1.00
C2     C     0.55714   0.89647   0.40148   0.00000  Uiso   1.00
C3     C     0.54557   0.94234   0.32427   0.00000  Uiso   1.00
C4     C     0.57668   0.93773   0.23001   0.00000  Uiso   1.00
C5     C     0.61536   0.95133   0.06358   0.00000  Uiso   1.00
C6     C     0.46966   0.79616   0.53435   0.00000  Uiso   1.00
C7     C     0.38453   0.75771   0.56886   0.00000  Uiso   1.00
C8     C     0.34201   0.66866   0.58647   0.00000  Uiso   1.00
C9     C     0.24489   0.52653   0.62638   0.00000  Uiso   1.00
C10    C     0.60967   0.92325   0.57434   0.00000  Uiso   1.00
C11    C     0.64226   0.99163   0.64250   0.00000  Uiso   1.00
C12    C     0.71761   0.00957   0.69379   0.00000  Uiso   1.00
C13    C     0.83788   0.06477   0.79580   0.00000  Uiso   1.00
C14    C     0.60400   0.80271   0.48019   0.00000  Uiso   1.00
C15    C     0.59833   0.84771   0.38515   0.00000  Uiso   1.00
C16    C     0.62947   0.84303   0.29099   0.00000  Uiso   1.00
C17    C     0.61795   0.88889   0.21365   0.00000  Uiso   1.00
C18    C     0.51084   0.74741   0.51801   0.00000  Uiso   1.00
C19    C     0.46844   0.65840   0.53558   0.00000  Uiso   1.00
C20    C     0.38327   0.61981   0.57010   0.00000  Uiso   1.00
C21    C     0.65086   0.87450   0.55800   0.00000  Uiso   1.00
C22    C     0.72617   0.89232   0.60921   0.00000  Uiso   1.00
C23    C     0.75887   0.96072   0.67743   0.00000  Uiso   1.00
H24    H     0.49610   0.93042   0.52299   0.00000  Uiso   1.00
H25    H     0.51368   0.98006   0.33694   0.00000  Uiso   1.00
H26    H     0.35268   0.79545   0.58150   0.00000  Uiso   1.00
H27    H     0.61037   0.02935   0.65512   0.00000  Uiso   1.00
H28    H     0.55131   0.01357   0.12346   0.00000  Uiso   1.00
H29    H     0.21184   0.62432   0.63917   0.00000  Uiso   1.00
H30    H     0.75523   0.11753   0.79441   0.00000  Uiso   1.00
H31    H     0.63607   0.76475   0.46747   0.00000  Uiso   1.00
H32    H     0.66134   0.80530   0.27837   0.00000  Uiso   1.00
H33    H     0.50033   0.62069   0.52293   0.00000  Uiso   1.00
H34    H     0.75802   0.85458   0.59655   0.00000  Uiso   1.00
H35    H     0.67115   0.87172   0.07592   0.00000  Uiso   1.00
H36    H     0.33168   0.48247   0.59164   0.00000  Uiso   1.00
H37    H     0.87507   0.97568   0.74687   0.00000  Uiso   1.00
O38    O     0.62530   0.97228   0.97629   0.00000  Uiso   1.00
O39    O     0.17994   0.46161   0.65290   0.00000  Uiso   1.00
O40    O     0.89285   0.10869   0.85657   0.00000  Uiso   1.00
N41    N     0.57606   0.97463   0.13823   0.00000  Uiso   1.00
N42    N     0.25867   0.61071   0.62037   0.00000  Uiso   1.00
N43    N     0.76668   0.07180   0.76553   0.00000  Uiso   1.00
N44    N     0.64055   0.89831   0.11265   0.00000  Uiso   1.00
N45    N     0.32316   0.53438   0.59479   0.00000  Uiso   1.00
N46    N     0.83117   0.99547   0.73995   0.00000  Uiso   1.00
C47    C     0.10753   0.63570   0.84360   0.00000  Uiso   1.00
C48    C     0.10353   0.66067   0.73482   0.00000  Uiso   1.00
C49    C     0.05766   0.60322   0.65760   0.00000  Uiso   1.00
C50    C     0.06227   0.63895   0.56335   0.00000  Uiso   1.00
C51    C     0.04867   0.66403   0.39692   0.00000  Uiso   1.00
C52    C     0.20384   0.67349   0.86768   0.00000  Uiso   1.00
C53    C     0.24229   0.62683   0.90219   0.00000  Uiso   1.00
C54    C     0.33134   0.67335   0.91980   0.00000  Uiso   1.00
C55    C     0.47347   0.71836   0.95971   0.00000  Uiso   1.00
C56    C     0.07675   0.68642   0.90767   0.00000  Uiso   1.00
C57    C     0.00837   0.65063   0.97583   0.00000  Uiso   1.00
C58    C     0.99043   0.70804   0.02713   0.00000  Uiso   1.00
C59    C     0.93523   0.77311   0.12913   0.00000  Uiso   1.00
C60    C     0.19729   0.80130   0.81352   0.00000  Uiso   1.00
C61    C     0.15229   0.75061   0.71848   0.00000  Uiso   1.00
C62    C     0.15697   0.78644   0.62432   0.00000  Uiso   1.00
C63    C     0.11111   0.72905   0.54698   0.00000  Uiso   1.00
C64    C     0.25259   0.76343   0.85135   0.00000  Uiso   1.00
C65    C     0.34160   0.81004   0.86891   0.00000  Uiso   1.00
C66    C     0.38019   0.76346   0.90343   0.00000  Uiso   1.00
C67    C     0.12550   0.77636   0.89134   0.00000  Uiso   1.00
C68    C     0.10768   0.83384   0.94255   0.00000  Uiso   1.00
C69    C     0.03928   0.79815   0.01076   0.00000  Uiso   1.00
H70    H     0.06958   0.56567   0.85632   0.00000  Uiso   1.00
H71    H     0.01994   0.53362   0.67027   0.00000  Uiso   1.00
H72    H     0.20455   0.55722   0.91484   0.00000  Uiso   1.00
H73    H     0.97065   0.58102   0.98846   0.00000  Uiso   1.00
H74    H     0.98643   0.53774   0.45679   0.00000  Uiso   1.00
H75    H     0.37568   0.58752   0.97250   0.00000  Uiso   1.00
H76    H     0.88247   0.63770   0.12775   0.00000  Uiso   1.00
H77    H     0.23525   0.87133   0.80080   0.00000  Uiso   1.00
H78    H     0.19470   0.85604   0.61170   0.00000  Uiso   1.00
H79    H     0.37931   0.87965   0.85627   0.00000  Uiso   1.00
H80    H     0.14542   0.90344   0.92988   0.00000  Uiso   1.00
H81    H     0.12828   0.79943   0.40925   0.00000  Uiso   1.00
H82    H     0.51753   0.84921   0.92497   0.00000  Uiso   1.00
H83    H     0.02432   0.89939   0.08021   0.00000  Uiso   1.00
O84    O     0.02772   0.65302   0.30962   0.00000  Uiso   1.00
O85    O     0.53839   0.71832   0.98623   0.00000  Uiso   1.00
O86    O     0.89131   0.78416   0.18990   0.00000  Uiso   1.00
N87    N     0.02537   0.60143   0.47156   0.00000  Uiso   1.00
N88    N     0.38929   0.64797   0.95370   0.00000  Uiso   1.00
N89    N     0.92820   0.69488   0.09886   0.00000  Uiso   1.00
N90    N     0.10169   0.74225   0.44598   0.00000  Uiso   1.00
N91    N     0.46562   0.78878   0.92812   0.00000  Uiso   1.00
N92    N     0.00453   0.83570   0.07328   0.00000  Uiso   1.00
C93    C     0.36430   0.47183   0.17693   0.00000  Uiso   1.00
C94    C     0.33933   0.44286   0.06815   0.00000  Uiso   1.00
C95    C     0.39678   0.45443   0.99093   0.00000  Uiso   1.00
C96    C     0.36105   0.42332   0.89668   0.00000  Uiso   1.00
C97    C     0.33597   0.38464   0.73025   0.00000  Uiso   1.00
C98    C     0.32651   0.53034   0.20102   0.00000  Uiso   1.00
C99    C     0.37317   0.61547   0.23553   0.00000  Uiso   1.00
C100   C     0.32665   0.65799   0.25313   0.00000  Uiso   1.00
C101   C     0.28164   0.75511   0.29305   0.00000  Uiso   1.00
C102   C     0.31358   0.39033   0.24101   0.00000  Uiso   1.00
C103   C     0.34937   0.35774   0.30917   0.00000  Uiso   1.00
C104   C     0.29196   0.28239   0.36046   0.00000  Uiso   1.00
C105   C     0.22689   0.16212   0.46247   0.00000  Uiso   1.00
C106   C     0.19870   0.39600   0.14685   0.00000  Uiso   1.00
C107   C     0.24939   0.40167   0.05182   0.00000  Uiso   1.00
C108   C     0.21356   0.37053   0.95766   0.00000  Uiso   1.00
C109   C     0.27095   0.38205   0.88031   0.00000  Uiso   1.00
C110   C     0.23657   0.48916   0.18468   0.00000  Uiso   1.00
C111   C     0.18996   0.53156   0.20225   0.00000  Uiso   1.00
C112   C     0.23654   0.61673   0.23677   0.00000  Uiso   1.00
C113   C     0.22364   0.34914   0.22467   0.00000  Uiso   1.00
C114   C     0.16616   0.27383   0.27588   0.00000  Uiso   1.00
C115   C     0.20185   0.24113   0.34410   0.00000  Uiso   1.00
H116   H     0.43433   0.50390   0.18965   0.00000  Uiso   1.00
H117   H     0.46638   0.48632   0.00361   0.00000  Uiso   1.00
H118   H     0.44278   0.64732   0.24817   0.00000  Uiso   1.00
H119   H     0.41898   0.38963   0.32179   0.00000  Uiso   1.00
H120   H     0.46226   0.44869   0.79013   0.00000  Uiso   1.00
H121   H     0.41248   0.78816   0.30584   0.00000  Uiso   1.00
H122   H     0.36230   0.24477   0.46108   0.00000  Uiso   1.00
H123   H     0.12867   0.36393   0.13413   0.00000  Uiso   1.00
H124   H     0.14396   0.33866   0.94504   0.00000  Uiso   1.00
H125   H     0.12035   0.49967   0.18960   0.00000  Uiso   1.00
H126   H     0.09656   0.24198   0.26322   0.00000  Uiso   1.00
H127   H     0.20057   0.32885   0.74259   0.00000  Uiso   1.00
H128   H     0.15079   0.66832   0.25830   0.00000  Uiso   1.00
H129   H     0.10061   0.12493   0.41354   0.00000  Uiso   1.00
O130   O     0.34698   0.37470   0.64296   0.00000  Uiso   1.00
O131   O     0.28168   0.82006   0.31957   0.00000  Uiso   1.00
O132   O     0.21584   0.10715   0.52324   0.00000  Uiso   1.00
N133   N     0.39857   0.42394   0.80489   0.00000  Uiso   1.00
N134   N     0.35203   0.74133   0.28704   0.00000  Uiso   1.00
N135   N     0.30512   0.23332   0.43220   0.00000  Uiso   1.00
N136   N     0.25775   0.35945   0.77931   0.00000  Uiso   1.00
N137   N     0.21122   0.67684   0.26146   0.00000  Uiso   1.00
N138   N     0.16430   0.16883   0.40662   0.00000  Uiso   1.00
C139   C     0.47183   0.10753   0.01026   0.00000  Uiso   1.00
C140   C     0.44286   0.10353   0.90148   0.00000  Uiso   1.00
C141   C     0.45443   0.05766   0.82427   0.00000  Uiso   1.00
C142   C     0.42332   0.06227   0.73001   0.00000  Uiso   1.00
C143   C     0.38464   0.04867   0.56358   0.00000  Uiso   1.00
C144   C     0.53034   0.20384   0.03435   0.00000  Uiso   1.00
C145   C     0.61547   0.24229   0.06886   0.00000  Uiso   1.00
C146   C     0.65799   0.33134   0.08647   0.00000  Uiso   1.00
C147   C     0.75511   0.47347   0.12638   0.00000  Uiso   1.00
C148   C     0.39033   0.07675   0.07434   0.00000  Uiso   1.00
C149   C     0.35774   0.00837   0.14250   0.00000  Uiso   1.00
C150   C     0.28239   0.99043   0.19379   0.00000  Uiso   1.00
C151   C     0.16212   0.93523   0.29580   0.00000  Uiso   1.00
C152   C     0.39600   0.19729   0.98019   0.00000  Uiso   1.00
C153   C     0.40167   0.15229   0.88515   0.00000  Uiso   1.00
C154   C     0.37053   0.15697   0.79099   0.00000  Uiso   1.00
C155   C     0.38205   0.11111   0.71365   0.00000  Uiso   1.00
C156   C     0.48916   0.25259   0.01801   0.00000  Uiso   1.00
C157   C     0.53156   0.34160   0.03558   0.00000  Uiso   1.00
C158   C     0.61673   0.38019   0.07010   0.00000  Uiso   1.00
C159   C     0.34914   0.12550   0.05800   0.00000  Uiso   1.00
C160   C     0.27383   0.10768   0.10921   0.00000  Uiso   1.00
C161   C     0.24113   0.03928   0.17743   0.00000  Uiso   1.00
H162   H     0.50390   0.06958   0.02299   0.00000  Uiso   1.00
H163   H     0.48632   0.01994   0.83694   0.00000  Uiso   1.00
H164   H     0.64732   0.20455   0.08150   0.00000  Uiso   1.00
H165   H     0.38963   0.97065   0.15512   0.00000  Uiso   1.00
H166   H     0.44869   0.98643   0.62346   0.00000  Uiso   1.00
H167   H     0.78816   0.37568   0.13917   0.00000  Uiso   1.00
H168   H     0.24477   0.88247   0.29441   0.00000  Uiso   1.00
H169   H     0.36393   0.23525   0.96747   0.00000  Uiso   1.00
H170   H     0.33866   0.19470   0.77837   0.00000  Uiso   1.00
H171   H     0.49967   0.37931   0.02293   0.00000  Uiso   1.00
H172   H     0.24198   0.14542   0.09655   0.00000  Uiso   1.00
H173   H     0.32885   0.12828   0.57592   0.00000  Uiso   1.00
H174   H     0.66832   0.51753   0.09164   0.00000  Uiso   1.00
H175   H     0.12493   0.02432   0.24687   0.00000  Uiso   1.00
O176   O     0.37470   0.02772   0.47629   0.00000  Uiso   1.00
O177   O     0.82006   0.53839   0.15290   0.00000  Uiso   1.00
O178   O     0.10715   0.89131   0.35657   0.00000  Uiso   1.00
N179   N     0.42394   0.02537   0.63823   0.00000  Uiso   1.00
N180   N     0.74133   0.38929   0.12037   0.00000  Uiso   1.00
N181   N     0.23332   0.92820   0.26553   0.00000  Uiso   1.00
N182   N     0.35945   0.10169   0.61265   0.00000  Uiso   1.00
N183   N     0.67684   0.46562   0.09479   0.00000  Uiso   1.00
N184   N     0.16883   0.00453   0.23995   0.00000  Uiso   1.00
C185   C     0.89247   0.36430   0.34360   0.00000  Uiso   1.00
C186   C     0.89647   0.33933   0.23482   0.00000  Uiso   1.00
C187   C     0.94234   0.39678   0.15760   0.00000  Uiso   1.00
C188   C     0.93773   0.36105   0.06335   0.00000  Uiso   1.00
C189   C     0.95133   0.33597   0.89692   0.00000  Uiso   1.00
C190   C     0.79616   0.32651   0.36768   0.00000  Uiso   1.00
C191   C     0.75771   0.37317   0.40219   0.00000  Uiso   1.00
C192   C     0.66866   0.32665   0.41980   0.00000  Uiso   1.00
C193   C     0.52653   0.28164   0.45971   0.00000  Uiso   1.00
C194   C     0.92325   0.31358   0.40767   0.00000  Uiso   1.00
C195   C     0.99163   0.34937   0.47583   0.00000  Uiso   1.00
C196   C     0.00957   0.29196   0.52713   0.00000  Uiso   1.00
C197   C     0.06477   0.22689   0.62913   0.00000  Uiso   1.00
C198   C     0.80271   0.19870   0.31352   0.00000  Uiso   1.00
C199   C     0.84771   0.24939   0.21848   0.00000  Uiso   1.00
C200   C     0.84303   0.21356   0.12432   0.00000  Uiso   1.00
C201   C     0.88889   0.27095   0.04698   0.00000  Uiso   1.00
C202   C     0.74741   0.23657   0.35135   0.00000  Uiso   1.00
C203   C     0.65840   0.18996   0.36891   0.00000  Uiso   1.00
C204   C     0.61981   0.23654   0.40343   0.00000  Uiso   1.00
C205   C     0.87450   0.22364   0.39134   0.00000  Uiso   1.00
C206   C     0.89232   0.16616   0.44255   0.00000  Uiso   1.00
C207   C     0.96072   0.20185   0.51076   0.00000  Uiso   1.00
H208   H     0.93042   0.43433   0.35632   0.00000  Uiso   1.00
H209   H     0.98006   0.46638   0.17027   0.00000  Uiso   1.00
H210   H     0.79545   0.44278   0.41484   0.00000  Uiso   1.00
H211   H     0.02935   0.41898   0.48846   0.00000  Uiso   1.00
H212   H     0.01357   0.46226   0.95679   0.00000  Uiso   1.00
H213   H     0.62432   0.41248   0.47250   0.00000  Uiso   1.00
H214   H     0.11753   0.36230   0.62775   0.00000  Uiso   1.00
H215   H     0.76475   0.12867   0.30080   0.00000  Uiso   1.00
H216   H     0.80530   0.14396   0.11170   0.00000  Uiso   1.00
H217   H     0.62069   0.12035   0.35627   0.00000  Uiso   1.00
H218   H     0.85458   0.09656   0.42988   0.00000  Uiso   1.00
H219   H     0.87172   0.20057   0.90925   0.00000  Uiso   1.00
H220   H     0.48247   0.15079   0.42497   0.00000  Uiso   1.00
H221   H     0.97568   0.10061   0.58021   0.00000  Uiso   1.00
O222   O     0.97228   0.34698   0.80962   0.00000  Uiso   1.00
O223   O     0.46161   0.28168   0.48623   0.00000  Uiso   1.00
O224   O     0.10869   0.21584   0.68990   0.00000  Uiso   1.00
N225   N     0.97463   0.39857   0.97156   0.00000  Uiso   1.00
N226   N     0.61071   0.35203   0.45370   0.00000  Uiso   1.00
N227   N     0.07180   0.30512   0.59886   0.00000  Uiso   1.00
N228   N     0.89831   0.25775   0.94598   0.00000  Uiso   1.00
N229   N     0.53438   0.21122   0.42812   0.00000  Uiso   1.00
N230   N     0.99547   0.16430   0.57328   0.00000  Uiso   1.00
C231   C     0.63570   0.52817   0.67693   0.00000  Uiso   1.00
C232   C     0.66067   0.55714   0.56815   0.00000  Uiso   1.00
C233   C     0.60322   0.54557   0.49093   0.00000  Uiso   1.00
C234   C     0.63895   0.57668   0.39668   0.00000  Uiso   1.00
C235   C     0.66403   0.61536   0.23025   0.00000  Uiso   1.00
C236   C     0.67349   0.46966   0.70102   0.00000  Uiso   1.00
C237   C     0.62683   0.38453   0.73553   0.00000  Uiso   1.00
C238   C     0.67335   0.34201   0.75313   0.00000  Uiso   1.00
C239   C     0.71836   0.24489   0.79305   0.00000  Uiso   1.00
C240   C     0.68642   0.60967   0.74101   0.00000  Uiso   1.00
C241   C     0.65063   0.64226   0.80917   0.00000  Uiso   1.00
C242   C     0.70804   0.71761   0.86046   0.00000  Uiso   1.00
C243   C     0.77311   0.83788   0.96247   0.00000  Uiso   1.00
C244   C     0.80130   0.60400   0.64685   0.00000  Uiso   1.00
C245   C     0.75061   0.59833   0.55182   0.00000  Uiso   1.00
C246   C     0.78644   0.62947   0.45766   0.00000  Uiso   1.00
C247   C     0.72905   0.61795   0.38031   0.00000  Uiso   1.00
C248   C     0.76343   0.51084   0.68468   0.00000  Uiso   1.00
C249   C     0.81004   0.46844   0.70225   0.00000  Uiso   1.00
C250   C     0.76346   0.38327   0.73677   0.00000  Uiso   1.00
C251   C     0.77636   0.65086   0.72467   0.00000  Uiso   1.00
C252   C     0.83384   0.72617   0.77588   0.00000  Uiso   1.00
C253   C     0.79815   0.75887   0.84410   0.00000  Uiso   1.00
H254   H     0.56567   0.49610   0.68965   0.00000  Uiso   1.00
H255   H     0.53362   0.51368   0.50361   0.00000  Uiso   1.00
H256   H     0.55722   0.35268   0.74817   0.00000  Uiso   1.00
H257   H     0.58102   0.61037   0.82179   0.00000  Uiso   1.00
H258   H     0.53774   0.55131   0.29013   0.00000  Uiso   1.00
H259   H     0.58752   0.21184   0.80584   0.00000  Uiso   1.00
H260   H     0.63770   0.75523   0.96108   0.00000  Uiso   1.00
H261   H     0.87133   0.63607   0.63413   0.00000  Uiso   1.00
H262   H     0.85604   0.66134   0.44504   0.00000  Uiso   1.00
H263   H     0.87965   0.50033   0.68960   0.00000  Uiso   1.00
H264   H     0.90344   0.75802   0.76322   0.00000  Uiso   1.00
H265   H     0.79943   0.67115   0.24259   0.00000  Uiso   1.00
H266   H     0.84921   0.33168   0.75830   0.00000  Uiso   1.00
H267   H     0.89939   0.87507   0.91354   0.00000  Uiso   1.00
O268   O     0.65302   0.62530   0.14296   0.00000  Uiso   1.00
O269   O     0.71832   0.17994   0.81957   0.00000  Uiso   1.00
O270   O     0.78416   0.89285   0.02324   0.00000  Uiso   1.00
N271   N     0.60143   0.57606   0.30489   0.00000  Uiso   1.00
N272   N     0.64797   0.25867   0.78704   0.00000  Uiso   1.00
N273   N     0.69488   0.76668   0.93220   0.00000  Uiso   1.00
N274   N     0.74225   0.64055   0.27931   0.00000  Uiso   1.00
N275   N     0.78878   0.32316   0.76146   0.00000  Uiso   1.00
N276   N     0.83570   0.83117   0.90662   0.00000  Uiso   1.00
