data_job_01908
_audit_creation_date              2018-12-19
_audit_creation_method            'Materials Studio'
_symmetry_space_group_name_H-M    'P1'
_symmetry_Int_Tables_number       1
_symmetry_cell_setting            triclinic
loop_
_symmetry_equiv_pos_as_xyz
  x,y,z
_cell_length_a                    10.6399
_cell_length_b                    10.6399
_cell_length_c                    46.6450
_cell_angle_alpha                 90.0000
_cell_angle_beta                  90.0000
_cell_angle_gamma                 90.0000
loop_
_atom_site_label
_atom_site_type_symbol
_atom_site_fract_x
_atom_site_fract_y
_atom_site_fract_z
_atom_site_U_iso_or_equiv
_atom_site_adp_type
_atom_site_occupancy
C1     C     0.47463   0.97459   0.42654   0.00000  Uiso   1.00
C2     C     0.35914   0.05872   0.42912   0.00000  Uiso   1.00
C3     C     0.23510   0.01846   0.42870   0.00000  Uiso   1.00
C4     C     0.14293   0.11009   0.43135   0.00000  Uiso   1.00
C5     C     0.95891   0.22136   0.43489   0.00000  Uiso   1.00
C6     C     0.54958   0.02500   0.40116   0.00000  Uiso   1.00
C7     C     0.58565   0.95639   0.37723   0.00000  Uiso   1.00
C8     C     0.65380   0.01964   0.35634   0.00000  Uiso   1.00
C9     C     0.76552   0.07854   0.31648   0.00000  Uiso   1.00
C10    C     0.55415   0.00064   0.45308   0.00000  Uiso   1.00
C11    C     0.59411   0.91154   0.47280   0.00000  Uiso   1.00
C12    C     0.66614   0.95428   0.49563   0.00000  Uiso   1.00
C13    C     0.78495   0.97536   0.53638   0.00000  Uiso   1.00
C14    C     0.53153   0.20892   0.43200   0.00000  Uiso   1.00
C15    C     0.39005   0.18600   0.43208   0.00000  Uiso   1.00
C16    C     0.29805   0.27771   0.43474   0.00000  Uiso   1.00
C17    C     0.17389   0.23759   0.43432   0.00000  Uiso   1.00
C18    C     0.58048   0.15228   0.40412   0.00000  Uiso   1.00
C19    C     0.64860   0.21564   0.38327   0.00000  Uiso   1.00
C20    C     0.68477   0.14715   0.35931   0.00000  Uiso   1.00
C21    C     0.58506   0.12792   0.45604   0.00000  Uiso   1.00
C22    C     0.65705   0.17080   0.47884   0.00000  Uiso   1.00
C23    C     0.69710   0.08179   0.49860   0.00000  Uiso   1.00
H24    H     0.45057   0.87550   0.42423   0.00000  Uiso   1.00
H25    H     0.21122   0.91995   0.42640   0.00000  Uiso   1.00
H26    H     0.56173   0.85789   0.37494   0.00000  Uiso   1.00
H27    H     0.57018   0.81306   0.47050   0.00000  Uiso   1.00
H28    H     0.95948   0.02536   0.43011   0.00000  Uiso   1.00
H29    H     0.69859   0.89450   0.32160   0.00000  Uiso   1.00
H30    H     0.71641   0.79995   0.52311   0.00000  Uiso   1.00
H31    H     0.55559   0.30802   0.43430   0.00000  Uiso   1.00
H32    H     0.32199   0.37620   0.43703   0.00000  Uiso   1.00
H33    H     0.67251   0.31414   0.38557   0.00000  Uiso   1.00
H34    H     0.68095   0.26930   0.48113   0.00000  Uiso   1.00
H35    H     0.04939   0.39567   0.43873   0.00000  Uiso   1.00
H36    H     0.78851   0.26480   0.33023   0.00000  Uiso   1.00
H37    H     0.80631   0.17026   0.53174   0.00000  Uiso   1.00
O38    O     0.84888   0.24757   0.43602   0.00000  Uiso   1.00
O39    O     0.81858   0.07587   0.29367   0.00000  Uiso   1.00
O40    O     0.84194   0.95183   0.55805   0.00000  Uiso   1.00
N41    N     0.01270   0.10316   0.43177   0.00000  Uiso   1.00
N42    N     0.70371   0.98081   0.33032   0.00000  Uiso   1.00
N43    N     0.72039   0.89241   0.51871   0.00000  Uiso   1.00
N44    N     0.06108   0.30242   0.43641   0.00000  Uiso   1.00
N45    N     0.75209   0.18007   0.33496   0.00000  Uiso   1.00
N46    N     0.76877   0.09167   0.52335   0.00000  Uiso   1.00
C47    C     0.52537   0.02541   0.92654   0.00000  Uiso   1.00
C48    C     0.64086   0.94128   0.92912   0.00000  Uiso   1.00
C49    C     0.76490   0.98154   0.92870   0.00000  Uiso   1.00
C50    C     0.85707   0.88991   0.93135   0.00000  Uiso   1.00
C51    C     0.04109   0.77864   0.93489   0.00000  Uiso   1.00
C52    C     0.45042   0.97500   0.90116   0.00000  Uiso   1.00
C53    C     0.41435   0.04361   0.87723   0.00000  Uiso   1.00
C54    C     0.34620   0.98036   0.85634   0.00000  Uiso   1.00
C55    C     0.23448   0.92146   0.81648   0.00000  Uiso   1.00
C56    C     0.44585   0.99936   0.95308   0.00000  Uiso   1.00
C57    C     0.40589   0.08846   0.97280   0.00000  Uiso   1.00
C58    C     0.33386   0.04572   0.99563   0.00000  Uiso   1.00
C59    C     0.21505   0.02464   0.03638   0.00000  Uiso   1.00
C60    C     0.46847   0.79108   0.93200   0.00000  Uiso   1.00
C61    C     0.60995   0.81400   0.93208   0.00000  Uiso   1.00
C62    C     0.70195   0.72229   0.93474   0.00000  Uiso   1.00
C63    C     0.82611   0.76241   0.93432   0.00000  Uiso   1.00
C64    C     0.41952   0.84772   0.90412   0.00000  Uiso   1.00
C65    C     0.35140   0.78436   0.88327   0.00000  Uiso   1.00
C66    C     0.31523   0.85285   0.85931   0.00000  Uiso   1.00
C67    C     0.41494   0.87208   0.95604   0.00000  Uiso   1.00
C68    C     0.34295   0.82920   0.97884   0.00000  Uiso   1.00
C69    C     0.30290   0.91821   0.99860   0.00000  Uiso   1.00
H70    H     0.54943   0.12450   0.92423   0.00000  Uiso   1.00
H71    H     0.78878   0.08005   0.92640   0.00000  Uiso   1.00
H72    H     0.43827   0.14211   0.87494   0.00000  Uiso   1.00
H73    H     0.42982   0.18694   0.97050   0.00000  Uiso   1.00
H74    H     0.04052   0.97464   0.93011   0.00000  Uiso   1.00
H75    H     0.30141   0.10550   0.82160   0.00000  Uiso   1.00
H76    H     0.28359   0.20005   0.02311   0.00000  Uiso   1.00
H77    H     0.44441   0.69198   0.93430   0.00000  Uiso   1.00
H78    H     0.67801   0.62380   0.93703   0.00000  Uiso   1.00
H79    H     0.32749   0.68586   0.88557   0.00000  Uiso   1.00
H80    H     0.31905   0.73070   0.98113   0.00000  Uiso   1.00
H81    H     0.95061   0.60433   0.93873   0.00000  Uiso   1.00
H82    H     0.21149   0.73520   0.83023   0.00000  Uiso   1.00
H83    H     0.19369   0.82974   0.03174   0.00000  Uiso   1.00
O84    O     0.15112   0.75243   0.93602   0.00000  Uiso   1.00
O85    O     0.18142   0.92413   0.79367   0.00000  Uiso   1.00
O86    O     0.15806   0.04817   0.05805   0.00000  Uiso   1.00
N87    N     0.98730   0.89684   0.93177   0.00000  Uiso   1.00
N88    N     0.29629   0.01919   0.83032   0.00000  Uiso   1.00
N89    N     0.27961   0.10759   0.01871   0.00000  Uiso   1.00
N90    N     0.93892   0.69758   0.93641   0.00000  Uiso   1.00
N91    N     0.24791   0.81993   0.83496   0.00000  Uiso   1.00
N92    N     0.23123   0.90833   0.02335   0.00000  Uiso   1.00
C93    C     0.52541   0.97463   0.17654   0.00000  Uiso   1.00
C94    C     0.44128   0.85914   0.17912   0.00000  Uiso   1.00
C95    C     0.48154   0.73510   0.17870   0.00000  Uiso   1.00
C96    C     0.38991   0.64293   0.18135   0.00000  Uiso   1.00
C97    C     0.27864   0.45891   0.18489   0.00000  Uiso   1.00
C98    C     0.47500   0.04958   0.15116   0.00000  Uiso   1.00
C99    C     0.54361   0.08565   0.12723   0.00000  Uiso   1.00
C100   C     0.48036   0.15380   0.10634   0.00000  Uiso   1.00
C101   C     0.42146   0.26552   0.06648   0.00000  Uiso   1.00
C102   C     0.49936   0.05415   0.20308   0.00000  Uiso   1.00
C103   C     0.58846   0.09411   0.22280   0.00000  Uiso   1.00
C104   C     0.54572   0.16614   0.24563   0.00000  Uiso   1.00
C105   C     0.52464   0.28495   0.28638   0.00000  Uiso   1.00
C106   C     0.29108   0.03153   0.18200   0.00000  Uiso   1.00
C107   C     0.31400   0.89005   0.18208   0.00000  Uiso   1.00
C108   C     0.22229   0.79805   0.18474   0.00000  Uiso   1.00
C109   C     0.26241   0.67389   0.18432   0.00000  Uiso   1.00
C110   C     0.34772   0.08048   0.15412   0.00000  Uiso   1.00
C111   C     0.28436   0.14860   0.13327   0.00000  Uiso   1.00
C112   C     0.35285   0.18477   0.10931   0.00000  Uiso   1.00
C113   C     0.37208   0.08506   0.20604   0.00000  Uiso   1.00
C114   C     0.32920   0.15705   0.22884   0.00000  Uiso   1.00
C115   C     0.41821   0.19710   0.24860   0.00000  Uiso   1.00
H116   H     0.62450   0.95057   0.17423   0.00000  Uiso   1.00
H117   H     0.58005   0.71122   0.17640   0.00000  Uiso   1.00
H118   H     0.64211   0.06173   0.12494   0.00000  Uiso   1.00
H119   H     0.68694   0.07018   0.22050   0.00000  Uiso   1.00
H120   H     0.47464   0.45948   0.18011   0.00000  Uiso   1.00
H121   H     0.60550   0.19859   0.07160   0.00000  Uiso   1.00
H122   H     0.70005   0.21641   0.27311   0.00000  Uiso   1.00
H123   H     0.19198   0.05559   0.18430   0.00000  Uiso   1.00
H124   H     0.12380   0.82199   0.18703   0.00000  Uiso   1.00
H125   H     0.18586   0.17251   0.13557   0.00000  Uiso   1.00
H126   H     0.23070   0.18095   0.23113   0.00000  Uiso   1.00
H127   H     0.10433   0.54939   0.18873   0.00000  Uiso   1.00
H128   H     0.23520   0.28851   0.08023   0.00000  Uiso   1.00
H129   H     0.32974   0.30631   0.28174   0.00000  Uiso   1.00
O130   O     0.25243   0.34888   0.18602   0.00000  Uiso   1.00
O131   O     0.42413   0.31858   0.04367   0.00000  Uiso   1.00
O132   O     0.54817   0.34194   0.30805   0.00000  Uiso   1.00
N133   N     0.39684   0.51270   0.18177   0.00000  Uiso   1.00
N134   N     0.51919   0.20371   0.08032   0.00000  Uiso   1.00
N135   N     0.60759   0.22039   0.26871   0.00000  Uiso   1.00
N136   N     0.19758   0.56108   0.18641   0.00000  Uiso   1.00
N137   N     0.31993   0.25209   0.08496   0.00000  Uiso   1.00
N138   N     0.40833   0.26877   0.27335   0.00000  Uiso   1.00
C139   C     0.47459   0.02537   0.67654   0.00000  Uiso   1.00
C140   C     0.55872   0.14086   0.67912   0.00000  Uiso   1.00
C141   C     0.51846   0.26490   0.67870   0.00000  Uiso   1.00
C142   C     0.61009   0.35707   0.68135   0.00000  Uiso   1.00
C143   C     0.72136   0.54109   0.68489   0.00000  Uiso   1.00
C144   C     0.52500   0.95042   0.65116   0.00000  Uiso   1.00
C145   C     0.45639   0.91435   0.62723   0.00000  Uiso   1.00
C146   C     0.51964   0.84620   0.60634   0.00000  Uiso   1.00
C147   C     0.57854   0.73448   0.56648   0.00000  Uiso   1.00
C148   C     0.50064   0.94585   0.70308   0.00000  Uiso   1.00
C149   C     0.41154   0.90589   0.72280   0.00000  Uiso   1.00
C150   C     0.45428   0.83386   0.74563   0.00000  Uiso   1.00
C151   C     0.47536   0.71505   0.78638   0.00000  Uiso   1.00
C152   C     0.70892   0.96847   0.68200   0.00000  Uiso   1.00
C153   C     0.68600   0.10995   0.68208   0.00000  Uiso   1.00
C154   C     0.77771   0.20195   0.68474   0.00000  Uiso   1.00
C155   C     0.73759   0.32611   0.68432   0.00000  Uiso   1.00
C156   C     0.65228   0.91952   0.65412   0.00000  Uiso   1.00
C157   C     0.71564   0.85140   0.63327   0.00000  Uiso   1.00
C158   C     0.64715   0.81523   0.60931   0.00000  Uiso   1.00
C159   C     0.62792   0.91494   0.70604   0.00000  Uiso   1.00
C160   C     0.67080   0.84295   0.72884   0.00000  Uiso   1.00
C161   C     0.58179   0.80290   0.74860   0.00000  Uiso   1.00
H162   H     0.37550   0.04943   0.67423   0.00000  Uiso   1.00
H163   H     0.41995   0.28878   0.67640   0.00000  Uiso   1.00
H164   H     0.35789   0.93827   0.62494   0.00000  Uiso   1.00
H165   H     0.31306   0.92982   0.72050   0.00000  Uiso   1.00
H166   H     0.52536   0.54052   0.68011   0.00000  Uiso   1.00
H167   H     0.39450   0.80141   0.57160   0.00000  Uiso   1.00
H168   H     0.29995   0.78359   0.77311   0.00000  Uiso   1.00
H169   H     0.80802   0.94441   0.68430   0.00000  Uiso   1.00
H170   H     0.87620   0.17801   0.68703   0.00000  Uiso   1.00
H171   H     0.81414   0.82749   0.63557   0.00000  Uiso   1.00
H172   H     0.76930   0.81905   0.73113   0.00000  Uiso   1.00
H173   H     0.89567   0.45061   0.68873   0.00000  Uiso   1.00
H174   H     0.76480   0.71149   0.58023   0.00000  Uiso   1.00
H175   H     0.67026   0.69369   0.78174   0.00000  Uiso   1.00
O176   O     0.74757   0.65112   0.68602   0.00000  Uiso   1.00
O177   O     0.57587   0.68142   0.54367   0.00000  Uiso   1.00
O178   O     0.45183   0.65806   0.80805   0.00000  Uiso   1.00
N179   N     0.60316   0.48730   0.68177   0.00000  Uiso   1.00
N180   N     0.48081   0.79629   0.58032   0.00000  Uiso   1.00
N181   N     0.39241   0.77961   0.76871   0.00000  Uiso   1.00
N182   N     0.80242   0.43892   0.68641   0.00000  Uiso   1.00
N183   N     0.68007   0.74791   0.58496   0.00000  Uiso   1.00
N184   N     0.59167   0.73123   0.77335   0.00000  Uiso   1.00
C185   C     0.02537   0.47459   0.32346   0.00000  Uiso   1.00
C186   C     0.14086   0.55872   0.32088   0.00000  Uiso   1.00
C187   C     0.26490   0.51846   0.32130   0.00000  Uiso   1.00
C188   C     0.35707   0.61009   0.31865   0.00000  Uiso   1.00
C189   C     0.54109   0.72136   0.31511   0.00000  Uiso   1.00
C190   C     0.95042   0.52500   0.34884   0.00000  Uiso   1.00
C191   C     0.91435   0.45639   0.37277   0.00000  Uiso   1.00
C192   C     0.84620   0.51964   0.39366   0.00000  Uiso   1.00
C193   C     0.73448   0.57854   0.43352   0.00000  Uiso   1.00
C194   C     0.94585   0.50064   0.29692   0.00000  Uiso   1.00
C195   C     0.90589   0.41154   0.27720   0.00000  Uiso   1.00
C196   C     0.83386   0.45428   0.25437   0.00000  Uiso   1.00
C197   C     0.71505   0.47536   0.21362   0.00000  Uiso   1.00
C198   C     0.96847   0.70892   0.31800   0.00000  Uiso   1.00
C199   C     0.10995   0.68600   0.31792   0.00000  Uiso   1.00
C200   C     0.20195   0.77771   0.31526   0.00000  Uiso   1.00
C201   C     0.32611   0.73759   0.31568   0.00000  Uiso   1.00
C202   C     0.91952   0.65228   0.34588   0.00000  Uiso   1.00
C203   C     0.85140   0.71564   0.36673   0.00000  Uiso   1.00
C204   C     0.81523   0.64715   0.39069   0.00000  Uiso   1.00
C205   C     0.91494   0.62792   0.29396   0.00000  Uiso   1.00
C206   C     0.84295   0.67080   0.27116   0.00000  Uiso   1.00
C207   C     0.80290   0.58179   0.25140   0.00000  Uiso   1.00
H208   H     0.04943   0.37550   0.32577   0.00000  Uiso   1.00
H209   H     0.28878   0.41995   0.32360   0.00000  Uiso   1.00
H210   H     0.93827   0.35789   0.37506   0.00000  Uiso   1.00
H211   H     0.92982   0.31306   0.27950   0.00000  Uiso   1.00
H212   H     0.54052   0.52536   0.31989   0.00000  Uiso   1.00
H213   H     0.80141   0.39450   0.42840   0.00000  Uiso   1.00
H214   H     0.78359   0.29995   0.22689   0.00000  Uiso   1.00
H215   H     0.94441   0.80802   0.31570   0.00000  Uiso   1.00
H216   H     0.17801   0.87620   0.31297   0.00000  Uiso   1.00
H217   H     0.82749   0.81414   0.36443   0.00000  Uiso   1.00
H218   H     0.81905   0.76930   0.26887   0.00000  Uiso   1.00
H219   H     0.45061   0.89567   0.31127   0.00000  Uiso   1.00
H220   H     0.71149   0.76480   0.41977   0.00000  Uiso   1.00
H221   H     0.69369   0.67026   0.21826   0.00000  Uiso   1.00
O222   O     0.65112   0.74757   0.31398   0.00000  Uiso   1.00
O223   O     0.68142   0.57587   0.45633   0.00000  Uiso   1.00
O224   O     0.65806   0.45183   0.19195   0.00000  Uiso   1.00
N225   N     0.48730   0.60316   0.31823   0.00000  Uiso   1.00
N226   N     0.79629   0.48081   0.41968   0.00000  Uiso   1.00
N227   N     0.77961   0.39241   0.23129   0.00000  Uiso   1.00
N228   N     0.43892   0.80242   0.31359   0.00000  Uiso   1.00
N229   N     0.74791   0.68007   0.41504   0.00000  Uiso   1.00
N230   N     0.73123   0.59167   0.22665   0.00000  Uiso   1.00
C231   C     0.97463   0.52541   0.82346   0.00000  Uiso   1.00
C232   C     0.85914   0.44128   0.82088   0.00000  Uiso   1.00
C233   C     0.73510   0.48154   0.82130   0.00000  Uiso   1.00
C234   C     0.64293   0.38991   0.81865   0.00000  Uiso   1.00
C235   C     0.45891   0.27864   0.81511   0.00000  Uiso   1.00
C236   C     0.04958   0.47500   0.84884   0.00000  Uiso   1.00
C237   C     0.08565   0.54361   0.87277   0.00000  Uiso   1.00
C238   C     0.15380   0.48036   0.89366   0.00000  Uiso   1.00
C239   C     0.26552   0.42146   0.93352   0.00000  Uiso   1.00
C240   C     0.05415   0.49936   0.79692   0.00000  Uiso   1.00
C241   C     0.09411   0.58846   0.77720   0.00000  Uiso   1.00
C242   C     0.16614   0.54572   0.75437   0.00000  Uiso   1.00
C243   C     0.28495   0.52464   0.71362   0.00000  Uiso   1.00
C244   C     0.03153   0.29108   0.81800   0.00000  Uiso   1.00
C245   C     0.89005   0.31400   0.81792   0.00000  Uiso   1.00
C246   C     0.79805   0.22229   0.81526   0.00000  Uiso   1.00
C247   C     0.67389   0.26241   0.81568   0.00000  Uiso   1.00
C248   C     0.08048   0.34772   0.84588   0.00000  Uiso   1.00
C249   C     0.14860   0.28436   0.86673   0.00000  Uiso   1.00
C250   C     0.18477   0.35285   0.89069   0.00000  Uiso   1.00
C251   C     0.08506   0.37208   0.79396   0.00000  Uiso   1.00
C252   C     0.15705   0.32920   0.77116   0.00000  Uiso   1.00
C253   C     0.19710   0.41821   0.75140   0.00000  Uiso   1.00
H254   H     0.95057   0.62450   0.82577   0.00000  Uiso   1.00
H255   H     0.71122   0.58005   0.82360   0.00000  Uiso   1.00
H256   H     0.06173   0.64211   0.87506   0.00000  Uiso   1.00
H257   H     0.07018   0.68694   0.77950   0.00000  Uiso   1.00
H258   H     0.45948   0.47464   0.81989   0.00000  Uiso   1.00
H259   H     0.19859   0.60550   0.92840   0.00000  Uiso   1.00
H260   H     0.21641   0.70005   0.72689   0.00000  Uiso   1.00
H261   H     0.05559   0.19198   0.81570   0.00000  Uiso   1.00
H262   H     0.82199   0.12380   0.81297   0.00000  Uiso   1.00
H263   H     0.17251   0.18586   0.86443   0.00000  Uiso   1.00
H264   H     0.18095   0.23070   0.76887   0.00000  Uiso   1.00
H265   H     0.54939   0.10433   0.81127   0.00000  Uiso   1.00
H266   H     0.28851   0.23520   0.91977   0.00000  Uiso   1.00
H267   H     0.30631   0.32974   0.71826   0.00000  Uiso   1.00
O268   O     0.34888   0.25243   0.81398   0.00000  Uiso   1.00
O269   O     0.31858   0.42413   0.95633   0.00000  Uiso   1.00
O270   O     0.34194   0.54817   0.69195   0.00000  Uiso   1.00
N271   N     0.51270   0.39684   0.81823   0.00000  Uiso   1.00
N272   N     0.20371   0.51919   0.91968   0.00000  Uiso   1.00
N273   N     0.22039   0.60759   0.73129   0.00000  Uiso   1.00
N274   N     0.56108   0.19758   0.81359   0.00000  Uiso   1.00
N275   N     0.25209   0.31993   0.91504   0.00000  Uiso   1.00
N276   N     0.26877   0.40833   0.72665   0.00000  Uiso   1.00
C277   C     0.97459   0.47463   0.57346   0.00000  Uiso   1.00
C278   C     0.05872   0.35914   0.57088   0.00000  Uiso   1.00
C279   C     0.01846   0.23510   0.57130   0.00000  Uiso   1.00
C280   C     0.11009   0.14293   0.56865   0.00000  Uiso   1.00
C281   C     0.22136   0.95891   0.56511   0.00000  Uiso   1.00
C282   C     0.02500   0.54958   0.59884   0.00000  Uiso   1.00
C283   C     0.95639   0.58565   0.62277   0.00000  Uiso   1.00
C284   C     0.01964   0.65380   0.64366   0.00000  Uiso   1.00
C285   C     0.07854   0.76552   0.68352   0.00000  Uiso   1.00
C286   C     0.00064   0.55415   0.54692   0.00000  Uiso   1.00
C287   C     0.91154   0.59411   0.52720   0.00000  Uiso   1.00
C288   C     0.95428   0.66614   0.50437   0.00000  Uiso   1.00
C289   C     0.97536   0.78495   0.46362   0.00000  Uiso   1.00
C290   C     0.20892   0.53153   0.56800   0.00000  Uiso   1.00
C291   C     0.18600   0.39005   0.56792   0.00000  Uiso   1.00
C292   C     0.27771   0.29805   0.56526   0.00000  Uiso   1.00
C293   C     0.23759   0.17389   0.56568   0.00000  Uiso   1.00
C294   C     0.15228   0.58048   0.59588   0.00000  Uiso   1.00
C295   C     0.21564   0.64860   0.61673   0.00000  Uiso   1.00
C296   C     0.14715   0.68477   0.64069   0.00000  Uiso   1.00
C297   C     0.12792   0.58506   0.54396   0.00000  Uiso   1.00
C298   C     0.17080   0.65705   0.52116   0.00000  Uiso   1.00
C299   C     0.08179   0.69710   0.50140   0.00000  Uiso   1.00
H300   H     0.87550   0.45057   0.57577   0.00000  Uiso   1.00
H301   H     0.91995   0.21122   0.57360   0.00000  Uiso   1.00
H302   H     0.85789   0.56173   0.62506   0.00000  Uiso   1.00
H303   H     0.81306   0.57018   0.52950   0.00000  Uiso   1.00
H304   H     0.02536   0.95948   0.56989   0.00000  Uiso   1.00
H305   H     0.89450   0.69859   0.67840   0.00000  Uiso   1.00
H306   H     0.79995   0.71641   0.47689   0.00000  Uiso   1.00
H307   H     0.30802   0.55559   0.56570   0.00000  Uiso   1.00
H308   H     0.37620   0.32199   0.56297   0.00000  Uiso   1.00
H309   H     0.31414   0.67251   0.61443   0.00000  Uiso   1.00
H310   H     0.26930   0.68095   0.51887   0.00000  Uiso   1.00
H311   H     0.39567   0.04939   0.56127   0.00000  Uiso   1.00
H312   H     0.26480   0.78851   0.66977   0.00000  Uiso   1.00
H313   H     0.17026   0.80631   0.46826   0.00000  Uiso   1.00
O314   O     0.24757   0.84888   0.56398   0.00000  Uiso   1.00
O315   O     0.07587   0.81858   0.70633   0.00000  Uiso   1.00
O316   O     0.95183   0.84194   0.44195   0.00000  Uiso   1.00
N317   N     0.10316   0.01270   0.56823   0.00000  Uiso   1.00
N318   N     0.98081   0.70371   0.66968   0.00000  Uiso   1.00
N319   N     0.89241   0.72039   0.48129   0.00000  Uiso   1.00
N320   N     0.30242   0.06108   0.56359   0.00000  Uiso   1.00
N321   N     0.18007   0.75209   0.66504   0.00000  Uiso   1.00
N322   N     0.09167   0.76877   0.47665   0.00000  Uiso   1.00
C323   C     0.02541   0.52537   0.07346   0.00000  Uiso   1.00
C324   C     0.94128   0.64086   0.07088   0.00000  Uiso   1.00
C325   C     0.98154   0.76490   0.07130   0.00000  Uiso   1.00
C326   C     0.88991   0.85707   0.06865   0.00000  Uiso   1.00
C327   C     0.77864   0.04109   0.06511   0.00000  Uiso   1.00
C328   C     0.97500   0.45042   0.09884   0.00000  Uiso   1.00
C329   C     0.04361   0.41435   0.12277   0.00000  Uiso   1.00
C330   C     0.98036   0.34620   0.14366   0.00000  Uiso   1.00
C331   C     0.92146   0.23448   0.18352   0.00000  Uiso   1.00
C332   C     0.99936   0.44585   0.04692   0.00000  Uiso   1.00
C333   C     0.08846   0.40589   0.02720   0.00000  Uiso   1.00
C334   C     0.04572   0.33386   0.00437   0.00000  Uiso   1.00
C335   C     0.02464   0.21505   0.96362   0.00000  Uiso   1.00
C336   C     0.79108   0.46847   0.06800   0.00000  Uiso   1.00
C337   C     0.81400   0.60995   0.06792   0.00000  Uiso   1.00
C338   C     0.72229   0.70195   0.06526   0.00000  Uiso   1.00
C339   C     0.76241   0.82611   0.06568   0.00000  Uiso   1.00
C340   C     0.84772   0.41952   0.09588   0.00000  Uiso   1.00
C341   C     0.78436   0.35140   0.11673   0.00000  Uiso   1.00
C342   C     0.85285   0.31523   0.14069   0.00000  Uiso   1.00
C343   C     0.87208   0.41494   0.04396   0.00000  Uiso   1.00
C344   C     0.82920   0.34295   0.02116   0.00000  Uiso   1.00
C345   C     0.91821   0.30290   0.00140   0.00000  Uiso   1.00
H346   H     0.12450   0.54943   0.07577   0.00000  Uiso   1.00
H347   H     0.08005   0.78878   0.07360   0.00000  Uiso   1.00
H348   H     0.14211   0.43827   0.12506   0.00000  Uiso   1.00
H349   H     0.18694   0.42982   0.02950   0.00000  Uiso   1.00
H350   H     0.97464   0.04052   0.06989   0.00000  Uiso   1.00
H351   H     0.10550   0.30141   0.17840   0.00000  Uiso   1.00
H352   H     0.20005   0.28359   0.97689   0.00000  Uiso   1.00
H353   H     0.69198   0.44441   0.06570   0.00000  Uiso   1.00
H354   H     0.62380   0.67801   0.06297   0.00000  Uiso   1.00
H355   H     0.68586   0.32749   0.11443   0.00000  Uiso   1.00
H356   H     0.73070   0.31905   0.01887   0.00000  Uiso   1.00
H357   H     0.60433   0.95061   0.06127   0.00000  Uiso   1.00
H358   H     0.73520   0.21149   0.16977   0.00000  Uiso   1.00
H359   H     0.82974   0.19369   0.96826   0.00000  Uiso   1.00
O360   O     0.75243   0.15112   0.06398   0.00000  Uiso   1.00
O361   O     0.92413   0.18142   0.20633   0.00000  Uiso   1.00
O362   O     0.04817   0.15806   0.94195   0.00000  Uiso   1.00
N363   N     0.89684   0.98730   0.06823   0.00000  Uiso   1.00
N364   N     0.01919   0.29629   0.16968   0.00000  Uiso   1.00
N365   N     0.10759   0.27961   0.98129   0.00000  Uiso   1.00
N366   N     0.69758   0.93892   0.06359   0.00000  Uiso   1.00
N367   N     0.81993   0.24791   0.16504   0.00000  Uiso   1.00
N368   N     0.90833   0.23123   0.97665   0.00000  Uiso   1.00
