data_job_03626
_audit_creation_date              2018-12-19
_audit_creation_method            'Materials Studio'
_symmetry_space_group_name_H-M    'P1'
_symmetry_Int_Tables_number       1
_symmetry_cell_setting            triclinic
loop_
_symmetry_equiv_pos_as_xyz
  x,y,z
_cell_length_a                    23.3605
_cell_length_b                    10.1642
_cell_length_c                    27.1725
_cell_angle_alpha                 90.0000
_cell_angle_beta                  121.8512
_cell_angle_gamma                 90.0000
loop_
_atom_site_label
_atom_site_type_symbol
_atom_site_fract_x
_atom_site_fract_y
_atom_site_fract_z
_atom_site_U_iso_or_equiv
_atom_site_adp_type
_atom_site_occupancy
C1     C     0.29891   0.22018   0.08081   0.00000  Uiso   1.00
C2     C     0.32893   0.12063   0.13024   0.00000  Uiso   1.00
C3     C     0.32481   0.98481   0.12413   0.00000  Uiso   1.00
C4     C     0.35557   0.91077   0.17468   0.00000  Uiso   1.00
C5     C     0.39704   0.74711   0.24311   0.00000  Uiso   1.00
C6     C     0.25295   0.30840   0.09052   0.00000  Uiso   1.00
C7     C     0.18496   0.33045   0.05101   0.00000  Uiso   1.00
C8     C     0.15177   0.41449   0.06813   0.00000  Uiso   1.00
C9     C     0.07528   0.54241   0.07489   0.00000  Uiso   1.00
C10    C     0.35731   0.30693   0.09064   0.00000  Uiso   1.00
C11    C     0.37705   0.32778   0.05122   0.00000  Uiso   1.00
C12    C     0.43171   0.41061   0.06843   0.00000  Uiso   1.00
C13    C     0.51726   0.53625   0.07537   0.00000  Uiso   1.00
C14    C     0.36088   0.33023   0.18146   0.00000  Uiso   1.00
C15    C     0.36258   0.18041   0.18491   0.00000  Uiso   1.00
C16    C     0.39337   0.10656   0.23548   0.00000  Uiso   1.00
C17    C     0.38929   0.97065   0.22944   0.00000  Uiso   1.00
C18    C     0.28661   0.36817   0.14519   0.00000  Uiso   1.00
C19    C     0.25351   0.45221   0.16237   0.00000  Uiso   1.00
C20    C     0.18548   0.47438   0.12289   0.00000  Uiso   1.00
C21    C     0.39097   0.36670   0.14531   0.00000  Uiso   1.00
C22    C     0.44561   0.44953   0.16258   0.00000  Uiso   1.00
C23    C     0.46543   0.47050   0.12319   0.00000  Uiso   1.00
H24    H     0.27271   0.17365   0.03825   0.00000  Uiso   1.00
H25    H     0.29876   0.93858   0.08181   0.00000  Uiso   1.00
H26    H     0.15893   0.28419   0.00871   0.00000  Uiso   1.00
H27    H     0.35099   0.28151   0.00892   0.00000  Uiso   1.00
H28    H     0.34246   0.70434   0.15422   0.00000  Uiso   1.00
H29    H     0.04762   0.43309   0.00007   0.00000  Uiso   1.00
H30    H     0.45263   0.42745   0.00051   0.00000  Uiso   1.00
H31    H     0.38708   0.37677   0.22402   0.00000  Uiso   1.00
H32    H     0.41941   0.15285   0.27778   0.00000  Uiso   1.00
H33    H     0.27957   0.49845   0.20467   0.00000  Uiso   1.00
H34    H     0.47164   0.49577   0.20488   0.00000  Uiso   1.00
H35    H     0.44038   0.87824   0.31327   0.00000  Uiso   1.00
H36    H     0.14554   0.60701   0.15912   0.00000  Uiso   1.00
H37    H     0.55055   0.60135   0.15956   0.00000  Uiso   1.00
O38    O     0.41060   0.64032   0.26576   0.00000  Uiso   1.00
O39    O     0.02379   0.59644   0.06351   0.00000  Uiso   1.00
O40    O     0.55515   0.58902   0.06410   0.00000  Uiso   1.00
N41    N     0.36108   0.77599   0.18428   0.00000  Uiso   1.00
N42    N     0.08542   0.45732   0.04016   0.00000  Uiso   1.00
N43    N     0.46406   0.45207   0.04056   0.00000  Uiso   1.00
N44    N     0.41377   0.86957   0.26986   0.00000  Uiso   1.00
N45    N     0.13811   0.55090   0.12574   0.00000  Uiso   1.00
N46    N     0.51675   0.54565   0.12615   0.00000  Uiso   1.00
C47    C     0.70109   0.22018   0.41919   0.00000  Uiso   1.00
C48    C     0.67107   0.12063   0.36976   0.00000  Uiso   1.00
C49    C     0.67519   0.98481   0.37587   0.00000  Uiso   1.00
C50    C     0.64443   0.91077   0.32532   0.00000  Uiso   1.00
C51    C     0.60296   0.74711   0.25689   0.00000  Uiso   1.00
C52    C     0.74705   0.30840   0.40948   0.00000  Uiso   1.00
C53    C     0.81504   0.33045   0.44899   0.00000  Uiso   1.00
C54    C     0.84823   0.41449   0.43187   0.00000  Uiso   1.00
C55    C     0.92472   0.54241   0.42511   0.00000  Uiso   1.00
C56    C     0.64269   0.30693   0.40936   0.00000  Uiso   1.00
C57    C     0.62295   0.32778   0.44878   0.00000  Uiso   1.00
C58    C     0.56829   0.41061   0.43157   0.00000  Uiso   1.00
C59    C     0.48274   0.53625   0.42463   0.00000  Uiso   1.00
C60    C     0.63912   0.33023   0.31854   0.00000  Uiso   1.00
C61    C     0.63742   0.18041   0.31509   0.00000  Uiso   1.00
C62    C     0.60663   0.10656   0.26452   0.00000  Uiso   1.00
C63    C     0.61071   0.97065   0.27056   0.00000  Uiso   1.00
C64    C     0.71339   0.36817   0.35481   0.00000  Uiso   1.00
C65    C     0.74649   0.45221   0.33763   0.00000  Uiso   1.00
C66    C     0.81452   0.47438   0.37711   0.00000  Uiso   1.00
C67    C     0.60903   0.36670   0.35469   0.00000  Uiso   1.00
C68    C     0.55439   0.44953   0.33742   0.00000  Uiso   1.00
C69    C     0.53457   0.47050   0.37681   0.00000  Uiso   1.00
H70    H     0.72729   0.17365   0.46175   0.00000  Uiso   1.00
H71    H     0.70124   0.93858   0.41819   0.00000  Uiso   1.00
H72    H     0.84107   0.28419   0.49129   0.00000  Uiso   1.00
H73    H     0.64901   0.28151   0.49108   0.00000  Uiso   1.00
H74    H     0.65754   0.70434   0.34578   0.00000  Uiso   1.00
H75    H     0.95238   0.43309   0.49993   0.00000  Uiso   1.00
H76    H     0.54737   0.42745   0.49949   0.00000  Uiso   1.00
H77    H     0.61292   0.37677   0.27598   0.00000  Uiso   1.00
H78    H     0.58059   0.15285   0.22222   0.00000  Uiso   1.00
H79    H     0.72043   0.49845   0.29533   0.00000  Uiso   1.00
H80    H     0.52836   0.49577   0.29512   0.00000  Uiso   1.00
H81    H     0.55962   0.87824   0.18673   0.00000  Uiso   1.00
H82    H     0.85446   0.60701   0.34088   0.00000  Uiso   1.00
H83    H     0.44945   0.60135   0.34044   0.00000  Uiso   1.00
O84    O     0.58940   0.64032   0.23424   0.00000  Uiso   1.00
O85    O     0.97621   0.59644   0.43649   0.00000  Uiso   1.00
O86    O     0.44485   0.58902   0.43590   0.00000  Uiso   1.00
N87    N     0.63892   0.77599   0.31572   0.00000  Uiso   1.00
N88    N     0.91458   0.45732   0.45984   0.00000  Uiso   1.00
N89    N     0.53594   0.45207   0.45944   0.00000  Uiso   1.00
N90    N     0.58623   0.86957   0.23014   0.00000  Uiso   1.00
N91    N     0.86189   0.55090   0.37426   0.00000  Uiso   1.00
N92    N     0.48325   0.54565   0.37385   0.00000  Uiso   1.00
C93    C     0.70109   0.77982   0.91919   0.00000  Uiso   1.00
C94    C     0.67107   0.87937   0.86976   0.00000  Uiso   1.00
C95    C     0.67519   0.01519   0.87587   0.00000  Uiso   1.00
C96    C     0.64443   0.08923   0.82532   0.00000  Uiso   1.00
C97    C     0.60296   0.25289   0.75689   0.00000  Uiso   1.00
C98    C     0.74705   0.69160   0.90948   0.00000  Uiso   1.00
C99    C     0.81504   0.66955   0.94899   0.00000  Uiso   1.00
C100   C     0.84823   0.58551   0.93187   0.00000  Uiso   1.00
C101   C     0.92472   0.45759   0.92511   0.00000  Uiso   1.00
C102   C     0.64269   0.69307   0.90936   0.00000  Uiso   1.00
C103   C     0.62295   0.67222   0.94878   0.00000  Uiso   1.00
C104   C     0.56829   0.58939   0.93157   0.00000  Uiso   1.00
C105   C     0.48274   0.46375   0.92463   0.00000  Uiso   1.00
C106   C     0.63912   0.66977   0.81854   0.00000  Uiso   1.00
C107   C     0.63742   0.81959   0.81509   0.00000  Uiso   1.00
C108   C     0.60663   0.89344   0.76452   0.00000  Uiso   1.00
C109   C     0.61071   0.02935   0.77056   0.00000  Uiso   1.00
C110   C     0.71339   0.63183   0.85481   0.00000  Uiso   1.00
C111   C     0.74649   0.54779   0.83763   0.00000  Uiso   1.00
C112   C     0.81452   0.52562   0.87711   0.00000  Uiso   1.00
C113   C     0.60903   0.63330   0.85469   0.00000  Uiso   1.00
C114   C     0.55439   0.55047   0.83742   0.00000  Uiso   1.00
C115   C     0.53457   0.52950   0.87681   0.00000  Uiso   1.00
H116   H     0.72729   0.82635   0.96175   0.00000  Uiso   1.00
H117   H     0.70124   0.06142   0.91819   0.00000  Uiso   1.00
H118   H     0.84107   0.71581   0.99129   0.00000  Uiso   1.00
H119   H     0.64901   0.71849   0.99108   0.00000  Uiso   1.00
H120   H     0.65754   0.29566   0.84578   0.00000  Uiso   1.00
H121   H     0.95238   0.56691   0.99993   0.00000  Uiso   1.00
H122   H     0.54737   0.57255   0.99949   0.00000  Uiso   1.00
H123   H     0.61292   0.62323   0.77598   0.00000  Uiso   1.00
H124   H     0.58059   0.84715   0.72222   0.00000  Uiso   1.00
H125   H     0.72043   0.50155   0.79533   0.00000  Uiso   1.00
H126   H     0.52836   0.50423   0.79512   0.00000  Uiso   1.00
H127   H     0.55962   0.12176   0.68673   0.00000  Uiso   1.00
H128   H     0.85446   0.39299   0.84088   0.00000  Uiso   1.00
H129   H     0.44945   0.39865   0.84044   0.00000  Uiso   1.00
O130   O     0.58940   0.35968   0.73424   0.00000  Uiso   1.00
O131   O     0.97621   0.40356   0.93649   0.00000  Uiso   1.00
O132   O     0.44485   0.41098   0.93590   0.00000  Uiso   1.00
N133   N     0.63892   0.22401   0.81572   0.00000  Uiso   1.00
N134   N     0.91458   0.54268   0.95984   0.00000  Uiso   1.00
N135   N     0.53594   0.54793   0.95944   0.00000  Uiso   1.00
N136   N     0.58623   0.13043   0.73014   0.00000  Uiso   1.00
N137   N     0.86189   0.44910   0.87426   0.00000  Uiso   1.00
N138   N     0.48325   0.45435   0.87385   0.00000  Uiso   1.00
C139   C     0.29891   0.77982   0.58081   0.00000  Uiso   1.00
C140   C     0.32893   0.87937   0.63024   0.00000  Uiso   1.00
C141   C     0.32481   0.01519   0.62413   0.00000  Uiso   1.00
C142   C     0.35557   0.08923   0.67468   0.00000  Uiso   1.00
C143   C     0.39704   0.25289   0.74311   0.00000  Uiso   1.00
C144   C     0.25295   0.69160   0.59052   0.00000  Uiso   1.00
C145   C     0.18496   0.66955   0.55101   0.00000  Uiso   1.00
C146   C     0.15177   0.58551   0.56813   0.00000  Uiso   1.00
C147   C     0.07528   0.45759   0.57489   0.00000  Uiso   1.00
C148   C     0.35731   0.69307   0.59064   0.00000  Uiso   1.00
C149   C     0.37705   0.67222   0.55122   0.00000  Uiso   1.00
C150   C     0.43171   0.58939   0.56843   0.00000  Uiso   1.00
C151   C     0.51726   0.46375   0.57537   0.00000  Uiso   1.00
C152   C     0.36088   0.66977   0.68146   0.00000  Uiso   1.00
C153   C     0.36258   0.81959   0.68491   0.00000  Uiso   1.00
C154   C     0.39337   0.89344   0.73548   0.00000  Uiso   1.00
C155   C     0.38929   0.02935   0.72944   0.00000  Uiso   1.00
C156   C     0.28661   0.63183   0.64519   0.00000  Uiso   1.00
C157   C     0.25351   0.54779   0.66237   0.00000  Uiso   1.00
C158   C     0.18548   0.52562   0.62289   0.00000  Uiso   1.00
C159   C     0.39097   0.63330   0.64531   0.00000  Uiso   1.00
C160   C     0.44561   0.55047   0.66258   0.00000  Uiso   1.00
C161   C     0.46543   0.52950   0.62319   0.00000  Uiso   1.00
H162   H     0.27271   0.82635   0.53825   0.00000  Uiso   1.00
H163   H     0.29876   0.06142   0.58181   0.00000  Uiso   1.00
H164   H     0.15893   0.71581   0.50871   0.00000  Uiso   1.00
H165   H     0.35099   0.71849   0.50892   0.00000  Uiso   1.00
H166   H     0.34246   0.29566   0.65422   0.00000  Uiso   1.00
H167   H     0.04762   0.56691   0.50007   0.00000  Uiso   1.00
H168   H     0.45263   0.57255   0.50051   0.00000  Uiso   1.00
H169   H     0.38708   0.62323   0.72402   0.00000  Uiso   1.00
H170   H     0.41941   0.84715   0.77778   0.00000  Uiso   1.00
H171   H     0.27957   0.50155   0.70467   0.00000  Uiso   1.00
H172   H     0.47164   0.50423   0.70488   0.00000  Uiso   1.00
H173   H     0.44038   0.12176   0.81327   0.00000  Uiso   1.00
H174   H     0.14554   0.39299   0.65912   0.00000  Uiso   1.00
H175   H     0.55055   0.39865   0.65956   0.00000  Uiso   1.00
O176   O     0.41060   0.35968   0.76576   0.00000  Uiso   1.00
O177   O     0.02379   0.40356   0.56351   0.00000  Uiso   1.00
O178   O     0.55515   0.41098   0.56410   0.00000  Uiso   1.00
N179   N     0.36108   0.22401   0.68428   0.00000  Uiso   1.00
N180   N     0.08542   0.54268   0.54016   0.00000  Uiso   1.00
N181   N     0.46406   0.54793   0.54056   0.00000  Uiso   1.00
N182   N     0.41377   0.13043   0.76986   0.00000  Uiso   1.00
N183   N     0.13811   0.44910   0.62574   0.00000  Uiso   1.00
N184   N     0.51675   0.45435   0.62615   0.00000  Uiso   1.00
