data_job_00918
_audit_creation_date              2018-12-19
_audit_creation_method            'Materials Studio'
_symmetry_space_group_name_H-M    'P1'
_symmetry_Int_Tables_number       1
_symmetry_cell_setting            triclinic
loop_
_symmetry_equiv_pos_as_xyz
  x,y,z
_cell_length_a                    15.3072
_cell_length_b                    7.0551
_cell_length_c                    30.9265
_cell_angle_alpha                 90.0000
_cell_angle_beta                  136.5166
_cell_angle_gamma                 90.0000
loop_
_atom_site_label
_atom_site_type_symbol
_atom_site_fract_x
_atom_site_fract_y
_atom_site_fract_z
_atom_site_U_iso_or_equiv
_atom_site_adp_type
_atom_site_occupancy
C1     C     0.45249   0.00321   0.36267   0.00000  Uiso   1.00
C2     C     0.36573   0.07379   0.36755   0.00000  Uiso   1.00
C3     C     0.32913   0.97077   0.39055   0.00000  Uiso   1.00
C4     C     0.24929   0.06064   0.39112   0.00000  Uiso   1.00
C5     C     0.12096   0.14195   0.40202   0.00000  Uiso   1.00
C6     C     0.56159   0.14483   0.39926   0.00000  Uiso   1.00
C7     C     0.68967   0.10152   0.44890   0.00000  Uiso   1.00
C8     C     0.77470   0.25120   0.47615   0.00000  Uiso   1.00
C9     C     0.95045   0.44278   0.53624   0.00000  Uiso   1.00
C10    C     0.37760   0.02593   0.29390   0.00000  Uiso   1.00
C11    C     0.35101   0.88267   0.25497   0.00000  Uiso   1.00
C12    C     0.28116   0.93226   0.19353   0.00000  Uiso   1.00
C13    C     0.17124   0.93923   0.09004   0.00000  Uiso   1.00
C14    C     0.37578   0.34603   0.32281   0.00000  Uiso   1.00
C15    C     0.32407   0.26000   0.34590   0.00000  Uiso   1.00
C16    C     0.24426   0.35006   0.34644   0.00000  Uiso   1.00
C17    C     0.20754   0.24718   0.36943   0.00000  Uiso   1.00
C18    C     0.51993   0.33103   0.37760   0.00000  Uiso   1.00
C19    C     0.60479   0.48081   0.40479   0.00000  Uiso   1.00
C20    C     0.73296   0.43775   0.45446   0.00000  Uiso   1.00
C21    C     0.33593   0.21214   0.27225   0.00000  Uiso   1.00
C22    C     0.26613   0.26196   0.21086   0.00000  Uiso   1.00
C23    C     0.23942   0.11880   0.17184   0.00000  Uiso   1.00
H24    H     0.48494   0.85824   0.37953   0.00000  Uiso   1.00
H25    H     0.36141   0.82667   0.40730   0.00000  Uiso   1.00
H26    H     0.72188   0.95741   0.46564   0.00000  Uiso   1.00
H27    H     0.38327   0.73859   0.27174   0.00000  Uiso   1.00
H28    H     0.20611   0.87381   0.42856   0.00000  Uiso   1.00
H29    H     0.96620   0.14947   0.55155   0.00000  Uiso   1.00
H30    H     0.25216   0.68805   0.14267   0.00000  Uiso   1.00
H31    H     0.34334   0.49100   0.30595   0.00000  Uiso   1.00
H32    H     0.21203   0.49415   0.32968   0.00000  Uiso   1.00
H33    H     0.57252   0.62489   0.38802   0.00000  Uiso   1.00
H34    H     0.23390   0.40607   0.19412   0.00000  Uiso   1.00
H35    H     0.08487   0.41557   0.36557   0.00000  Uiso   1.00
H36    H     0.84497   0.69122   0.48855   0.00000  Uiso   1.00
H37    H     0.13093   0.22980   0.07968   0.00000  Uiso   1.00
O38    O     0.06170   0.13537   0.41402   0.00000  Uiso   1.00
O39    O     0.05891   0.49701   0.57537   0.00000  Uiso   1.00
O40    O     0.12211   0.89164   0.03894   0.00000  Uiso   1.00
N41    N     0.19557   0.00087   0.41047   0.00000  Uiso   1.00
N42    N     0.90621   0.25859   0.52546   0.00000  Uiso   1.00
N43    N     0.23868   0.82722   0.14320   0.00000  Uiso   1.00
N44    N     0.13034   0.29238   0.37657   0.00000  Uiso   1.00
N45    N     0.84098   0.55011   0.49156   0.00000  Uiso   1.00
N46    N     0.17344   0.11873   0.10930   0.00000  Uiso   1.00
C47    C     0.54751   0.00321   0.13733   0.00000  Uiso   1.00
C48    C     0.63427   0.07379   0.13245   0.00000  Uiso   1.00
C49    C     0.67087   0.97077   0.10945   0.00000  Uiso   1.00
C50    C     0.75071   0.06064   0.10888   0.00000  Uiso   1.00
C51    C     0.87904   0.14195   0.09798   0.00000  Uiso   1.00
C52    C     0.43841   0.14483   0.10074   0.00000  Uiso   1.00
C53    C     0.31033   0.10152   0.05110   0.00000  Uiso   1.00
C54    C     0.22530   0.25120   0.02385   0.00000  Uiso   1.00
C55    C     0.04955   0.44278   0.96376   0.00000  Uiso   1.00
C56    C     0.62240   0.02593   0.20610   0.00000  Uiso   1.00
C57    C     0.64899   0.88267   0.24503   0.00000  Uiso   1.00
C58    C     0.71884   0.93226   0.30647   0.00000  Uiso   1.00
C59    C     0.82876   0.93923   0.40996   0.00000  Uiso   1.00
C60    C     0.62422   0.34603   0.17719   0.00000  Uiso   1.00
C61    C     0.67593   0.26000   0.15410   0.00000  Uiso   1.00
C62    C     0.75574   0.35006   0.15356   0.00000  Uiso   1.00
C63    C     0.79246   0.24718   0.13057   0.00000  Uiso   1.00
C64    C     0.48007   0.33103   0.12240   0.00000  Uiso   1.00
C65    C     0.39521   0.48081   0.09521   0.00000  Uiso   1.00
C66    C     0.26704   0.43775   0.04554   0.00000  Uiso   1.00
C67    C     0.66407   0.21214   0.22775   0.00000  Uiso   1.00
C68    C     0.73387   0.26196   0.28914   0.00000  Uiso   1.00
C69    C     0.76058   0.11880   0.32816   0.00000  Uiso   1.00
H70    H     0.51506   0.85824   0.12047   0.00000  Uiso   1.00
H71    H     0.63859   0.82667   0.09270   0.00000  Uiso   1.00
H72    H     0.27812   0.95741   0.03436   0.00000  Uiso   1.00
H73    H     0.61673   0.73859   0.22826   0.00000  Uiso   1.00
H74    H     0.79389   0.87381   0.07144   0.00000  Uiso   1.00
H75    H     0.03380   0.14947   0.94845   0.00000  Uiso   1.00
H76    H     0.74784   0.68805   0.35733   0.00000  Uiso   1.00
H77    H     0.65666   0.49100   0.19405   0.00000  Uiso   1.00
H78    H     0.78797   0.49415   0.17032   0.00000  Uiso   1.00
H79    H     0.42748   0.62489   0.11198   0.00000  Uiso   1.00
H80    H     0.76610   0.40607   0.30588   0.00000  Uiso   1.00
H81    H     0.91513   0.41557   0.13443   0.00000  Uiso   1.00
H82    H     0.15503   0.69122   0.01145   0.00000  Uiso   1.00
H83    H     0.86907   0.22980   0.42032   0.00000  Uiso   1.00
O84    O     0.93830   0.13537   0.08598   0.00000  Uiso   1.00
O85    O     0.94109   0.49701   0.92463   0.00000  Uiso   1.00
O86    O     0.87789   0.89164   0.46106   0.00000  Uiso   1.00
N87    N     0.80443   0.00087   0.08953   0.00000  Uiso   1.00
N88    N     0.09379   0.25859   0.97454   0.00000  Uiso   1.00
N89    N     0.76132   0.82722   0.35680   0.00000  Uiso   1.00
N90    N     0.86966   0.29238   0.12343   0.00000  Uiso   1.00
N91    N     0.15902   0.55011   0.00844   0.00000  Uiso   1.00
N92    N     0.82656   0.11873   0.39070   0.00000  Uiso   1.00
C93    C     0.54751   0.99679   0.63733   0.00000  Uiso   1.00
C94    C     0.63427   0.92621   0.63245   0.00000  Uiso   1.00
C95    C     0.67087   0.02923   0.60945   0.00000  Uiso   1.00
C96    C     0.75071   0.93936   0.60888   0.00000  Uiso   1.00
C97    C     0.87904   0.85805   0.59798   0.00000  Uiso   1.00
C98    C     0.43841   0.85517   0.60074   0.00000  Uiso   1.00
C99    C     0.31033   0.89848   0.55110   0.00000  Uiso   1.00
C100   C     0.22530   0.74880   0.52385   0.00000  Uiso   1.00
C101   C     0.04955   0.55722   0.46376   0.00000  Uiso   1.00
C102   C     0.62240   0.97407   0.70610   0.00000  Uiso   1.00
C103   C     0.64899   0.11733   0.74503   0.00000  Uiso   1.00
C104   C     0.71884   0.06774   0.80647   0.00000  Uiso   1.00
C105   C     0.82876   0.06077   0.90996   0.00000  Uiso   1.00
C106   C     0.62422   0.65397   0.67719   0.00000  Uiso   1.00
C107   C     0.67593   0.74000   0.65410   0.00000  Uiso   1.00
C108   C     0.75574   0.64994   0.65356   0.00000  Uiso   1.00
C109   C     0.79246   0.75282   0.63057   0.00000  Uiso   1.00
C110   C     0.48007   0.66897   0.62240   0.00000  Uiso   1.00
C111   C     0.39521   0.51919   0.59521   0.00000  Uiso   1.00
C112   C     0.26704   0.56225   0.54554   0.00000  Uiso   1.00
C113   C     0.66407   0.78786   0.72775   0.00000  Uiso   1.00
C114   C     0.73387   0.73804   0.78914   0.00000  Uiso   1.00
C115   C     0.76058   0.88120   0.82816   0.00000  Uiso   1.00
H116   H     0.51506   0.14176   0.62047   0.00000  Uiso   1.00
H117   H     0.63859   0.17333   0.59270   0.00000  Uiso   1.00
H118   H     0.27812   0.04259   0.53436   0.00000  Uiso   1.00
H119   H     0.61673   0.26141   0.72826   0.00000  Uiso   1.00
H120   H     0.79389   0.12619   0.57144   0.00000  Uiso   1.00
H121   H     0.03380   0.85053   0.44845   0.00000  Uiso   1.00
H122   H     0.74784   0.31195   0.85733   0.00000  Uiso   1.00
H123   H     0.65666   0.50900   0.69405   0.00000  Uiso   1.00
H124   H     0.78797   0.50585   0.67032   0.00000  Uiso   1.00
H125   H     0.42748   0.37511   0.61198   0.00000  Uiso   1.00
H126   H     0.76610   0.59393   0.80588   0.00000  Uiso   1.00
H127   H     0.91513   0.58443   0.63443   0.00000  Uiso   1.00
H128   H     0.15503   0.30878   0.51145   0.00000  Uiso   1.00
H129   H     0.86907   0.77020   0.92032   0.00000  Uiso   1.00
O130   O     0.93830   0.86463   0.58598   0.00000  Uiso   1.00
O131   O     0.94109   0.50299   0.42463   0.00000  Uiso   1.00
O132   O     0.87789   0.10836   0.96106   0.00000  Uiso   1.00
N133   N     0.80443   0.99913   0.58953   0.00000  Uiso   1.00
N134   N     0.09379   0.74141   0.47454   0.00000  Uiso   1.00
N135   N     0.76132   0.17278   0.85680   0.00000  Uiso   1.00
N136   N     0.86966   0.70762   0.62343   0.00000  Uiso   1.00
N137   N     0.15902   0.44989   0.50844   0.00000  Uiso   1.00
N138   N     0.82656   0.88127   0.89070   0.00000  Uiso   1.00
C139   C     0.45249   0.99679   0.86267   0.00000  Uiso   1.00
C140   C     0.36573   0.92621   0.86755   0.00000  Uiso   1.00
C141   C     0.32913   0.02923   0.89055   0.00000  Uiso   1.00
C142   C     0.24929   0.93936   0.89112   0.00000  Uiso   1.00
C143   C     0.12096   0.85805   0.90202   0.00000  Uiso   1.00
C144   C     0.56159   0.85517   0.89926   0.00000  Uiso   1.00
C145   C     0.68967   0.89848   0.94890   0.00000  Uiso   1.00
C146   C     0.77470   0.74880   0.97615   0.00000  Uiso   1.00
C147   C     0.95045   0.55722   0.03624   0.00000  Uiso   1.00
C148   C     0.37760   0.97407   0.79390   0.00000  Uiso   1.00
C149   C     0.35101   0.11733   0.75497   0.00000  Uiso   1.00
C150   C     0.28116   0.06774   0.69353   0.00000  Uiso   1.00
C151   C     0.17124   0.06077   0.59004   0.00000  Uiso   1.00
C152   C     0.37578   0.65397   0.82281   0.00000  Uiso   1.00
C153   C     0.32407   0.74000   0.84590   0.00000  Uiso   1.00
C154   C     0.24426   0.64994   0.84644   0.00000  Uiso   1.00
C155   C     0.20754   0.75282   0.86943   0.00000  Uiso   1.00
C156   C     0.51993   0.66897   0.87760   0.00000  Uiso   1.00
C157   C     0.60479   0.51919   0.90479   0.00000  Uiso   1.00
C158   C     0.73296   0.56225   0.95446   0.00000  Uiso   1.00
C159   C     0.33593   0.78786   0.77225   0.00000  Uiso   1.00
C160   C     0.26613   0.73804   0.71086   0.00000  Uiso   1.00
C161   C     0.23942   0.88120   0.67184   0.00000  Uiso   1.00
H162   H     0.48494   0.14176   0.87953   0.00000  Uiso   1.00
H163   H     0.36141   0.17333   0.90730   0.00000  Uiso   1.00
H164   H     0.72188   0.04259   0.96564   0.00000  Uiso   1.00
H165   H     0.38327   0.26141   0.77174   0.00000  Uiso   1.00
H166   H     0.20611   0.12619   0.92856   0.00000  Uiso   1.00
H167   H     0.96620   0.85053   0.05155   0.00000  Uiso   1.00
H168   H     0.25216   0.31195   0.64267   0.00000  Uiso   1.00
H169   H     0.34334   0.50900   0.80595   0.00000  Uiso   1.00
H170   H     0.21203   0.50585   0.82968   0.00000  Uiso   1.00
H171   H     0.57252   0.37511   0.88802   0.00000  Uiso   1.00
H172   H     0.23390   0.59393   0.69412   0.00000  Uiso   1.00
H173   H     0.08487   0.58443   0.86557   0.00000  Uiso   1.00
H174   H     0.84497   0.30878   0.98855   0.00000  Uiso   1.00
H175   H     0.13093   0.77020   0.57968   0.00000  Uiso   1.00
O176   O     0.06170   0.86463   0.91402   0.00000  Uiso   1.00
O177   O     0.05891   0.50299   0.07537   0.00000  Uiso   1.00
O178   O     0.12211   0.10836   0.53894   0.00000  Uiso   1.00
N179   N     0.19557   0.99913   0.91047   0.00000  Uiso   1.00
N180   N     0.90621   0.74141   0.02546   0.00000  Uiso   1.00
N181   N     0.23868   0.17278   0.64320   0.00000  Uiso   1.00
N182   N     0.13034   0.70762   0.87657   0.00000  Uiso   1.00
N183   N     0.84098   0.44989   0.99156   0.00000  Uiso   1.00
N184   N     0.17344   0.88127   0.60930   0.00000  Uiso   1.00
