data_job_05130
_audit_creation_date              2018-12-19
_audit_creation_method            'Materials Studio'
_symmetry_space_group_name_H-M    'P1'
_symmetry_Int_Tables_number       1
_symmetry_cell_setting            triclinic
loop_
_symmetry_equiv_pos_as_xyz
  x,y,z
_cell_length_a                    13.6653
_cell_length_b                    11.8676
_cell_length_c                    30.3125
_cell_angle_alpha                 90.0000
_cell_angle_beta                  90.0000
_cell_angle_gamma                 90.0000
loop_
_atom_site_label
_atom_site_type_symbol
_atom_site_fract_x
_atom_site_fract_y
_atom_site_fract_z
_atom_site_U_iso_or_equiv
_atom_site_adp_type
_atom_site_occupancy
C1     C     0.80525   0.59718   0.39583   0.00000  Uiso   1.00
C2     C     0.90031   0.53739   0.40794   0.00000  Uiso   1.00
C3     C     0.91525   0.47120   0.44508   0.00000  Uiso   1.00
C4     C     0.00746   0.42386   0.45023   0.00000  Uiso   1.00
C5     C     0.14373   0.32829   0.47375   0.00000  Uiso   1.00
C6     C     0.83121   0.72148   0.39077   0.00000  Uiso   1.00
C7     C     0.78805   0.81006   0.41346   0.00000  Uiso   1.00
C8     C     0.82209   0.91769   0.40414   0.00000  Uiso   1.00
C9     C     0.85104   0.10793   0.40097   0.00000  Uiso   1.00
C10    C     0.77826   0.55573   0.34980   0.00000  Uiso   1.00
C11    C     0.69056   0.50498   0.33803   0.00000  Uiso   1.00
C12    C     0.68000   0.47310   0.29422   0.00000  Uiso   1.00
C13    C     0.62673   0.40599   0.22744   0.00000  Uiso   1.00
C14    C     0.94243   0.63082   0.33894   0.00000  Uiso   1.00
C15    C     0.97482   0.55567   0.37704   0.00000  Uiso   1.00
C16    C     0.06703   0.50842   0.38213   0.00000  Uiso   1.00
C17    C     0.08211   0.44217   0.41927   0.00000  Uiso   1.00
C18    C     0.90572   0.73975   0.35987   0.00000  Uiso   1.00
C19    C     0.93982   0.84728   0.35051   0.00000  Uiso   1.00
C20    C     0.89673   0.93600   0.37319   0.00000  Uiso   1.00
C21    C     0.85277   0.57400   0.31889   0.00000  Uiso   1.00
C22    C     0.84234   0.54220   0.27509   0.00000  Uiso   1.00
C23    C     0.75464   0.49141   0.26326   0.00000  Uiso   1.00
H24    H     0.74725   0.58296   0.41989   0.00000  Uiso   1.00
H25    H     0.85757   0.45708   0.46899   0.00000  Uiso   1.00
H26    H     0.73039   0.79589   0.43737   0.00000  Uiso   1.00
H27    H     0.63292   0.49086   0.36196   0.00000  Uiso   1.00
H28    H     0.01276   0.32562   0.50980   0.00000  Uiso   1.00
H29    H     0.74456   0.04002   0.44312   0.00000  Uiso   1.00
H30    H     0.53902   0.39680   0.28410   0.00000  Uiso   1.00
H31    H     0.00044   0.64505   0.31488   0.00000  Uiso   1.00
H32    H     0.12467   0.52258   0.35821   0.00000  Uiso   1.00
H33    H     0.99748   0.86139   0.32660   0.00000  Uiso   1.00
H34    H     0.90001   0.55635   0.25118   0.00000  Uiso   1.00
H35    H     0.22955   0.37878   0.41990   0.00000  Uiso   1.00
H36    H     0.96134   0.09319   0.35321   0.00000  Uiso   1.00
H37    H     0.75580   0.44996   0.19419   0.00000  Uiso   1.00
O38    O     0.19832   0.27055   0.49526   0.00000  Uiso   1.00
O39    O     0.84643   0.20781   0.40777   0.00000  Uiso   1.00
O40    O     0.57677   0.36391   0.19914   0.00000  Uiso   1.00
N41    N     0.04673   0.35492   0.48269   0.00000  Uiso   1.00
N42    N     0.79599   0.02285   0.42035   0.00000  Uiso   1.00
N43    N     0.60381   0.42151   0.27168   0.00000  Uiso   1.00
N44    N     0.16338   0.38353   0.43431   0.00000  Uiso   1.00
N45    N     0.91264   0.05145   0.37197   0.00000  Uiso   1.00
N46    N     0.72046   0.45011   0.22330   0.00000  Uiso   1.00
C47    C     0.69234   0.04788   0.10054   0.00000  Uiso   1.00
C48    C     0.59720   0.10721   0.08823   0.00000  Uiso   1.00
C49    C     0.58215   0.17253   0.05087   0.00000  Uiso   1.00
C50    C     0.48987   0.21957   0.04556   0.00000  Uiso   1.00
C51    C     0.35346   0.31434   0.02172   0.00000  Uiso   1.00
C52    C     0.66656   0.92365   0.10604   0.00000  Uiso   1.00
C53    C     0.70984   0.83464   0.08366   0.00000  Uiso   1.00
C54    C     0.67596   0.72715   0.09335   0.00000  Uiso   1.00
C55    C     0.64728   0.53694   0.09718   0.00000  Uiso   1.00
C56    C     0.71929   0.09042   0.14643   0.00000  Uiso   1.00
C57    C     0.80692   0.14160   0.15801   0.00000  Uiso   1.00
C58    C     0.81745   0.17450   0.20171   0.00000  Uiso   1.00
C59    C     0.87064   0.24322   0.26826   0.00000  Uiso   1.00
C60    C     0.55523   0.01527   0.15756   0.00000  Uiso   1.00
C61    C     0.52273   0.08949   0.11920   0.00000  Uiso   1.00
C62    C     0.43045   0.13645   0.11395   0.00000  Uiso   1.00
C63    C     0.41526   0.20183   0.07658   0.00000  Uiso   1.00
C64    C     0.59209   0.90594   0.13701   0.00000  Uiso   1.00
C65    C     0.55814   0.79856   0.14674   0.00000  Uiso   1.00
C66    C     0.60135   0.70941   0.12437   0.00000  Uiso   1.00
C67    C     0.64482   0.07271   0.17740   0.00000  Uiso   1.00
C68    C     0.65521   0.10552   0.22109   0.00000  Uiso   1.00
C69    C     0.74284   0.15675   0.23274   0.00000  Uiso   1.00
H70    H     0.75032   0.06166   0.07643   0.00000  Uiso   1.00
H71    H     0.63980   0.18621   0.02691   0.00000  Uiso   1.00
H72    H     0.76748   0.84837   0.05970   0.00000  Uiso   1.00
H73    H     0.86454   0.15529   0.13404   0.00000  Uiso   1.00
H74    H     0.48441   0.31645   0.98565   0.00000  Uiso   1.00
H75    H     0.75365   0.60409   0.05479   0.00000  Uiso   1.00
H76    H     0.95832   0.25129   0.21156   0.00000  Uiso   1.00
H77    H     0.49724   0.00148   0.18167   0.00000  Uiso   1.00
H78    H     0.37283   0.12273   0.13792   0.00000  Uiso   1.00
H79    H     0.50051   0.78488   0.17071   0.00000  Uiso   1.00
H80    H     0.59757   0.09180   0.24505   0.00000  Uiso   1.00
H81    H     0.26773   0.26492   0.07575   0.00000  Uiso   1.00
H82    H     0.53697   0.55256   0.14490   0.00000  Uiso   1.00
H83    H     0.74164   0.19976   0.30166   0.00000  Uiso   1.00
O84    O     0.29878   0.37150   0.00001   0.00000  Uiso   1.00
O85    O     0.65203   0.43692   0.09073   0.00000  Uiso   1.00
O86    O     0.92055   0.28603   0.29640   0.00000  Uiso   1.00
N87    N     0.45050   0.28770   0.01286   0.00000  Uiso   1.00
N88    N     0.70221   0.62169   0.07750   0.00000  Uiso   1.00
N89    N     0.89357   0.22674   0.22407   0.00000  Uiso   1.00
N90    N     0.33390   0.25997   0.06134   0.00000  Uiso   1.00
N91    N     0.58561   0.59396   0.12599   0.00000  Uiso   1.00
N92    N     0.77697   0.19901   0.27255   0.00000  Uiso   1.00
C93    C     0.19475   0.40282   0.89583   0.00000  Uiso   1.00
C94    C     0.09969   0.46261   0.90794   0.00000  Uiso   1.00
C95    C     0.08475   0.52880   0.94508   0.00000  Uiso   1.00
C96    C     0.99254   0.57614   0.95023   0.00000  Uiso   1.00
C97    C     0.85627   0.67171   0.97375   0.00000  Uiso   1.00
C98    C     0.16879   0.27852   0.89077   0.00000  Uiso   1.00
C99    C     0.21195   0.18994   0.91346   0.00000  Uiso   1.00
C100   C     0.17791   0.08231   0.90414   0.00000  Uiso   1.00
C101   C     0.14896   0.89207   0.90097   0.00000  Uiso   1.00
C102   C     0.22174   0.44427   0.84980   0.00000  Uiso   1.00
C103   C     0.30944   0.49502   0.83803   0.00000  Uiso   1.00
C104   C     0.32000   0.52690   0.79422   0.00000  Uiso   1.00
C105   C     0.37327   0.59401   0.72744   0.00000  Uiso   1.00
C106   C     0.05757   0.36918   0.83894   0.00000  Uiso   1.00
C107   C     0.02518   0.44433   0.87704   0.00000  Uiso   1.00
C108   C     0.93297   0.49158   0.88213   0.00000  Uiso   1.00
C109   C     0.91789   0.55783   0.91927   0.00000  Uiso   1.00
C110   C     0.09428   0.26025   0.85987   0.00000  Uiso   1.00
C111   C     0.06018   0.15272   0.85051   0.00000  Uiso   1.00
C112   C     0.10327   0.06400   0.87319   0.00000  Uiso   1.00
C113   C     0.14723   0.42600   0.81889   0.00000  Uiso   1.00
C114   C     0.15766   0.45780   0.77509   0.00000  Uiso   1.00
C115   C     0.24536   0.50859   0.76326   0.00000  Uiso   1.00
H116   H     0.25275   0.41704   0.91989   0.00000  Uiso   1.00
H117   H     0.14243   0.54292   0.96899   0.00000  Uiso   1.00
H118   H     0.26961   0.20411   0.93737   0.00000  Uiso   1.00
H119   H     0.36708   0.50914   0.86196   0.00000  Uiso   1.00
H120   H     0.98724   0.67438   0.00980   0.00000  Uiso   1.00
H121   H     0.25544   0.95998   0.94312   0.00000  Uiso   1.00
H122   H     0.46098   0.60320   0.78410   0.00000  Uiso   1.00
H123   H     0.99956   0.35495   0.81488   0.00000  Uiso   1.00
H124   H     0.87533   0.47742   0.85821   0.00000  Uiso   1.00
H125   H     0.00252   0.13861   0.82660   0.00000  Uiso   1.00
H126   H     0.09999   0.44365   0.75118   0.00000  Uiso   1.00
H127   H     0.77045   0.62122   0.91990   0.00000  Uiso   1.00
H128   H     0.03866   0.90681   0.85321   0.00000  Uiso   1.00
H129   H     0.24420   0.55004   0.69419   0.00000  Uiso   1.00
O130   O     0.80168   0.72945   0.99526   0.00000  Uiso   1.00
O131   O     0.15357   0.79219   0.90777   0.00000  Uiso   1.00
O132   O     0.42323   0.63609   0.69914   0.00000  Uiso   1.00
N133   N     0.95327   0.64508   0.98269   0.00000  Uiso   1.00
N134   N     0.20401   0.97715   0.92035   0.00000  Uiso   1.00
N135   N     0.39619   0.57849   0.77168   0.00000  Uiso   1.00
N136   N     0.83662   0.61647   0.93431   0.00000  Uiso   1.00
N137   N     0.08736   0.94855   0.87197   0.00000  Uiso   1.00
N138   N     0.27954   0.54989   0.72330   0.00000  Uiso   1.00
C139   C     0.30766   0.95212   0.60054   0.00000  Uiso   1.00
C140   C     0.40280   0.89279   0.58823   0.00000  Uiso   1.00
C141   C     0.41785   0.82747   0.55087   0.00000  Uiso   1.00
C142   C     0.51013   0.78043   0.54556   0.00000  Uiso   1.00
C143   C     0.64654   0.68566   0.52172   0.00000  Uiso   1.00
C144   C     0.33344   0.07635   0.60604   0.00000  Uiso   1.00
C145   C     0.29016   0.16536   0.58366   0.00000  Uiso   1.00
C146   C     0.32404   0.27285   0.59335   0.00000  Uiso   1.00
C147   C     0.35272   0.46306   0.59718   0.00000  Uiso   1.00
C148   C     0.28071   0.90958   0.64643   0.00000  Uiso   1.00
C149   C     0.19308   0.85840   0.65801   0.00000  Uiso   1.00
C150   C     0.18255   0.82550   0.70171   0.00000  Uiso   1.00
C151   C     0.12936   0.75678   0.76826   0.00000  Uiso   1.00
C152   C     0.44477   0.98473   0.65756   0.00000  Uiso   1.00
C153   C     0.47727   0.91051   0.61920   0.00000  Uiso   1.00
C154   C     0.56955   0.86355   0.61395   0.00000  Uiso   1.00
C155   C     0.58474   0.79817   0.57658   0.00000  Uiso   1.00
C156   C     0.40791   0.09406   0.63701   0.00000  Uiso   1.00
C157   C     0.44186   0.20144   0.64674   0.00000  Uiso   1.00
C158   C     0.39865   0.29059   0.62437   0.00000  Uiso   1.00
C159   C     0.35518   0.92729   0.67740   0.00000  Uiso   1.00
C160   C     0.34479   0.89448   0.72109   0.00000  Uiso   1.00
C161   C     0.25716   0.84325   0.73274   0.00000  Uiso   1.00
H162   H     0.24968   0.93834   0.57643   0.00000  Uiso   1.00
H163   H     0.36020   0.81379   0.52691   0.00000  Uiso   1.00
H164   H     0.23252   0.15163   0.55970   0.00000  Uiso   1.00
H165   H     0.13546   0.84471   0.63404   0.00000  Uiso   1.00
H166   H     0.51559   0.68355   0.48565   0.00000  Uiso   1.00
H167   H     0.24635   0.39591   0.55479   0.00000  Uiso   1.00
H168   H     0.04168   0.74871   0.71156   0.00000  Uiso   1.00
H169   H     0.50276   0.99852   0.68167   0.00000  Uiso   1.00
H170   H     0.62717   0.87727   0.63792   0.00000  Uiso   1.00
H171   H     0.49949   0.21512   0.67071   0.00000  Uiso   1.00
H172   H     0.40243   0.90820   0.74505   0.00000  Uiso   1.00
H173   H     0.73227   0.73508   0.57575   0.00000  Uiso   1.00
H174   H     0.46303   0.44744   0.64490   0.00000  Uiso   1.00
H175   H     0.25836   0.80024   0.80166   0.00000  Uiso   1.00
O176   O     0.70122   0.62850   0.50001   0.00000  Uiso   1.00
O177   O     0.34797   0.56308   0.59073   0.00000  Uiso   1.00
O178   O     0.07945   0.71397   0.79640   0.00000  Uiso   1.00
N179   N     0.54950   0.71230   0.51286   0.00000  Uiso   1.00
N180   N     0.29779   0.37831   0.57750   0.00000  Uiso   1.00
N181   N     0.10643   0.77326   0.72407   0.00000  Uiso   1.00
N182   N     0.66610   0.74003   0.56134   0.00000  Uiso   1.00
N183   N     0.41439   0.40604   0.62599   0.00000  Uiso   1.00
N184   N     0.22303   0.80099   0.77255   0.00000  Uiso   1.00
C185   C     0.19475   0.59718   0.10417   0.00000  Uiso   1.00
C186   C     0.09969   0.53739   0.09206   0.00000  Uiso   1.00
C187   C     0.08475   0.47120   0.05492   0.00000  Uiso   1.00
C188   C     0.99254   0.42386   0.04977   0.00000  Uiso   1.00
C189   C     0.85627   0.32829   0.02625   0.00000  Uiso   1.00
C190   C     0.16879   0.72148   0.10923   0.00000  Uiso   1.00
C191   C     0.21195   0.81006   0.08654   0.00000  Uiso   1.00
C192   C     0.17791   0.91769   0.09586   0.00000  Uiso   1.00
C193   C     0.14896   0.10793   0.09903   0.00000  Uiso   1.00
C194   C     0.22174   0.55573   0.15020   0.00000  Uiso   1.00
C195   C     0.30944   0.50498   0.16197   0.00000  Uiso   1.00
C196   C     0.32000   0.47310   0.20578   0.00000  Uiso   1.00
C197   C     0.37327   0.40599   0.27256   0.00000  Uiso   1.00
C198   C     0.05757   0.63082   0.16106   0.00000  Uiso   1.00
C199   C     0.02518   0.55567   0.12296   0.00000  Uiso   1.00
C200   C     0.93297   0.50842   0.11787   0.00000  Uiso   1.00
C201   C     0.91789   0.44217   0.08073   0.00000  Uiso   1.00
C202   C     0.09428   0.73975   0.14013   0.00000  Uiso   1.00
C203   C     0.06018   0.84728   0.14949   0.00000  Uiso   1.00
C204   C     0.10327   0.93600   0.12681   0.00000  Uiso   1.00
C205   C     0.14723   0.57400   0.18111   0.00000  Uiso   1.00
C206   C     0.15766   0.54220   0.22491   0.00000  Uiso   1.00
C207   C     0.24536   0.49141   0.23674   0.00000  Uiso   1.00
H208   H     0.25275   0.58296   0.08011   0.00000  Uiso   1.00
H209   H     0.14243   0.45708   0.03101   0.00000  Uiso   1.00
H210   H     0.26961   0.79589   0.06263   0.00000  Uiso   1.00
H211   H     0.36708   0.49086   0.13804   0.00000  Uiso   1.00
H212   H     0.98724   0.32562   0.99020   0.00000  Uiso   1.00
H213   H     0.25544   0.04002   0.05688   0.00000  Uiso   1.00
H214   H     0.46098   0.39680   0.21590   0.00000  Uiso   1.00
H215   H     0.99956   0.64505   0.18512   0.00000  Uiso   1.00
H216   H     0.87533   0.52258   0.14179   0.00000  Uiso   1.00
H217   H     0.00252   0.86139   0.17340   0.00000  Uiso   1.00
H218   H     0.09999   0.55635   0.24882   0.00000  Uiso   1.00
H219   H     0.77045   0.37878   0.08010   0.00000  Uiso   1.00
H220   H     0.03866   0.09319   0.14679   0.00000  Uiso   1.00
H221   H     0.24420   0.44996   0.30581   0.00000  Uiso   1.00
O222   O     0.80168   0.27055   0.00474   0.00000  Uiso   1.00
O223   O     0.15357   0.20781   0.09223   0.00000  Uiso   1.00
O224   O     0.42323   0.36391   0.30086   0.00000  Uiso   1.00
N225   N     0.95327   0.35492   0.01731   0.00000  Uiso   1.00
N226   N     0.20401   0.02285   0.07965   0.00000  Uiso   1.00
N227   N     0.39619   0.42151   0.22832   0.00000  Uiso   1.00
N228   N     0.83662   0.38353   0.06569   0.00000  Uiso   1.00
N229   N     0.08736   0.05145   0.12803   0.00000  Uiso   1.00
N230   N     0.27954   0.45011   0.27670   0.00000  Uiso   1.00
C231   C     0.30766   0.04788   0.39946   0.00000  Uiso   1.00
C232   C     0.40280   0.10721   0.41177   0.00000  Uiso   1.00
C233   C     0.41785   0.17253   0.44913   0.00000  Uiso   1.00
C234   C     0.51013   0.21957   0.45444   0.00000  Uiso   1.00
C235   C     0.64654   0.31434   0.47828   0.00000  Uiso   1.00
C236   C     0.33344   0.92365   0.39396   0.00000  Uiso   1.00
C237   C     0.29016   0.83464   0.41634   0.00000  Uiso   1.00
C238   C     0.32404   0.72715   0.40665   0.00000  Uiso   1.00
C239   C     0.35272   0.53694   0.40282   0.00000  Uiso   1.00
C240   C     0.28071   0.09042   0.35357   0.00000  Uiso   1.00
C241   C     0.19308   0.14160   0.34199   0.00000  Uiso   1.00
C242   C     0.18255   0.17450   0.29829   0.00000  Uiso   1.00
C243   C     0.12936   0.24322   0.23174   0.00000  Uiso   1.00
C244   C     0.44477   0.01527   0.34244   0.00000  Uiso   1.00
C245   C     0.47727   0.08949   0.38080   0.00000  Uiso   1.00
C246   C     0.56955   0.13645   0.38605   0.00000  Uiso   1.00
C247   C     0.58474   0.20183   0.42342   0.00000  Uiso   1.00
C248   C     0.40791   0.90594   0.36299   0.00000  Uiso   1.00
C249   C     0.44186   0.79856   0.35326   0.00000  Uiso   1.00
C250   C     0.39865   0.70941   0.37563   0.00000  Uiso   1.00
C251   C     0.35518   0.07271   0.32260   0.00000  Uiso   1.00
C252   C     0.34479   0.10552   0.27891   0.00000  Uiso   1.00
C253   C     0.25716   0.15675   0.26726   0.00000  Uiso   1.00
H254   H     0.24968   0.06166   0.42357   0.00000  Uiso   1.00
H255   H     0.36020   0.18621   0.47309   0.00000  Uiso   1.00
H256   H     0.23252   0.84837   0.44030   0.00000  Uiso   1.00
H257   H     0.13546   0.15529   0.36596   0.00000  Uiso   1.00
H258   H     0.51559   0.31645   0.51435   0.00000  Uiso   1.00
H259   H     0.24635   0.60409   0.44521   0.00000  Uiso   1.00
H260   H     0.04168   0.25129   0.28844   0.00000  Uiso   1.00
H261   H     0.50276   0.00148   0.31833   0.00000  Uiso   1.00
H262   H     0.62717   0.12273   0.36208   0.00000  Uiso   1.00
H263   H     0.49949   0.78488   0.32929   0.00000  Uiso   1.00
H264   H     0.40243   0.09180   0.25495   0.00000  Uiso   1.00
H265   H     0.73227   0.26492   0.42425   0.00000  Uiso   1.00
H266   H     0.46303   0.55256   0.35510   0.00000  Uiso   1.00
H267   H     0.25836   0.19976   0.19834   0.00000  Uiso   1.00
O268   O     0.70122   0.37150   0.49999   0.00000  Uiso   1.00
O269   O     0.34797   0.43692   0.40927   0.00000  Uiso   1.00
O270   O     0.07945   0.28603   0.20360   0.00000  Uiso   1.00
N271   N     0.54950   0.28770   0.48714   0.00000  Uiso   1.00
N272   N     0.29779   0.62169   0.42250   0.00000  Uiso   1.00
N273   N     0.10643   0.22674   0.27593   0.00000  Uiso   1.00
N274   N     0.66610   0.25997   0.43866   0.00000  Uiso   1.00
N275   N     0.41439   0.59396   0.37401   0.00000  Uiso   1.00
N276   N     0.22303   0.19901   0.22745   0.00000  Uiso   1.00
C277   C     0.80525   0.40282   0.60417   0.00000  Uiso   1.00
C278   C     0.90031   0.46261   0.59206   0.00000  Uiso   1.00
C279   C     0.91525   0.52880   0.55492   0.00000  Uiso   1.00
C280   C     0.00746   0.57614   0.54977   0.00000  Uiso   1.00
C281   C     0.14373   0.67171   0.52625   0.00000  Uiso   1.00
C282   C     0.83121   0.27852   0.60923   0.00000  Uiso   1.00
C283   C     0.78805   0.18994   0.58654   0.00000  Uiso   1.00
C284   C     0.82209   0.08231   0.59586   0.00000  Uiso   1.00
C285   C     0.85104   0.89207   0.59903   0.00000  Uiso   1.00
C286   C     0.77826   0.44427   0.65020   0.00000  Uiso   1.00
C287   C     0.69056   0.49502   0.66197   0.00000  Uiso   1.00
C288   C     0.68000   0.52690   0.70578   0.00000  Uiso   1.00
C289   C     0.62673   0.59401   0.77256   0.00000  Uiso   1.00
C290   C     0.94243   0.36918   0.66106   0.00000  Uiso   1.00
C291   C     0.97482   0.44433   0.62296   0.00000  Uiso   1.00
C292   C     0.06703   0.49158   0.61787   0.00000  Uiso   1.00
C293   C     0.08211   0.55783   0.58073   0.00000  Uiso   1.00
C294   C     0.90572   0.26025   0.64013   0.00000  Uiso   1.00
C295   C     0.93982   0.15272   0.64949   0.00000  Uiso   1.00
C296   C     0.89673   0.06400   0.62681   0.00000  Uiso   1.00
C297   C     0.85277   0.42600   0.68111   0.00000  Uiso   1.00
C298   C     0.84234   0.45780   0.72491   0.00000  Uiso   1.00
C299   C     0.75464   0.50859   0.73674   0.00000  Uiso   1.00
H300   H     0.74725   0.41704   0.58011   0.00000  Uiso   1.00
H301   H     0.85757   0.54292   0.53101   0.00000  Uiso   1.00
H302   H     0.73039   0.20411   0.56263   0.00000  Uiso   1.00
H303   H     0.63292   0.50914   0.63804   0.00000  Uiso   1.00
H304   H     0.01276   0.67438   0.49020   0.00000  Uiso   1.00
H305   H     0.74456   0.95998   0.55688   0.00000  Uiso   1.00
H306   H     0.53902   0.60320   0.71590   0.00000  Uiso   1.00
H307   H     0.00044   0.35495   0.68512   0.00000  Uiso   1.00
H308   H     0.12467   0.47742   0.64179   0.00000  Uiso   1.00
H309   H     0.99748   0.13861   0.67340   0.00000  Uiso   1.00
H310   H     0.90001   0.44365   0.74882   0.00000  Uiso   1.00
H311   H     0.22955   0.62122   0.58010   0.00000  Uiso   1.00
H312   H     0.96134   0.90681   0.64679   0.00000  Uiso   1.00
H313   H     0.75580   0.55004   0.80581   0.00000  Uiso   1.00
O314   O     0.19832   0.72945   0.50474   0.00000  Uiso   1.00
O315   O     0.84643   0.79219   0.59223   0.00000  Uiso   1.00
O316   O     0.57677   0.63609   0.80086   0.00000  Uiso   1.00
N317   N     0.04673   0.64508   0.51731   0.00000  Uiso   1.00
N318   N     0.79599   0.97715   0.57965   0.00000  Uiso   1.00
N319   N     0.60381   0.57849   0.72832   0.00000  Uiso   1.00
N320   N     0.16338   0.61647   0.56569   0.00000  Uiso   1.00
N321   N     0.91264   0.94855   0.62803   0.00000  Uiso   1.00
N322   N     0.72046   0.54989   0.77670   0.00000  Uiso   1.00
C323   C     0.69234   0.95212   0.89946   0.00000  Uiso   1.00
C324   C     0.59720   0.89279   0.91177   0.00000  Uiso   1.00
C325   C     0.58215   0.82747   0.94913   0.00000  Uiso   1.00
C326   C     0.48987   0.78043   0.95444   0.00000  Uiso   1.00
C327   C     0.35346   0.68566   0.97828   0.00000  Uiso   1.00
C328   C     0.66656   0.07635   0.89396   0.00000  Uiso   1.00
C329   C     0.70984   0.16536   0.91634   0.00000  Uiso   1.00
C330   C     0.67596   0.27285   0.90665   0.00000  Uiso   1.00
C331   C     0.64728   0.46306   0.90282   0.00000  Uiso   1.00
C332   C     0.71929   0.90958   0.85357   0.00000  Uiso   1.00
C333   C     0.80692   0.85840   0.84199   0.00000  Uiso   1.00
C334   C     0.81745   0.82550   0.79829   0.00000  Uiso   1.00
C335   C     0.87064   0.75678   0.73174   0.00000  Uiso   1.00
C336   C     0.55523   0.98473   0.84244   0.00000  Uiso   1.00
C337   C     0.52273   0.91051   0.88080   0.00000  Uiso   1.00
C338   C     0.43045   0.86355   0.88605   0.00000  Uiso   1.00
C339   C     0.41526   0.79817   0.92342   0.00000  Uiso   1.00
C340   C     0.59209   0.09406   0.86299   0.00000  Uiso   1.00
C341   C     0.55814   0.20144   0.85326   0.00000  Uiso   1.00
C342   C     0.60135   0.29059   0.87563   0.00000  Uiso   1.00
C343   C     0.64482   0.92729   0.82260   0.00000  Uiso   1.00
C344   C     0.65521   0.89448   0.77891   0.00000  Uiso   1.00
C345   C     0.74284   0.84325   0.76726   0.00000  Uiso   1.00
H346   H     0.75032   0.93834   0.92357   0.00000  Uiso   1.00
H347   H     0.63980   0.81379   0.97309   0.00000  Uiso   1.00
H348   H     0.76748   0.15163   0.94030   0.00000  Uiso   1.00
H349   H     0.86454   0.84471   0.86596   0.00000  Uiso   1.00
H350   H     0.48441   0.68355   0.01435   0.00000  Uiso   1.00
H351   H     0.75365   0.39591   0.94521   0.00000  Uiso   1.00
H352   H     0.95832   0.74871   0.78844   0.00000  Uiso   1.00
H353   H     0.49724   0.99852   0.81833   0.00000  Uiso   1.00
H354   H     0.37283   0.87727   0.86208   0.00000  Uiso   1.00
H355   H     0.50051   0.21512   0.82929   0.00000  Uiso   1.00
H356   H     0.59757   0.90820   0.75495   0.00000  Uiso   1.00
H357   H     0.26773   0.73508   0.92425   0.00000  Uiso   1.00
H358   H     0.53697   0.44744   0.85510   0.00000  Uiso   1.00
H359   H     0.74164   0.80024   0.69834   0.00000  Uiso   1.00
O360   O     0.29878   0.62850  -0.00001   0.00000  Uiso   1.00
O361   O     0.65203   0.56308   0.90927   0.00000  Uiso   1.00
O362   O     0.92055   0.71397   0.70360   0.00000  Uiso   1.00
N363   N     0.45050   0.71230   0.98714   0.00000  Uiso   1.00
N364   N     0.70221   0.37831   0.92250   0.00000  Uiso   1.00
N365   N     0.89357   0.77326   0.77593   0.00000  Uiso   1.00
N366   N     0.33390   0.74003   0.93866   0.00000  Uiso   1.00
N367   N     0.58561   0.40604   0.87401   0.00000  Uiso   1.00
N368   N     0.77697   0.80099   0.72745   0.00000  Uiso   1.00
