data_job_06655
_audit_creation_date              2018-12-19
_audit_creation_method            'Materials Studio'
_symmetry_space_group_name_H-M    'P1'
_symmetry_Int_Tables_number       1
_symmetry_cell_setting            triclinic
loop_
_symmetry_equiv_pos_as_xyz
  x,y,z
_cell_length_a                    19.5299
_cell_length_b                    19.7591
_cell_length_c                    23.0621
_cell_angle_alpha                 111.4900
_cell_angle_beta                  100.9390
_cell_angle_gamma                 103.9470
loop_
_atom_site_label
_atom_site_type_symbol
_atom_site_fract_x
_atom_site_fract_y
_atom_site_fract_z
_atom_site_U_iso_or_equiv
_atom_site_adp_type
_atom_site_occupancy
C1     C     0.14071   0.72773   0.14678   0.00000  Uiso   1.00
C2     C     0.06902   0.68671   0.08959   0.00000  Uiso   1.00
C3     C     0.05941   0.62992   0.02835   0.00000  Uiso   1.00
C4     C     0.98956   0.59958   0.98267   0.00000  Uiso   1.00
C5     C     0.88710   0.53203   0.89156   0.00000  Uiso   1.00
C6     C     0.15821   0.81395   0.16590   0.00000  Uiso   1.00
C7     C     0.22359   0.86413   0.16882   0.00000  Uiso   1.00
C8     C     0.22882   0.94090   0.18738   0.00000  Uiso   1.00
C9     C     0.26484   0.07090   0.21479   0.00000  Uiso   1.00
C10    C     0.12161   0.71481   0.20388   0.00000  Uiso   1.00
C11    C     0.15623   0.68167   0.23876   0.00000  Uiso   1.00
C12    C     0.13066   0.67499   0.28931   0.00000  Uiso   1.00
C13    C     0.10985   0.65107   0.37570   0.00000  Uiso   1.00
C14    C     0.03376   0.77484   0.17455   0.00000  Uiso   1.00
C15    C     0.01093   0.71231   0.10468   0.00000  Uiso   1.00
C16    C     0.94108   0.68205   0.05908   0.00000  Uiso   1.00
C17    C     0.93137   0.62522   0.99778   0.00000  Uiso   1.00
C18    C     0.10012   0.83954   0.18098   0.00000  Uiso   1.00
C19    C     0.10526   0.91626   0.19955   0.00000  Uiso   1.00
C20    C     0.17063   0.96654   0.20249   0.00000  Uiso   1.00
C21    C     0.06352   0.74040   0.21897   0.00000  Uiso   1.00
C22    C     0.03790   0.73379   0.26948   0.00000  Uiso   1.00
C23    C     0.07246   0.70063   0.30443   0.00000  Uiso   1.00
H24    H     0.18593   0.70781   0.13503   0.00000  Uiso   1.00
H25    H     0.10438   0.61014   0.01669   0.00000  Uiso   1.00
H26    H     0.26853   0.84431   0.15715   0.00000  Uiso   1.00
H27    H     0.20118   0.66187   0.22707   0.00000  Uiso   1.00
H28    H     0.98835   0.51315   0.89213   0.00000  Uiso   1.00
H29    H     0.33448   0.00693   0.18831   0.00000  Uiso   1.00
H30    H     0.19245   0.62222   0.33576   0.00000  Uiso   1.00
H31    H     0.98854   0.79477   0.18630   0.00000  Uiso   1.00
H32    H     0.89614   0.70186   0.07077   0.00000  Uiso   1.00
H33    H     0.06030   0.93604   0.21122   0.00000  Uiso   1.00
H34    H     0.99294   0.75360   0.28114   0.00000  Uiso   1.00
H35    H     0.81934   0.58760   0.93602   0.00000  Uiso   1.00
H36    H     0.16548   0.08139   0.23220   0.00000  Uiso   1.00
H37    H     0.02344   0.69667   0.37965   0.00000  Uiso   1.00
O38    O     0.84663   0.48771   0.83714   0.00000  Uiso   1.00
O39    O     0.30075   0.13553   0.22573   0.00000  Uiso   1.00
O40    O     0.11441   0.63079   0.41917   0.00000  Uiso   1.00
N41    N     0.96125   0.54341   0.91832   0.00000  Uiso   1.00
N42    N     0.28486   0.00507   0.19522   0.00000  Uiso   1.00
N43    N     0.15209   0.64541   0.33308   0.00000  Uiso   1.00
N44    N     0.87030   0.58347   0.94193   0.00000  Uiso   1.00
N45    N     0.19391   0.04513   0.21884   0.00000  Uiso   1.00
N46    N     0.06114   0.68547   0.35670   0.00000  Uiso   1.00
C47    C     0.31982   0.04664   0.70793   0.00000  Uiso   1.00
C48    C     0.25874   0.97488   0.65333   0.00000  Uiso   1.00
C49    C     0.19684   0.97448   0.61190   0.00000  Uiso   1.00
C50    C     0.14739   0.90283   0.56510   0.00000  Uiso   1.00
C51    C     0.05069   0.80186   0.48112   0.00000  Uiso   1.00
C52    C     0.32378   0.03566   0.77043   0.00000  Uiso   1.00
C53    C     0.31658   0.08637   0.82746   0.00000  Uiso   1.00
C54    C     0.32189   0.06588   0.87924   0.00000  Uiso   1.00
C55    C     0.32623   0.05930   0.97707   0.00000  Uiso   1.00
C56    C     0.39218   0.04267   0.69357   0.00000  Uiso   1.00
C57    C     0.44250   0.09928   0.68599   0.00000  Uiso   1.00
C58    C     0.50542   0.08471   0.67307   0.00000  Uiso   1.00
C59    C     0.61595   0.08901   0.65157   0.00000  Uiso   1.00
C60    C     0.34208   0.92011   0.69849   0.00000  Uiso   1.00
C61    C     0.27083   0.90616   0.64820   0.00000  Uiso   1.00
C62    C     0.22147   0.83449   0.60145   0.00000  Uiso   1.00
C63    C     0.15950   0.83398   0.55996   0.00000  Uiso   1.00
C64    C     0.33587   0.96694   0.76530   0.00000  Uiso   1.00
C65    C     0.34121   0.94638   0.81701   0.00000  Uiso   1.00
C66    C     0.33400   0.99703   0.87410   0.00000  Uiso   1.00
C67    C     0.40428   0.97395   0.68844   0.00000  Uiso   1.00
C68    C     0.46713   0.95929   0.67554   0.00000  Uiso   1.00
C69    C     0.51753   0.01586   0.66794   0.00000  Uiso   1.00
H70    H     0.31041   0.10015   0.71193   0.00000  Uiso   1.00
H71    H     0.18750   0.02768   0.61589   0.00000  Uiso   1.00
H72    H     0.30723   0.13955   0.83142   0.00000  Uiso   1.00
H73    H     0.43313   0.15246   0.68997   0.00000  Uiso   1.00
H74    H     0.05655   0.91702   0.50717   0.00000  Uiso   1.00
H75    H     0.30903   0.15292   0.96162   0.00000  Uiso   1.00
H76    H     0.57452   0.18015   0.66335   0.00000  Uiso   1.00
H77    H     0.35149   0.86661   0.69450   0.00000  Uiso   1.00
H78    H     0.23084   0.78132   0.59749   0.00000  Uiso   1.00
H79    H     0.35057   0.89319   0.81302   0.00000  Uiso   1.00
H80    H     0.47647   0.90610   0.67157   0.00000  Uiso   1.00
H81    H     0.09172   0.71707   0.49224   0.00000  Uiso   1.00
H82    H     0.34421   0.95297   0.94670   0.00000  Uiso   1.00
H83    H     0.60969   0.98019   0.64842   0.00000  Uiso   1.00
O84    O     0.99401   0.76515   0.43622   0.00000  Uiso   1.00
O85    O     0.32527   0.07465   0.03245   0.00000  Uiso   1.00
O86    O     0.67358   0.11037   0.64112   0.00000  Uiso   1.00
N87    N     0.08140   0.88167   0.51696   0.00000  Uiso   1.00
N88    N     0.31744   0.10221   0.94184   0.00000  Uiso   1.00
N89    N     0.56566   0.12768   0.66300   0.00000  Uiso   1.00
N90    N     0.10032   0.77407   0.50892   0.00000  Uiso   1.00
N91    N     0.33636   0.99462   0.93381   0.00000  Uiso   1.00
N92    N     0.58458   0.02008   0.65496   0.00000  Uiso   1.00
C93    C     0.82463   0.19720   0.02603   0.00000  Uiso   1.00
C94    C     0.80393   0.14713   0.95267   0.00000  Uiso   1.00
C95    C     0.74044   0.08293   0.91517   0.00000  Uiso   1.00
C96    C     0.73167   0.04492   0.84888   0.00000  Uiso   1.00
C97    C     0.69151   0.96330   0.73921   0.00000  Uiso   1.00
C98    C     0.90098   0.19684   0.05634   0.00000  Uiso   1.00
C99    C     0.91907   0.17444   0.10601   0.00000  Uiso   1.00
C100   C     0.99200   0.17828   0.12701   0.00000  Uiso   1.00
C101   C     0.10252   0.17389   0.17832   0.00000  Uiso   1.00
C102   C     0.83567   0.27959   0.03409   0.00000  Uiso   1.00
C103   C     0.79888   0.32679   0.06507   0.00000  Uiso   1.00
C104   C     0.81683   0.40031   0.06734   0.00000  Uiso   1.00
C105   C     0.82596   0.52440   0.08411   0.00000  Uiso   1.00
C106   C     0.92196   0.24386   0.97500   0.00000  Uiso   1.00
C107   C     0.85681   0.17248   0.92496   0.00000  Uiso   1.00
C108   C     0.84813   0.13456   0.85871   0.00000  Uiso   1.00
C109   C     0.78463   0.07031   0.82112   0.00000  Uiso   1.00
C110   C     0.95385   0.22219   0.02863   0.00000  Uiso   1.00
C111   C     0.02676   0.22607   0.04956   0.00000  Uiso   1.00
C112   C     0.04496   0.20368   0.09924   0.00000  Uiso   1.00
C113   C     0.88854   0.30494   0.00638   0.00000  Uiso   1.00
C114   C     0.90657   0.37841   0.00861   0.00000  Uiso   1.00
C115   C     0.86980   0.42570   0.03958   0.00000  Uiso   1.00
H116   H     0.78347   0.17747   0.04761   0.00000  Uiso   1.00
H117   H     0.69954   0.06333   0.93664   0.00000  Uiso   1.00
H118   H     0.87815   0.15484   0.12746   0.00000  Uiso   1.00
H119   H     0.75797   0.30715   0.08651   0.00000  Uiso   1.00
H120   H     0.62982   0.94795   0.80139   0.00000  Uiso   1.00
H121   H     0.00643   0.14092   0.20376   0.00000  Uiso   1.00
H122   H     0.75301   0.46211   0.11742   0.00000  Uiso   1.00
H123   H     0.96313   0.26360   0.95342   0.00000  Uiso   1.00
H124   H     0.88905   0.15418   0.83728   0.00000  Uiso   1.00
H125   H     0.06766   0.24569   0.02810   0.00000  Uiso   1.00
H126   H     0.94748   0.39800   0.98716   0.00000  Uiso   1.00
H127   H     0.78363   0.02169   0.72075   0.00000  Uiso   1.00
H128   H     0.16025   0.21466   0.12312   0.00000  Uiso   1.00
H129   H     0.90682   0.53585   0.03678   0.00000  Uiso   1.00
O130   O     0.65477   0.91127   0.68637   0.00000  Uiso   1.00
O131   O     0.14887   0.16446   0.21427   0.00000  Uiso   1.00
O132   O     0.81638   0.58585   0.10100   0.00000  Uiso   1.00
N133   N     0.67618   0.98033   0.79834   0.00000  Uiso   1.00
N134   N     0.02828   0.16073   0.17453   0.00000  Uiso   1.00
N135   N     0.79137   0.46102   0.09383   0.00000  Uiso   1.00
N136   N     0.75894   0.02001   0.75495   0.00000  Uiso   1.00
N137   N     0.11105   0.20041   0.13114   0.00000  Uiso   1.00
N138   N     0.87414   0.50070   0.05044   0.00000  Uiso   1.00
C139   C     0.68206   0.64848   0.13736   0.00000  Uiso   1.00
C140   C     0.61739   0.57373   0.11392   0.00000  Uiso   1.00
C141   C     0.61461   0.50026   0.07375   0.00000  Uiso   1.00
C142   C     0.55050   0.43932   0.05787   0.00000  Uiso   1.00
C143   C     0.45911   0.32140   0.01794   0.00000  Uiso   1.00
C144   C     0.70408   0.68534   0.21196   0.00000  Uiso   1.00
C145   C     0.77418   0.70572   0.25420   0.00000  Uiso   1.00
C146   C     0.78305   0.73874   0.32085   0.00000  Uiso   1.00
C147   C     0.82625   0.79414   0.43311   0.00000  Uiso   1.00
C148   C     0.65008   0.70173   0.11583   0.00000  Uiso   1.00
C149   C     0.67479   0.73591   0.07726   0.00000  Uiso   1.00
C150   C     0.63821   0.78275   0.06299   0.00000  Uiso   1.00
C151   C     0.59757   0.86360   0.02600   0.00000  Uiso   1.00
C152   C     0.57317   0.67089   0.18060   0.00000  Uiso   1.00
C153   C     0.55825   0.58590   0.13741   0.00000  Uiso   1.00
C154   C     0.49414   0.52505   0.12159   0.00000  Uiso   1.00
C155   C     0.49125   0.45151   0.08139   0.00000  Uiso   1.00
C156   C     0.64494   0.69751   0.23544   0.00000  Uiso   1.00
C157   C     0.65371   0.73051   0.30204   0.00000  Uiso   1.00
C158   C     0.72380   0.75093   0.34438   0.00000  Uiso   1.00
C159   C     0.59094   0.71390   0.13931   0.00000  Uiso   1.00
C160   C     0.55432   0.76070   0.12510   0.00000  Uiso   1.00
C161   C     0.57896   0.79494   0.08652   0.00000  Uiso   1.00
H162   H     0.72810   0.63901   0.11907   0.00000  Uiso   1.00
H163   H     0.66039   0.49087   0.05558   0.00000  Uiso   1.00
H164   H     0.81994   0.69630   0.23601   0.00000  Uiso   1.00
H165   H     0.72056   0.72648   0.05910   0.00000  Uiso   1.00
H166   H     0.55924   0.33199   0.99557   0.00000  Uiso   1.00
H167   H     0.89567   0.76518   0.37601   0.00000  Uiso   1.00
H168   H     0.68611   0.82883   0.00296   0.00000  Uiso   1.00
H169   H     0.52713   0.68036   0.19889   0.00000  Uiso   1.00
H170   H     0.44838   0.53449   0.13977   0.00000  Uiso   1.00
H171   H     0.60793   0.73992   0.32020   0.00000  Uiso   1.00
H172   H     0.50856   0.77010   0.14329   0.00000  Uiso   1.00
H173   H     0.38717   0.36740   0.06391   0.00000  Uiso   1.00
H174   H     0.72360   0.80059   0.44435   0.00000  Uiso   1.00
H175   H     0.51404   0.86424   0.07129   0.00000  Uiso   1.00
O176   O     0.42504   0.25299   0.98943   0.00000  Uiso   1.00
O177   O     0.86642   0.82132   0.48855   0.00000  Uiso   1.00
O178   O     0.59149   0.90483   0.99911   0.00000  Uiso   1.00
N179   N     0.52955   0.36035   0.01976   0.00000  Uiso   1.00
N180   N     0.84408   0.76534   0.37544   0.00000  Uiso   1.00
N181   N     0.64818   0.82486   0.02668   0.00000  Uiso   1.00
N182   N     0.43696   0.37940   0.05652   0.00000  Uiso   1.00
N183   N     0.75149   0.78439   0.41221   0.00000  Uiso   1.00
N184   N     0.55559   0.84391   0.06345   0.00000  Uiso   1.00
C185   C     0.76164   0.18564   0.54449   0.00000  Uiso   1.00
C186   C     0.70613   0.16605   0.47953   0.00000  Uiso   1.00
C187   C     0.63085   0.12483   0.45911   0.00000  Uiso   1.00
C188   C     0.58949   0.11299   0.39802   0.00000  Uiso   1.00
C189   C     0.49831   0.07828   0.30314   0.00000  Uiso   1.00
C190   C     0.79799   0.27342   0.57744   0.00000  Uiso   1.00
C191   C     0.79994   0.32245   0.63934   0.00000  Uiso   1.00
C192   C     0.83591   0.40099   0.66067   0.00000  Uiso   1.00
C193   C     0.88738   0.53296   0.71781   0.00000  Uiso   1.00
C194   C     0.82219   0.15330   0.52703   0.00000  Uiso   1.00
C195   C     0.84450   0.10136   0.54657   0.00000  Uiso   1.00
C196   C     0.90086   0.07879   0.52547   0.00000  Uiso   1.00
C197   C     0.98991   0.02426   0.50436   0.00000  Uiso   1.00
C198   C     0.82205   0.23794   0.47232   0.00000  Uiso   1.00
C199   C     0.73895   0.19446   0.44033   0.00000  Uiso   1.00
C200   C     0.69769   0.18268   0.37926   0.00000  Uiso   1.00
C201   C     0.62236   0.14144   0.35875   0.00000  Uiso   1.00
C202   C     0.83080   0.30182   0.53824   0.00000  Uiso   1.00
C203   C     0.86678   0.38030   0.55949   0.00000  Uiso   1.00
C204   C     0.86879   0.42945   0.62140   0.00000  Uiso   1.00
C205   C     0.85500   0.18170   0.48783   0.00000  Uiso   1.00
C206   C     0.91134   0.15921   0.46671   0.00000  Uiso   1.00
C207   C     0.93374   0.10724   0.48621   0.00000  Uiso   1.00
H208   H     0.73609   0.16354   0.57501   0.00000  Uiso   1.00
H209   H     0.60547   0.10286   0.48946   0.00000  Uiso   1.00
H210   H     0.77455   0.30045   0.66966   0.00000  Uiso   1.00
H211   H     0.81910   0.07940   0.57690   0.00000  Uiso   1.00
H212   H     0.47513   0.04814   0.37734   0.00000  Uiso   1.00
H213   H     0.83165   0.46477   0.75732   0.00000  Uiso   1.00
H214   H     0.92560   0.99863   0.56171   0.00000  Uiso   1.00
H215   H     0.84760   0.26005   0.44180   0.00000  Uiso   1.00
H216   H     0.72310   0.20467   0.34893   0.00000  Uiso   1.00
H217   H     0.89217   0.40226   0.52914   0.00000  Uiso   1.00
H218   H     0.93672   0.18120   0.43638   0.00000  Uiso   1.00
H219   H     0.57060   0.13077   0.26328   0.00000  Uiso   1.00
H220   H     0.92712   0.54741   0.64327   0.00000  Uiso   1.00
H221   H     0.02106   0.08126   0.44766   0.00000  Uiso   1.00
O222   O     0.43895   0.05130   0.26164   0.00000  Uiso   1.00
O223   O     0.90670   0.59791   0.76016   0.00000  Uiso   1.00
O224   O     0.02995   0.98634   0.50353   0.00000  Uiso   1.00
N225   N     0.51469   0.07517   0.36323   0.00000  Uiso   1.00
N226   N     0.84800   0.46471   0.71849   0.00000  Uiso   1.00
N227   N     0.93585   0.02891   0.53563   0.00000  Uiso   1.00
N228   N     0.56606   0.11964   0.30186   0.00000  Uiso   1.00
N229   N     0.89937   0.50917   0.65712   0.00000  Uiso   1.00
N230   N     0.98722   0.07338   0.47426   0.00000  Uiso   1.00
C231   C     0.22529   0.62099   0.66100   0.00000  Uiso   1.00
C232   C     0.21532   0.56150   0.59254   0.00000  Uiso   1.00
C233   C     0.17729   0.55906   0.53409   0.00000  Uiso   1.00
C234   C     0.17447   0.50007   0.47663   0.00000  Uiso   1.00
C235   C     0.15386   0.41602   0.37018   0.00000  Uiso   1.00
C236   C     0.30870   0.65768   0.69518   0.00000  Uiso   1.00
C237   C     0.34918   0.73610   0.72304   0.00000  Uiso   1.00
C238   C     0.42496   0.75807   0.75198   0.00000  Uiso   1.00
C239   C     0.54931   0.82334   0.80493   0.00000  Uiso   1.00
C240   C     0.19476   0.57498   0.69656   0.00000  Uiso   1.00
C241   C     0.13945   0.58387   0.72559   0.00000  Uiso   1.00
C242   C     0.11931   0.53622   0.75571   0.00000  Uiso   1.00
C243   C     0.06675   0.47309   0.81079   0.00000  Uiso   1.00
C244   C     0.28791   0.52057   0.66287   0.00000  Uiso   1.00
C245   C     0.24934   0.50696   0.59356   0.00000  Uiso   1.00
C246   C     0.24658   0.44795   0.53617   0.00000  Uiso   1.00
C247   C     0.20855   0.44542   0.47765   0.00000  Uiso   1.00
C248   C     0.34272   0.60314   0.69620   0.00000  Uiso   1.00
C249   C     0.41846   0.62499   0.72512   0.00000  Uiso   1.00
C250   C     0.45904   0.70343   0.75301   0.00000  Uiso   1.00
C251   C     0.22877   0.52043   0.69758   0.00000  Uiso   1.00
C252   C     0.20873   0.47276   0.72766   0.00000  Uiso   1.00
C253   C     0.15339   0.48158   0.75673   0.00000  Uiso   1.00
H254   H     0.19881   0.66346   0.66021   0.00000  Uiso   1.00
H255   H     0.15098   0.60129   0.53333   0.00000  Uiso   1.00
H256   H     0.32284   0.77830   0.72225   0.00000  Uiso   1.00
H257   H     0.11314   0.62609   0.72479   0.00000  Uiso   1.00
H258   H     0.11298   0.50832   0.39310   0.00000  Uiso   1.00
H259   H     0.47534   0.88156   0.79148   0.00000  Uiso   1.00
H260   H     0.03315   0.56060   0.79684   0.00000  Uiso   1.00
H261   H     0.31439   0.47810   0.66367   0.00000  Uiso   1.00
H262   H     0.27290   0.40575   0.53697   0.00000  Uiso   1.00
H263   H     0.44476   0.58277   0.72590   0.00000  Uiso   1.00
H264   H     0.23506   0.43056   0.72844   0.00000  Uiso   1.00
H265   H     0.21194   0.34962   0.39607   0.00000  Uiso   1.00
H266   H     0.57430   0.72286   0.79444   0.00000  Uiso   1.00
H267   H     0.13210   0.40190   0.79981   0.00000  Uiso   1.00
O268   O     0.13310   0.38474   0.31118   0.00000  Uiso   1.00
O269   O     0.60850   0.87441   0.83384   0.00000  Uiso   1.00
O270   O     0.02835   0.45332   0.84088   0.00000  Uiso   1.00
N271   N     0.14195   0.48089   0.41119   0.00000  Uiso   1.00
N272   N     0.48074   0.82985   0.78363   0.00000  Uiso   1.00
N273   N     0.06734   0.52979   0.78867   0.00000  Uiso   1.00
N274   N     0.19520   0.39549   0.41278   0.00000  Uiso   1.00
N275   N     0.53399   0.74445   0.78523   0.00000  Uiso   1.00
N276   N     0.12059   0.44439   0.79026   0.00000  Uiso   1.00
C277   C     0.01483   0.21943   0.75001   0.00000  Uiso   1.00
C278   C     0.08441   0.25504   0.80892   0.00000  Uiso   1.00
C279   C     0.09032   0.30201   0.87277   0.00000  Uiso   1.00
C280   C     0.15875   0.32879   0.91969   0.00000  Uiso   1.00
C281   C     0.25761   0.38703   0.01366   0.00000  Uiso   1.00
C282   C     0.99952   0.13243   0.72055   0.00000  Uiso   1.00
C283   C     0.93405   0.07632   0.71009   0.00000  Uiso   1.00
C284   C     0.93102   0.99988   0.68260   0.00000  Uiso   1.00
C285   C     0.89806   0.86776   0.63934   0.00000  Uiso   1.00
C286   C     0.03665   0.24615   0.69984   0.00000  Uiso   1.00
C287   C     0.00238   0.28564   0.67196   0.00000  Uiso   1.00
C288   C     0.03061   0.30493   0.62702   0.00000  Uiso   1.00
C289   C     0.05529   0.34937   0.55161   0.00000  Uiso   1.00
C290   C     0.12587   0.18345   0.71977   0.00000  Uiso   1.00
C291   C     0.14472   0.23549   0.79249   0.00000  Uiso   1.00
C292   C     0.21316   0.26221   0.83932   0.00000  Uiso   1.00
C293   C     0.21917   0.30922   0.90324   0.00000  Uiso   1.00
C294   C     0.05983   0.11288   0.70412   0.00000  Uiso   1.00
C295   C     0.05689   0.03651   0.67664   0.00000  Uiso   1.00
C296   C     0.99144   0.98030   0.66615   0.00000  Uiso   1.00
C297   C     0.09696   0.22661   0.68342   0.00000  Uiso   1.00
C298   C     0.12523   0.24583   0.63851   0.00000  Uiso   1.00
C299   C     0.09102   0.28535   0.61057   0.00000  Uiso   1.00
H300   H     0.96788   0.23463   0.76279   0.00000  Uiso   1.00
H301   H     0.04363   0.31712   0.88546   0.00000  Uiso   1.00
H302   H     0.88739   0.09146   0.72280   0.00000  Uiso   1.00
H303   H     0.95572   0.30075   0.68468   0.00000  Uiso   1.00
H304   H     0.15421   0.39992   0.01423   0.00000  Uiso   1.00
H305   H     0.82475   0.92410   0.67123   0.00000  Uiso   1.00
H306   H     0.96883   0.36543   0.59083   0.00000  Uiso   1.00
H307   H     0.17282   0.16823   0.70698   0.00000  Uiso   1.00
H308   H     0.25982   0.24707   0.82660   0.00000  Uiso   1.00
H309   H     0.10357   0.02141   0.66393   0.00000  Uiso   1.00
H310   H     0.17190   0.23070   0.62581   0.00000  Uiso   1.00
H311   H     0.32967   0.34307   0.96645   0.00000  Uiso   1.00
H312   H     0.00021   0.86725   0.62344   0.00000  Uiso   1.00
H313   H     0.14430   0.30858   0.54306   0.00000  Uiso   1.00
O314   O     0.29547   0.42454   0.07004   0.00000  Uiso   1.00
O315   O     0.86322   0.80028   0.62002   0.00000  Uiso   1.00
O316   O     0.05226   0.37930   0.51455   0.00000  Uiso   1.00
N317   N     0.18357   0.37574   0.98657   0.00000  Uiso   1.00
N318   N     0.87554   0.93087   0.66589   0.00000  Uiso   1.00
N319   N     0.01024   0.34346   0.59072   0.00000  Uiso   1.00
N320   N     0.27798   0.34514   0.96086   0.00000  Uiso   1.00
N321   N     0.96996   0.90028   0.64018   0.00000  Uiso   1.00
N322   N     0.10466   0.31287   0.56501   0.00000  Uiso   1.00
C323   C     0.88357   0.93398   0.22849   0.00000  Uiso   1.00
C324   C     0.94180   0.01296   0.27429   0.00000  Uiso   1.00
C325   C     0.00239   0.02740   0.32524   0.00000  Uiso   1.00
C326   C     0.04924   0.10364   0.36146   0.00000  Uiso   1.00
C327   C     0.14170   0.21721   0.43474   0.00000  Uiso   1.00
C328   C     0.88310   0.92228   0.15926   0.00000  Uiso   1.00
C329   C     0.89432   0.86047   0.11349   0.00000  Uiso   1.00
C330   C     0.89175   0.86037   0.05287   0.00000  Uiso   1.00
C331   C     0.89303   0.83313   0.94754   0.00000  Uiso   1.00
C332   C     0.80900   0.94187   0.23391   0.00000  Uiso   1.00
C333   C     0.75790   0.89652   0.25088   0.00000  Uiso   1.00
C334   C     0.69293   0.91290   0.25310   0.00000  Uiso   1.00
C335   C     0.57916   0.91607   0.26366   0.00000  Uiso   1.00
C336   C     0.85903   0.04368   0.20223   0.00000  Uiso   1.00
C337   C     0.92847   0.07255   0.26003   0.00000  Uiso   1.00
C338   C     0.97524   0.14878   0.29619   0.00000  Uiso   1.00
C339   C     0.03589   0.16333   0.34718   0.00000  Uiso   1.00
C340   C     0.86978   0.98186   0.14500   0.00000  Uiso   1.00
C341   C     0.86718   0.98185   0.08443   0.00000  Uiso   1.00
C342   C     0.87840   0.92006   0.03858   0.00000  Uiso   1.00
C343   C     0.79567   0.00146   0.21964   0.00000  Uiso   1.00
C344   C     0.73076   0.01790   0.22183   0.00000  Uiso   1.00
C345   C     0.67958   0.97259   0.23881   0.00000  Uiso   1.00
H346   H     0.89395   0.88758   0.23959   0.00000  Uiso   1.00
H347   H     0.01269   0.98127   0.33626   0.00000  Uiso   1.00
H348   H     0.90463   0.81436   0.12454   0.00000  Uiso   1.00
H349   H     0.76824   0.85041   0.26191   0.00000  Uiso   1.00
H350   H     0.13847   0.11141   0.43713   0.00000  Uiso   1.00
H351   H     0.91060   0.75947   0.99070   0.00000  Uiso   1.00
H352   H     0.62299   0.83548   0.28038   0.00000  Uiso   1.00
H353   H     0.84866   0.09007   0.19112   0.00000  Uiso   1.00
H354   H     0.96492   0.19488   0.28514   0.00000  Uiso   1.00
H355   H     0.85686   0.02797   0.07341   0.00000  Uiso   1.00
H356   H     0.72047   0.06402   0.21079   0.00000  Uiso   1.00
H357   H     0.09970   0.28479   0.39564   0.00000  Uiso   1.00
H358   H     0.87183   0.93284   0.94920   0.00000  Uiso   1.00
H359   H     0.58422   0.00886   0.23888   0.00000  Uiso   1.00
O360   O     0.19639   0.26339   0.47909   0.00000  Uiso   1.00
O361   O     0.89743   0.80164   0.89338   0.00000  Uiso   1.00
O362   O     0.52009   0.90137   0.27344   0.00000  Uiso   1.00
N363   N     0.11338   0.13784   0.41447   0.00000  Uiso   1.00
N364   N     0.90035   0.80880   0.99709   0.00000  Uiso   1.00
N365   N     0.63145   0.87985   0.26790   0.00000  Uiso   1.00
N366   N     0.09252   0.23113   0.39214   0.00000  Uiso   1.00
N367   N     0.87949   0.90209   0.97476   0.00000  Uiso   1.00
N368   N     0.61058   0.97314   0.24557   0.00000  Uiso   1.00
C369   C     0.32290   0.77297   0.88860   0.00000  Uiso   1.00
C370   C     0.36329   0.83879   0.95685   0.00000  Uiso   1.00
C371   C     0.42739   0.90011   0.97369   0.00000  Uiso   1.00
C372   C     0.45573   0.95441   0.03874   0.00000  Uiso   1.00
C373   C     0.52368   0.05768   0.13764   0.00000  Uiso   1.00
C374   C     0.24354   0.77300   0.87172   0.00000  Uiso   1.00
C375   C     0.20696   0.77899   0.81698   0.00000  Uiso   1.00
C376   C     0.13449   0.77789   0.81038   0.00000  Uiso   1.00
C377   C     0.01651   0.77895   0.77709   0.00000  Uiso   1.00
C378   C     0.31825   0.69848   0.89588   0.00000  Uiso   1.00
C379   C     0.34447   0.64181   0.86144   0.00000  Uiso   1.00
C380   C     0.33488   0.57796   0.87516   0.00000  Uiso   1.00
C381   C     0.33290   0.46333   0.87938   0.00000  Uiso   1.00
C382   C     0.25924   0.76035   0.97419   0.00000  Uiso   1.00
C383   C     0.32871   0.83193   0.00334   0.00000  Uiso   1.00
C384   C     0.35696   0.88615   0.06839   0.00000  Uiso   1.00
C385   C     0.42109   0.94754   0.08532   0.00000  Uiso   1.00
C386   C     0.20896   0.76614   0.91821   0.00000  Uiso   1.00
C387   C     0.13652   0.76502   0.91169   0.00000  Uiso   1.00
C388   C     0.09985   0.77102   0.85695   0.00000  Uiso   1.00
C389   C     0.28367   0.69162   0.94237   0.00000  Uiso   1.00
C390   C     0.27404   0.62785   0.95615   0.00000  Uiso   1.00
C391   C     0.30024   0.57109   0.92174   0.00000  Uiso   1.00
H392   H     0.34982   0.77831   0.85240   0.00000  Uiso   1.00
H393   H     0.45413   0.90540   0.93769   0.00000  Uiso   1.00
H394   H     0.23373   0.78429   0.78101   0.00000  Uiso   1.00
H395   H     0.37122   0.64714   0.82547   0.00000  Uiso   1.00
H396   H     0.55452   0.04330   0.05275   0.00000  Uiso   1.00
H397   H     0.08978   0.78790   0.72237   0.00000  Uiso   1.00
H398   H     0.37971   0.49868   0.81611   0.00000  Uiso   1.00
H399   H     0.23232   0.75501   0.01039   0.00000  Uiso   1.00
H400   H     0.33018   0.88083   0.10436   0.00000  Uiso   1.00
H401   H     0.10978   0.75971   0.94767   0.00000  Uiso   1.00
H402   H     0.24728   0.62256   0.99213   0.00000  Uiso   1.00
H403   H     0.45391   0.02336   0.18802   0.00000  Uiso   1.00
H404   H     0.98918   0.76795   0.85764   0.00000  Uiso   1.00
H405   H     0.27911   0.47874   0.95138   0.00000  Uiso   1.00
O406   O     0.57070   0.11653   0.17934   0.00000  Uiso   1.00
O407   O     0.96099   0.78144   0.74589   0.00000  Uiso   1.00
O408   O     0.34137   0.40200   0.86887   0.00000  Uiso   1.00
N409   N     0.51742   0.02133   0.07169   0.00000  Uiso   1.00
N410   N     0.08292   0.78256   0.76281   0.00000  Uiso   1.00
N411   N     0.35396   0.51216   0.85044   0.00000  Uiso   1.00
N412   N     0.46328   0.01060   0.14448   0.00000  Uiso   1.00
N413   N     0.02879   0.77183   0.83560   0.00000  Uiso   1.00
N414   N     0.29983   0.50142   0.92322   0.00000  Uiso   1.00
C415   C     0.48228   0.36180   0.79103   0.00000  Uiso   1.00
C416   C     0.54422   0.43878   0.81502   0.00000  Uiso   1.00
C417   C     0.54203   0.51112   0.85220   0.00000  Uiso   1.00
C418   C     0.60434   0.57450   0.86919   0.00000  Uiso   1.00
C419   C     0.69103   0.69536   0.90937   0.00000  Uiso   1.00
C420   C     0.46461   0.32298   0.71678   0.00000  Uiso   1.00
C421   C     0.39549   0.29795   0.67137   0.00000  Uiso   1.00
C422   C     0.39078   0.26384   0.60567   0.00000  Uiso   1.00
C423   C     0.35387   0.20488   0.49334   0.00000  Uiso   1.00
C424   C     0.51652   0.31261   0.81666   0.00000  Uiso   1.00
C425   C     0.49103   0.27885   0.85521   0.00000  Uiso   1.00
C426   C     0.53002   0.23599   0.87359   0.00000  Uiso   1.00
C427   C     0.57370   0.16092   0.91634   0.00000  Uiso   1.00
C428   C     0.59685   0.34571   0.75509   0.00000  Uiso   1.00
C429   C     0.60645   0.43003   0.79549   0.00000  Uiso   1.00
C430   C     0.66878   0.49332   0.81244   0.00000  Uiso   1.00
C431   C     0.66668   0.56575   0.84964   0.00000  Uiso   1.00
C432   C     0.52684   0.31424   0.69726   0.00000  Uiso   1.00
C433   C     0.52224   0.28015   0.63161   0.00000  Uiso   1.00
C434   C     0.45312   0.25509   0.58611   0.00000  Uiso   1.00
C435   C     0.57875   0.30387   0.79714   0.00000  Uiso   1.00
C436   C     0.61778   0.26105   0.81546   0.00000  Uiso   1.00
C437   C     0.59236   0.22723   0.85403   0.00000  Uiso   1.00
H438   H     0.43384   0.36860   0.80622   0.00000  Uiso   1.00
H439   H     0.49386   0.51786   0.86729   0.00000  Uiso   1.00
H440   H     0.34734   0.30472   0.68649   0.00000  Uiso   1.00
H441   H     0.44287   0.28562   0.87031   0.00000  Uiso   1.00
H442   H     0.58784   0.67950   0.92636   0.00000  Uiso   1.00
H443   H     0.27889   0.23005   0.54514   0.00000  Uiso   1.00
H444   H     0.48033   0.18978   0.93276   0.00000  Uiso   1.00
H445   H     0.64529   0.33890   0.73989   0.00000  Uiso   1.00
H446   H     0.71692   0.48654   0.79732   0.00000  Uiso   1.00
H447   H     0.57040   0.27339   0.61652   0.00000  Uiso   1.00
H448   H     0.66593   0.25430   0.80034   0.00000  Uiso   1.00
H449   H     0.76888   0.65407   0.86957   0.00000  Uiso   1.00
H450   H     0.45993   0.20462   0.48835   0.00000  Uiso   1.00
H451   H     0.66138   0.16435   0.87597   0.00000  Uiso   1.00
O452   O     0.72166   0.76444   0.93692   0.00000  Uiso   1.00
O453   O     0.31632   0.17477   0.43677   0.00000  Uiso   1.00
O454   O     0.58061   0.12194   0.94533   0.00000  Uiso   1.00
N455   N     0.62062   0.65325   0.90513   0.00000  Uiso   1.00
N456   N     0.33178   0.23306   0.54870   0.00000  Uiso   1.00
N457   N     0.52010   0.19539   0.91108   0.00000  Uiso   1.00
N458   N     0.71804   0.63957   0.87457   0.00000  Uiso   1.00
N459   N     0.42920   0.21938   0.51815   0.00000  Uiso   1.00
N460   N     0.61752   0.18171   0.88052   0.00000  Uiso   1.00
C461   C     0.39157   0.78537   0.33672   0.00000  Uiso   1.00
C462   C     0.45873   0.81189   0.39596   0.00000  Uiso   1.00
C463   C     0.53168   0.84832   0.40192   0.00000  Uiso   1.00
C464   C     0.58513   0.86799   0.46001   0.00000  Uiso   1.00
C465   C     0.69229   0.91161   0.54434   0.00000  Uiso   1.00
C466   C     0.35393   0.69918   0.31518   0.00000  Uiso   1.00
C467   C     0.33876   0.64085   0.25322   0.00000  Uiso   1.00
C468   C     0.30397   0.56564   0.24331   0.00000  Uiso   1.00
C469   C     0.24837   0.43428   0.20222   0.00000  Uiso   1.00
C470   C     0.33821   0.82457   0.36244   0.00000  Uiso   1.00
C471   C     0.30980   0.87164   0.34021   0.00000  Uiso   1.00
C472   C     0.26177   0.90198   0.37008   0.00000  Uiso   1.00
C473   C     0.18176   0.96530   0.40236   0.00000  Uiso   1.00
C474   C     0.35676   0.75552   0.42929   0.00000  Uiso   1.00
C475   C     0.43982   0.79568   0.44624   0.00000  Uiso   1.00
C476   C     0.49317   0.81530   0.50434   0.00000  Uiso   1.00
C477   C     0.56619   0.85176   0.51039   0.00000  Uiso   1.00
C478   C     0.33501   0.68297   0.36546   0.00000  Uiso   1.00
C479   C     0.30024   0.60783   0.35564   0.00000  Uiso   1.00
C480   C     0.28502   0.54940   0.29368   0.00000  Uiso   1.00
C481   C     0.31930   0.80836   0.41273   0.00000  Uiso   1.00
C482   C     0.27129   0.83862   0.44263   0.00000  Uiso   1.00
C483   C     0.24282   0.88574   0.42045   0.00000  Uiso   1.00
H484   H     0.40629   0.79798   0.29757   0.00000  Uiso   1.00
H485   H     0.54630   0.86085   0.36300   0.00000  Uiso   1.00
H486   H     0.35339   0.65341   0.21432   0.00000  Uiso   1.00
H487   H     0.32445   0.88417   0.30130   0.00000  Uiso   1.00
H488   H     0.69318   0.92338   0.45770   0.00000  Uiso   1.00
H489   H     0.28640   0.48599   0.14420   0.00000  Uiso   1.00
H490   H     0.22537   0.97258   0.32761   0.00000  Uiso   1.00
H491   H     0.34203   0.74290   0.46843   0.00000  Uiso   1.00
H492   H     0.47851   0.80275   0.54324   0.00000  Uiso   1.00
H493   H     0.28561   0.59531   0.39456   0.00000  Uiso   1.00
H494   H     0.25667   0.82607   0.48154   0.00000  Uiso   1.00
H495   H     0.63817   0.87622   0.60399   0.00000  Uiso   1.00
H496   H     0.23139   0.43882   0.29049   0.00000  Uiso   1.00
H497   H     0.17036   0.92542   0.47390   0.00000  Uiso   1.00
O498   O     0.75662   0.94014   0.57696   0.00000  Uiso   1.00
O499   O     0.22293   0.36630   0.16566   0.00000  Uiso   1.00
O500   O     0.14286   0.00471   0.40629   0.00000  Uiso   1.00
N501   N     0.66150   0.90408   0.48187   0.00000  Uiso   1.00
N502   N     0.28120   0.49514   0.18877   0.00000  Uiso   1.00
N503   N     0.22413   0.95005   0.36023   0.00000  Uiso   1.00
N504   N     0.63190   0.87870   0.56059   0.00000  Uiso   1.00
N505   N     0.25160   0.46977   0.26748   0.00000  Uiso   1.00
N506   N     0.19452   0.92468   0.43894   0.00000  Uiso   1.00
C507   C     0.89759   0.38274   0.27469   0.00000  Uiso   1.00
C508   C     0.92260   0.44679   0.34414   0.00000  Uiso   1.00
C509   C     0.95265   0.44103   0.40099   0.00000  Uiso   1.00
C510   C     0.97200   0.50612   0.45975   0.00000  Uiso   1.00
C511   C     0.01238   0.59516   0.56732   0.00000  Uiso   1.00
C512   C     0.81662   0.37162   0.24526   0.00000  Uiso   1.00
C513   C     0.75757   0.30266   0.21896   0.00000  Uiso   1.00
C514   C     0.68771   0.30447   0.19447   0.00000  Uiso   1.00
C515   C     0.56356   0.27680   0.14848   0.00000  Uiso   1.00
C516   C     0.94047   0.41605   0.23690   0.00000  Uiso   1.00
C517   C     0.98554   0.38443   0.20357   0.00000  Uiso   1.00
C518   C     0.01993   0.42364   0.17203   0.00000  Uiso   1.00
C519   C     0.08808   0.46495   0.11308   0.00000  Uiso   1.00
C520   C     0.87851   0.50858   0.27794   0.00000  Uiso   1.00
C521   C     0.91224   0.51514   0.34590   0.00000  Uiso   1.00
C522   C     0.93155   0.58026   0.40459   0.00000  Uiso   1.00
C523   C     0.96163   0.57460   0.46152   0.00000  Uiso   1.00
C524   C     0.80626   0.43997   0.24702   0.00000  Uiso   1.00
C525   C     0.73647   0.44189   0.22256   0.00000  Uiso   1.00
C526   C     0.67733   0.37295   0.19624   0.00000  Uiso   1.00
C527   C     0.93011   0.48440   0.23867   0.00000  Uiso   1.00
C528   C     0.96444   0.52367   0.20718   0.00000  Uiso   1.00
C529   C     0.00955   0.49212   0.17380   0.00000  Uiso   1.00
H530   H     0.90565   0.32952   0.27331   0.00000  Uiso   1.00
H531   H     0.96065   0.38812   0.39960   0.00000  Uiso   1.00
H532   H     0.76560   0.24977   0.21759   0.00000  Uiso   1.00
H533   H     0.99354   0.33153   0.20221   0.00000  Uiso   1.00
H534   H     0.01704   0.48321   0.54040   0.00000  Uiso   1.00
H535   H     0.60578   0.19150   0.15660   0.00000  Uiso   1.00
H536   H     0.08642   0.36391   0.12417   0.00000  Uiso   1.00
H537   H     0.87045   0.56180   0.27932   0.00000  Uiso   1.00
H538   H     0.92353   0.63315   0.40594   0.00000  Uiso   1.00
H539   H     0.72847   0.49479   0.22393   0.00000  Uiso   1.00
H540   H     0.95641   0.57656   0.20855   0.00000  Uiso   1.00
H541   H     0.98691   0.68209   0.54555   0.00000  Uiso   1.00
H542   H     0.57564   0.39036   0.16175   0.00000  Uiso   1.00
H543   H     0.05628   0.56278   0.12932   0.00000  Uiso   1.00
O544   O     0.03750   0.62538   0.62616   0.00000  Uiso   1.00
O545   O     0.49794   0.24265   0.12263   0.00000  Uiso   1.00
O546   O     0.12853   0.46886   0.08008   0.00000  Uiso   1.00
N547   N     0.00268   0.52023   0.52423   0.00000  Uiso   1.00
N548   N     0.61817   0.24749   0.16542   0.00000  Uiso   1.00
N549   N     0.06751   0.40868   0.13507   0.00000  Uiso   1.00
N550   N     0.98646   0.62725   0.52700   0.00000  Uiso   1.00
N551   N     0.60195   0.35451   0.16819   0.00000  Uiso   1.00
N552   N     0.05130   0.51569   0.13785   0.00000  Uiso   1.00
