data_job_03152
_audit_creation_date              2018-12-19
_audit_creation_method            'Materials Studio'
_symmetry_space_group_name_H-M    'P1'
_symmetry_Int_Tables_number       1
_symmetry_cell_setting            triclinic
loop_
_symmetry_equiv_pos_as_xyz
  x,y,z
_cell_length_a                    24.5233
_cell_length_b                    9.6000
_cell_length_c                    21.1359
_cell_angle_alpha                 90.0000
_cell_angle_beta                  152.9823
_cell_angle_gamma                 90.0000
loop_
_atom_site_label
_atom_site_type_symbol
_atom_site_fract_x
_atom_site_fract_y
_atom_site_fract_z
_atom_site_U_iso_or_equiv
_atom_site_adp_type
_atom_site_occupancy
C1     C     0.79398   0.63263   0.65057   0.00000  Uiso   1.00
C2     C     0.76484   0.60334   0.55123   0.00000  Uiso   1.00
C3     C     0.67249   0.51903   0.43397   0.00000  Uiso   1.00
C4     C     0.66069   0.50553   0.35666   0.00000  Uiso   1.00
C5     C     0.60365   0.44958   0.19656   0.00000  Uiso   1.00
C6     C     0.92476   0.59029   0.79493   0.00000  Uiso   1.00
C7     C     0.96686   0.49501   0.88257   0.00000  Uiso   1.00
C8     C     0.08969   0.47055   0.01043   0.00000  Uiso   1.00
C9     C     0.28093   0.39441   0.22871   0.00000  Uiso   1.00
C10    C     0.79052   0.79059   0.65439   0.00000  Uiso   1.00
C11    C     0.71979   0.86374   0.62392   0.00000  Uiso   1.00
C12    C     0.72962   0.00791   0.63349   0.00000  Uiso   1.00
C13    C     0.71244   0.24277   0.63357   0.00000  Uiso   1.00
C14    C     0.93724   0.75860   0.72181   0.00000  Uiso   1.00
C15    C     0.84266   0.67176   0.58992   0.00000  Uiso   1.00
C16    C     0.83100   0.65839   0.51278   0.00000  Uiso   1.00
C17    C     0.73864   0.57407   0.39542   0.00000  Uiso   1.00
C18    C     0.00257   0.65870   0.83362   0.00000  Uiso   1.00
C19    C     0.12537   0.63438   0.96138   0.00000  Uiso   1.00
C20    C     0.16765   0.53909   0.04919   0.00000  Uiso   1.00
C21    C     0.86834   0.85901   0.69308   0.00000  Uiso   1.00
C22    C     0.87829   0.00310   0.70272   0.00000  Uiso   1.00
C23    C     0.80758   0.07645   0.67225   0.00000  Uiso   1.00
H24    H     0.73340   0.57936   0.62046   0.00000  Uiso   1.00
H25    H     0.61230   0.46608   0.40406   0.00000  Uiso   1.00
H26    H     0.90663   0.44209   0.85260   0.00000  Uiso   1.00
H27    H     0.65958   0.81076   0.59398   0.00000  Uiso   1.00
H28    H     0.51237   0.37063   0.18124   0.00000  Uiso   1.00
H29    H     0.13298   0.32007   0.12703   0.00000  Uiso   1.00
H30    H     0.61205   0.09747   0.58167   0.00000  Uiso   1.00
H31    H     0.99783   0.81187   0.75194   0.00000  Uiso   1.00
H32    H     0.89123   0.71135   0.54275   0.00000  Uiso   1.00
H33    H     0.18556   0.68735   0.99129   0.00000  Uiso   1.00
H34    H     0.93852   0.05601   0.73267   0.00000  Uiso   1.00
H35    H     0.73877   0.56968   0.29381   0.00000  Uiso   1.00
H36    H     0.35938   0.51913   0.23960   0.00000  Uiso   1.00
H37    H     0.83845   0.29653   0.69424   0.00000  Uiso   1.00
O38    O     0.55070   0.39980   0.09757   0.00000  Uiso   1.00
O39    O     0.36491   0.33349   0.33841   0.00000  Uiso   1.00
O40    O     0.68146   0.35342   0.62291   0.00000  Uiso   1.00
N41    N     0.58027   0.43129   0.23643   0.00000  Uiso   1.00
N42    N     0.16050   0.38401   0.12067   0.00000  Uiso   1.00
N43    N     0.67350   0.11081   0.61085   0.00000  Uiso   1.00
N44    N     0.70209   0.53840   0.29699   0.00000  Uiso   1.00
N45    N     0.28232   0.49112   0.18124   0.00000  Uiso   1.00
N46    N     0.79532   0.21792   0.67142   0.00000  Uiso   1.00
C47    C     0.20602   0.13263   0.84943   0.00000  Uiso   1.00
C48    C     0.23516   0.10334   0.94877   0.00000  Uiso   1.00
C49    C     0.32751   0.01903   0.06603   0.00000  Uiso   1.00
C50    C     0.33931   0.00553   0.14334   0.00000  Uiso   1.00
C51    C     0.39635   0.94958   0.30344   0.00000  Uiso   1.00
C52    C     0.07524   0.09029   0.70507   0.00000  Uiso   1.00
C53    C     0.03314   0.99501   0.61743   0.00000  Uiso   1.00
C54    C     0.91031   0.97055   0.48957   0.00000  Uiso   1.00
C55    C     0.71907   0.89441   0.27129   0.00000  Uiso   1.00
C56    C     0.20948   0.29059   0.84561   0.00000  Uiso   1.00
C57    C     0.28021   0.36374   0.87608   0.00000  Uiso   1.00
C58    C     0.27038   0.50791   0.86651   0.00000  Uiso   1.00
C59    C     0.28756   0.74277   0.86643   0.00000  Uiso   1.00
C60    C     0.06276   0.25860   0.77819   0.00000  Uiso   1.00
C61    C     0.15734   0.17176   0.91008   0.00000  Uiso   1.00
C62    C     0.16900   0.15839   0.98722   0.00000  Uiso   1.00
C63    C     0.26136   0.07407   0.10458   0.00000  Uiso   1.00
C64    C     0.99743   0.15870   0.66638   0.00000  Uiso   1.00
C65    C     0.87463   0.13438   0.53862   0.00000  Uiso   1.00
C66    C     0.83235   0.03909   0.45081   0.00000  Uiso   1.00
C67    C     0.13166   0.35901   0.80692   0.00000  Uiso   1.00
C68    C     0.12171   0.50310   0.79728   0.00000  Uiso   1.00
C69    C     0.19242   0.57645   0.82775   0.00000  Uiso   1.00
H70    H     0.26660   0.07936   0.87954   0.00000  Uiso   1.00
H71    H     0.38770   0.96608   0.09594   0.00000  Uiso   1.00
H72    H     0.09337   0.94209   0.64740   0.00000  Uiso   1.00
H73    H     0.34042   0.31076   0.90602   0.00000  Uiso   1.00
H74    H     0.48763   0.87063   0.31876   0.00000  Uiso   1.00
H75    H     0.86702   0.82007   0.37297   0.00000  Uiso   1.00
H76    H     0.38795   0.59747   0.91833   0.00000  Uiso   1.00
H77    H     0.00217   0.31187   0.74806   0.00000  Uiso   1.00
H78    H     0.10877   0.21135   0.95725   0.00000  Uiso   1.00
H79    H     0.81444   0.18735   0.50871   0.00000  Uiso   1.00
H80    H     0.06148   0.55601   0.76733   0.00000  Uiso   1.00
H81    H     0.26123   0.06968   0.20619   0.00000  Uiso   1.00
H82    H     0.64062   0.01913   0.26040   0.00000  Uiso   1.00
H83    H     0.16155   0.79653   0.80576   0.00000  Uiso   1.00
O84    O     0.44930   0.89980   0.40243   0.00000  Uiso   1.00
O85    O     0.63509   0.83349   0.16159   0.00000  Uiso   1.00
O86    O     0.31854   0.85342   0.87709   0.00000  Uiso   1.00
N87    N     0.41973   0.93129   0.26357   0.00000  Uiso   1.00
N88    N     0.83950   0.88401   0.37933   0.00000  Uiso   1.00
N89    N     0.32650   0.61081   0.88915   0.00000  Uiso   1.00
N90    N     0.29791   0.03840   0.20301   0.00000  Uiso   1.00
N91    N     0.71768   0.99112   0.31876   0.00000  Uiso   1.00
N92    N     0.20468   0.71792   0.82858   0.00000  Uiso   1.00
C93    C     0.20602   0.36737   0.34943   0.00000  Uiso   1.00
C94    C     0.23516   0.39666   0.44877   0.00000  Uiso   1.00
C95    C     0.32751   0.48097   0.56603   0.00000  Uiso   1.00
C96    C     0.33931   0.49447   0.64334   0.00000  Uiso   1.00
C97    C     0.39635   0.55042   0.80344   0.00000  Uiso   1.00
C98    C     0.07524   0.40971   0.20507   0.00000  Uiso   1.00
C99    C     0.03314   0.50499   0.11743   0.00000  Uiso   1.00
C100   C     0.91031   0.52945   0.98957   0.00000  Uiso   1.00
C101   C     0.71907   0.60559   0.77129   0.00000  Uiso   1.00
C102   C     0.20948   0.20941   0.34561   0.00000  Uiso   1.00
C103   C     0.28021   0.13626   0.37608   0.00000  Uiso   1.00
C104   C     0.27038   0.99209   0.36651   0.00000  Uiso   1.00
C105   C     0.28756   0.75723   0.36643   0.00000  Uiso   1.00
C106   C     0.06276   0.24140   0.27819   0.00000  Uiso   1.00
C107   C     0.15734   0.32824   0.41008   0.00000  Uiso   1.00
C108   C     0.16900   0.34161   0.48722   0.00000  Uiso   1.00
C109   C     0.26136   0.42593   0.60458   0.00000  Uiso   1.00
C110   C     0.99743   0.34130   0.16638   0.00000  Uiso   1.00
C111   C     0.87463   0.36562   0.03862   0.00000  Uiso   1.00
C112   C     0.83235   0.46091   0.95081   0.00000  Uiso   1.00
C113   C     0.13166   0.14099   0.30692   0.00000  Uiso   1.00
C114   C     0.12171   0.99690   0.29728   0.00000  Uiso   1.00
C115   C     0.19242   0.92355   0.32775   0.00000  Uiso   1.00
H116   H     0.26660   0.42064   0.37954   0.00000  Uiso   1.00
H117   H     0.38770   0.53392   0.59594   0.00000  Uiso   1.00
H118   H     0.09337   0.55791   0.14740   0.00000  Uiso   1.00
H119   H     0.34042   0.18924   0.40602   0.00000  Uiso   1.00
H120   H     0.48763   0.62937   0.81876   0.00000  Uiso   1.00
H121   H     0.86702   0.67993   0.87297   0.00000  Uiso   1.00
H122   H     0.38795   0.90253   0.41833   0.00000  Uiso   1.00
H123   H     0.00217   0.18813   0.24806   0.00000  Uiso   1.00
H124   H     0.10877   0.28865   0.45725   0.00000  Uiso   1.00
H125   H     0.81444   0.31265   0.00871   0.00000  Uiso   1.00
H126   H     0.06148   0.94399   0.26733   0.00000  Uiso   1.00
H127   H     0.26123   0.43032   0.70619   0.00000  Uiso   1.00
H128   H     0.64062   0.48087   0.76040   0.00000  Uiso   1.00
H129   H     0.16155   0.70347   0.30576   0.00000  Uiso   1.00
O130   O     0.44930   0.60020   0.90243   0.00000  Uiso   1.00
O131   O     0.63509   0.66651   0.66159   0.00000  Uiso   1.00
O132   O     0.31854   0.64658   0.37709   0.00000  Uiso   1.00
N133   N     0.41973   0.56871   0.76357   0.00000  Uiso   1.00
N134   N     0.83950   0.61599   0.87933   0.00000  Uiso   1.00
N135   N     0.32650   0.88919   0.38915   0.00000  Uiso   1.00
N136   N     0.29791   0.46160   0.70301   0.00000  Uiso   1.00
N137   N     0.71768   0.50888   0.81876   0.00000  Uiso   1.00
N138   N     0.20468   0.78208   0.32858   0.00000  Uiso   1.00
C139   C     0.79398   0.86737   0.15057   0.00000  Uiso   1.00
C140   C     0.76484   0.89666   0.05123   0.00000  Uiso   1.00
C141   C     0.67249   0.98097   0.93397   0.00000  Uiso   1.00
C142   C     0.66069   0.99447   0.85666   0.00000  Uiso   1.00
C143   C     0.60365   0.05042   0.69656   0.00000  Uiso   1.00
C144   C     0.92476   0.90971   0.29493   0.00000  Uiso   1.00
C145   C     0.96686   0.00499   0.38257   0.00000  Uiso   1.00
C146   C     0.08969   0.02945   0.51043   0.00000  Uiso   1.00
C147   C     0.28093   0.10559   0.72871   0.00000  Uiso   1.00
C148   C     0.79052   0.70941   0.15439   0.00000  Uiso   1.00
C149   C     0.71979   0.63626   0.12392   0.00000  Uiso   1.00
C150   C     0.72962   0.49209   0.13349   0.00000  Uiso   1.00
C151   C     0.71244   0.25723   0.13357   0.00000  Uiso   1.00
C152   C     0.93724   0.74140   0.22181   0.00000  Uiso   1.00
C153   C     0.84266   0.82824   0.08992   0.00000  Uiso   1.00
C154   C     0.83100   0.84161   0.01278   0.00000  Uiso   1.00
C155   C     0.73864   0.92593   0.89542   0.00000  Uiso   1.00
C156   C     0.00257   0.84130   0.33362   0.00000  Uiso   1.00
C157   C     0.12537   0.86562   0.46138   0.00000  Uiso   1.00
C158   C     0.16765   0.96091   0.54919   0.00000  Uiso   1.00
C159   C     0.86834   0.64099   0.19308   0.00000  Uiso   1.00
C160   C     0.87829   0.49690   0.20272   0.00000  Uiso   1.00
C161   C     0.80758   0.42355   0.17225   0.00000  Uiso   1.00
H162   H     0.73340   0.92064   0.12046   0.00000  Uiso   1.00
H163   H     0.61230   0.03392   0.90406   0.00000  Uiso   1.00
H164   H     0.90663   0.05791   0.35260   0.00000  Uiso   1.00
H165   H     0.65958   0.68924   0.09398   0.00000  Uiso   1.00
H166   H     0.51237   0.12937   0.68124   0.00000  Uiso   1.00
H167   H     0.13298   0.17993   0.62703   0.00000  Uiso   1.00
H168   H     0.61205   0.40253   0.08167   0.00000  Uiso   1.00
H169   H     0.99783   0.68813   0.25194   0.00000  Uiso   1.00
H170   H     0.89123   0.78865   0.04275   0.00000  Uiso   1.00
H171   H     0.18556   0.81265   0.49129   0.00000  Uiso   1.00
H172   H     0.93852   0.44399   0.23267   0.00000  Uiso   1.00
H173   H     0.73877   0.93032   0.79381   0.00000  Uiso   1.00
H174   H     0.35938   0.98087   0.73960   0.00000  Uiso   1.00
H175   H     0.83845   0.20347   0.19424   0.00000  Uiso   1.00
O176   O     0.55070   0.10020   0.59757   0.00000  Uiso   1.00
O177   O     0.36491   0.16651   0.83841   0.00000  Uiso   1.00
O178   O     0.68146   0.14658   0.12291   0.00000  Uiso   1.00
N179   N     0.58027   0.06871   0.73643   0.00000  Uiso   1.00
N180   N     0.16050   0.11599   0.62067   0.00000  Uiso   1.00
N181   N     0.67350   0.38919   0.11085   0.00000  Uiso   1.00
N182   N     0.70209   0.96160   0.79699   0.00000  Uiso   1.00
N183   N     0.28232   0.00888   0.68124   0.00000  Uiso   1.00
N184   N     0.79532   0.28208   0.17142   0.00000  Uiso   1.00
