data_job_05709
_audit_creation_date              2018-12-19
_audit_creation_method            'Materials Studio'
_symmetry_space_group_name_H-M    'P1'
_symmetry_Int_Tables_number       1
_symmetry_cell_setting            triclinic
loop_
_symmetry_equiv_pos_as_xyz
  x,y,z
_cell_length_a                    7.2201
_cell_length_b                    10.8615
_cell_length_c                    24.2857
_cell_angle_alpha                 90.0000
_cell_angle_beta                  107.2210
_cell_angle_gamma                 90.0000
loop_
_atom_site_label
_atom_site_type_symbol
_atom_site_fract_x
_atom_site_fract_y
_atom_site_fract_z
_atom_site_U_iso_or_equiv
_atom_site_adp_type
_atom_site_occupancy
C1     C     0.69105   0.69054   0.99168   0.00000  Uiso   1.00
C2     C     0.82531   0.75517   0.04416   0.00000  Uiso   1.00
C3     C     0.76912   0.80975   0.08835   0.00000  Uiso   1.00
C4     C     0.91383   0.86414   0.13252   0.00000  Uiso   1.00
C5     C     0.09279   0.96458   0.21401   0.00000  Uiso   1.00
C6     C     0.72026   0.75521   0.93913   0.00000  Uiso   1.00
C7     C     0.57573   0.80980   0.89502   0.00000  Uiso   1.00
C8     C     0.63203   0.86420   0.85077   0.00000  Uiso   1.00
C9     C     0.64787   0.96463   0.76919   0.00000  Uiso   1.00
C10    C     0.77219   0.56094   0.99162   0.00000  Uiso   1.00
C11    C     0.67132   0.45218   0.99163   0.00000  Uiso   1.00
C12    C     0.77132   0.34301   0.99157   0.00000  Uiso   1.00
C13    C     0.86780   0.14180   0.99148   0.00000  Uiso   1.00
C14    C     0.04799   0.69008   0.99152   0.00000  Uiso   1.00
C15    C     0.01918   0.75492   0.04407   0.00000  Uiso   1.00
C16    C     0.16403   0.80924   0.08818   0.00000  Uiso   1.00
C17    C     0.10806   0.86388   0.13244   0.00000  Uiso   1.00
C18    C     0.91413   0.75496   0.93905   0.00000  Uiso   1.00
C19    C     0.97065   0.80929   0.89485   0.00000  Uiso   1.00
C20    C     0.82625   0.86395   0.85069   0.00000  Uiso   1.00
C21    C     0.96607   0.56068   0.99154   0.00000  Uiso   1.00
C22    C     0.06624   0.45167   0.99147   0.00000  Uiso   1.00
C23    C     0.96555   0.34276   0.99148   0.00000  Uiso   1.00
H24    H     0.54011   0.69074   0.99174   0.00000  Uiso   1.00
H25    H     0.61906   0.80993   0.08840   0.00000  Uiso   1.00
H26    H     0.42571   0.80997   0.89510   0.00000  Uiso   1.00
H27    H     0.52129   0.45241   0.99170   0.00000  Uiso   1.00
H28    H     0.79208   0.94201   0.19552   0.00000  Uiso   1.00
H29    H     0.38438   0.94205   0.78792   0.00000  Uiso   1.00
H30    H     0.58592   0.18805   0.99162   0.00000  Uiso   1.00
H31    H     0.19894   0.68988   0.99145   0.00000  Uiso   1.00
H32    H     0.31405   0.80903   0.08810   0.00000  Uiso   1.00
H33    H     0.12069   0.80907   0.89480   0.00000  Uiso   1.00
H34    H     0.21627   0.45151   0.99140   0.00000  Uiso   1.00
H35    H     0.35615   0.94128   0.19528   0.00000  Uiso   1.00
H36    H     0.94845   0.94132   0.78767   0.00000  Uiso   1.00
H37    H     0.15000   0.18733   0.99138   0.00000  Uiso   1.00
O38    O     0.13794   0.02007   0.25898   0.00000  Uiso   1.00
O39    O     0.60305   0.02010   0.72421   0.00000  Uiso   1.00
O40    O     0.86747   0.03089   0.99147   0.00000  Uiso   1.00
N41    N     0.90904   0.92546   0.18221   0.00000  Uiso   1.00
N42    N     0.52788   0.92552   0.80113   0.00000  Uiso   1.00
N43    N     0.71628   0.22060   0.99156   0.00000  Uiso   1.00
N44    N     0.21257   0.92507   0.18208   0.00000  Uiso   1.00
N45    N     0.83140   0.92513   0.80100   0.00000  Uiso   1.00
N46    N     0.01981   0.22021   0.99143   0.00000  Uiso   1.00
C47    C     0.69105   0.30946   0.49168   0.00000  Uiso   1.00
C48    C     0.82531   0.24483   0.54416   0.00000  Uiso   1.00
C49    C     0.76912   0.19025   0.58835   0.00000  Uiso   1.00
C50    C     0.91383   0.13586   0.63252   0.00000  Uiso   1.00
C51    C     0.09279   0.03542   0.71401   0.00000  Uiso   1.00
C52    C     0.72026   0.24479   0.43913   0.00000  Uiso   1.00
C53    C     0.57573   0.19020   0.39502   0.00000  Uiso   1.00
C54    C     0.63203   0.13580   0.35077   0.00000  Uiso   1.00
C55    C     0.64787   0.03537   0.26919   0.00000  Uiso   1.00
C56    C     0.77219   0.43906   0.49162   0.00000  Uiso   1.00
C57    C     0.67132   0.54782   0.49163   0.00000  Uiso   1.00
C58    C     0.77132   0.65699   0.49157   0.00000  Uiso   1.00
C59    C     0.86780   0.85820   0.49148   0.00000  Uiso   1.00
C60    C     0.04799   0.30992   0.49152   0.00000  Uiso   1.00
C61    C     0.01918   0.24508   0.54407   0.00000  Uiso   1.00
C62    C     0.16403   0.19076   0.58818   0.00000  Uiso   1.00
C63    C     0.10806   0.13612   0.63244   0.00000  Uiso   1.00
C64    C     0.91413   0.24504   0.43905   0.00000  Uiso   1.00
C65    C     0.97065   0.19071   0.39485   0.00000  Uiso   1.00
C66    C     0.82625   0.13605   0.35069   0.00000  Uiso   1.00
C67    C     0.96607   0.43932   0.49154   0.00000  Uiso   1.00
C68    C     0.06624   0.54833   0.49147   0.00000  Uiso   1.00
C69    C     0.96555   0.65724   0.49148   0.00000  Uiso   1.00
H70    H     0.54011   0.30926   0.49174   0.00000  Uiso   1.00
H71    H     0.61906   0.19007   0.58840   0.00000  Uiso   1.00
H72    H     0.42571   0.19003   0.39510   0.00000  Uiso   1.00
H73    H     0.52129   0.54759   0.49170   0.00000  Uiso   1.00
H74    H     0.79208   0.05799   0.69552   0.00000  Uiso   1.00
H75    H     0.38438   0.05795   0.28792   0.00000  Uiso   1.00
H76    H     0.58592   0.81195   0.49162   0.00000  Uiso   1.00
H77    H     0.19894   0.31012   0.49145   0.00000  Uiso   1.00
H78    H     0.31405   0.19097   0.58810   0.00000  Uiso   1.00
H79    H     0.12069   0.19093   0.39480   0.00000  Uiso   1.00
H80    H     0.21627   0.54849   0.49140   0.00000  Uiso   1.00
H81    H     0.35615   0.05872   0.69528   0.00000  Uiso   1.00
H82    H     0.94845   0.05868   0.28767   0.00000  Uiso   1.00
H83    H     0.15000   0.81267   0.49138   0.00000  Uiso   1.00
O84    O     0.13794   0.97993   0.75898   0.00000  Uiso   1.00
O85    O     0.60305   0.97990   0.22421   0.00000  Uiso   1.00
O86    O     0.86747   0.96911   0.49147   0.00000  Uiso   1.00
N87    N     0.90904   0.07454   0.68221   0.00000  Uiso   1.00
N88    N     0.52788   0.07448   0.30113   0.00000  Uiso   1.00
N89    N     0.71628   0.77940   0.49156   0.00000  Uiso   1.00
N90    N     0.21257   0.07493   0.68208   0.00000  Uiso   1.00
N91    N     0.83140   0.07487   0.30100   0.00000  Uiso   1.00
N92    N     0.01981   0.77979   0.49143   0.00000  Uiso   1.00
