data_job_02161
_audit_creation_date              2018-12-19
_audit_creation_method            'Materials Studio'
_symmetry_space_group_name_H-M    'P1'
_symmetry_Int_Tables_number       1
_symmetry_cell_setting            triclinic
loop_
_symmetry_equiv_pos_as_xyz
  x,y,z
_cell_length_a                    31.4866
_cell_length_b                    7.5495
_cell_length_c                    12.6535
_cell_angle_alpha                 90.0000
_cell_angle_beta                  93.1160
_cell_angle_gamma                 90.0000
loop_
_atom_site_label
_atom_site_type_symbol
_atom_site_fract_x
_atom_site_fract_y
_atom_site_fract_z
_atom_site_U_iso_or_equiv
_atom_site_adp_type
_atom_site_occupancy
C1     C     0.37589   0.78202   0.09785   0.00000  Uiso   1.00
C2     C     0.36669   0.64257   0.01247   0.00000  Uiso   1.00
C3     C     0.34594   0.67214   0.91449   0.00000  Uiso   1.00
C4     C     0.34062   0.52722   0.84753   0.00000  Uiso   1.00
C5     C     0.32404   0.33628   0.71040   0.00000  Uiso   1.00
C6     C     0.35595   0.71304   0.19700   0.00000  Uiso   1.00
C7     C     0.32616   0.80187   0.25418   0.00000  Uiso   1.00
C8     C     0.31181   0.71626   0.34257   0.00000  Uiso   1.00
C9     C     0.27857   0.63478   0.49198   0.00000  Uiso   1.00
C10    C     0.42386   0.77803   0.12200   0.00000  Uiso   1.00
C11    C     0.45119   0.92152   0.11614   0.00000  Uiso   1.00
C12    C     0.49401   0.89064   0.14140   0.00000  Uiso   1.00
C13    C     0.56622   0.91008   0.17434   0.00000  Uiso   1.00
C14    C     0.40336   0.47206   0.15317   0.00000  Uiso   1.00
C15    C     0.38161   0.47422   0.04252   0.00000  Uiso   1.00
C16    C     0.37632   0.32921   0.97569   0.00000  Uiso   1.00
C17    C     0.35557   0.35856   0.87762   0.00000  Uiso   1.00
C18    C     0.37086   0.54469   0.22705   0.00000  Uiso   1.00
C19    C     0.35655   0.45893   0.31538   0.00000  Uiso   1.00
C20    C     0.32675   0.54760   0.37267   0.00000  Uiso   1.00
C21    C     0.43878   0.60968   0.15204   0.00000  Uiso   1.00
C22    C     0.48157   0.57858   0.17733   0.00000  Uiso   1.00
C23    C     0.50895   0.72198   0.17150   0.00000  Uiso   1.00
H24    H     0.36428   0.91309   0.07447   0.00000  Uiso   1.00
H25    H     0.33439   0.80245   0.89127   0.00000  Uiso   1.00
H26    H     0.31463   0.93216   0.23091   0.00000  Uiso   1.00
H27    H     0.43963   0.05178   0.09288   0.00000  Uiso   1.00
H28    H     0.30783   0.60552   0.70143   0.00000  Uiso   1.00
H29    H     0.26616   0.87904   0.41760   0.00000  Uiso   1.00
H30    H     0.52975   0.13131   0.12654   0.00000  Uiso   1.00
H31    H     0.41497   0.34098   0.17657   0.00000  Uiso   1.00
H32    H     0.38787   0.19894   0.99896   0.00000  Uiso   1.00
H33    H     0.36810   0.32865   0.33861   0.00000  Uiso   1.00
H34    H     0.49310   0.44828   0.20058   0.00000  Uiso   1.00
H35    H     0.35122   0.11569   0.78884   0.00000  Uiso   1.00
H36    H     0.30956   0.38922   0.50502   0.00000  Uiso   1.00
H37    H     0.57315   0.64147   0.21395   0.00000  Uiso   1.00
O38    O     0.31077   0.27747   0.62647   0.00000  Uiso   1.00
O39    O     0.25612   0.63635   0.56608   0.00000  Uiso   1.00
O40    O     0.60193   0.96730   0.18420   0.00000  Uiso   1.00
N41    N     0.32177   0.50974   0.74636   0.00000  Uiso   1.00
N42    N     0.28281   0.76546   0.41594   0.00000  Uiso   1.00
N43    N     0.52924   0.00131   0.14384   0.00000  Uiso   1.00
N44    N     0.34512   0.24616   0.79340   0.00000  Uiso   1.00
N45    N     0.30616   0.50188   0.46297   0.00000  Uiso   1.00
N46    N     0.55259   0.73774   0.19088   0.00000  Uiso   1.00
C47    C     0.87589   0.28202   0.09785   0.00000  Uiso   1.00
C48    C     0.86669   0.14257   0.01247   0.00000  Uiso   1.00
C49    C     0.84594   0.17214   0.91449   0.00000  Uiso   1.00
C50    C     0.84062   0.02722   0.84753   0.00000  Uiso   1.00
C51    C     0.82404   0.83628   0.71040   0.00000  Uiso   1.00
C52    C     0.85595   0.21304   0.19700   0.00000  Uiso   1.00
C53    C     0.82616   0.30187   0.25418   0.00000  Uiso   1.00
C54    C     0.81181   0.21626   0.34257   0.00000  Uiso   1.00
C55    C     0.77857   0.13478   0.49198   0.00000  Uiso   1.00
C56    C     0.92386   0.27803   0.12200   0.00000  Uiso   1.00
C57    C     0.95119   0.42152   0.11614   0.00000  Uiso   1.00
C58    C     0.99401   0.39064   0.14140   0.00000  Uiso   1.00
C59    C     0.06622   0.41008   0.17434   0.00000  Uiso   1.00
C60    C     0.90336   0.97206   0.15317   0.00000  Uiso   1.00
C61    C     0.88161   0.97422   0.04252   0.00000  Uiso   1.00
C62    C     0.87632   0.82921   0.97569   0.00000  Uiso   1.00
C63    C     0.85557   0.85856   0.87762   0.00000  Uiso   1.00
C64    C     0.87086   0.04469   0.22705   0.00000  Uiso   1.00
C65    C     0.85655   0.95893   0.31538   0.00000  Uiso   1.00
C66    C     0.82675   0.04760   0.37267   0.00000  Uiso   1.00
C67    C     0.93878   0.10968   0.15204   0.00000  Uiso   1.00
C68    C     0.98157   0.07858   0.17733   0.00000  Uiso   1.00
C69    C     0.00895   0.22198   0.17150   0.00000  Uiso   1.00
H70    H     0.86428   0.41309   0.07447   0.00000  Uiso   1.00
H71    H     0.83439   0.30245   0.89127   0.00000  Uiso   1.00
H72    H     0.81463   0.43216   0.23091   0.00000  Uiso   1.00
H73    H     0.93963   0.55178   0.09288   0.00000  Uiso   1.00
H74    H     0.80783   0.10552   0.70143   0.00000  Uiso   1.00
H75    H     0.76616   0.37904   0.41760   0.00000  Uiso   1.00
H76    H     0.02975   0.63131   0.12654   0.00000  Uiso   1.00
H77    H     0.91497   0.84098   0.17657   0.00000  Uiso   1.00
H78    H     0.88787   0.69894   0.99896   0.00000  Uiso   1.00
H79    H     0.86810   0.82865   0.33861   0.00000  Uiso   1.00
H80    H     0.99310   0.94828   0.20058   0.00000  Uiso   1.00
H81    H     0.85122   0.61569   0.78884   0.00000  Uiso   1.00
H82    H     0.80956   0.88922   0.50502   0.00000  Uiso   1.00
H83    H     0.07315   0.14147   0.21395   0.00000  Uiso   1.00
O84    O     0.81077   0.77747   0.62647   0.00000  Uiso   1.00
O85    O     0.75612   0.13635   0.56608   0.00000  Uiso   1.00
O86    O     0.10193   0.46730   0.18420   0.00000  Uiso   1.00
N87    N     0.82177   0.00974   0.74636   0.00000  Uiso   1.00
N88    N     0.78281   0.26546   0.41594   0.00000  Uiso   1.00
N89    N     0.02924   0.50131   0.14384   0.00000  Uiso   1.00
N90    N     0.84512   0.74616   0.79340   0.00000  Uiso   1.00
N91    N     0.80616   0.00188   0.46297   0.00000  Uiso   1.00
N92    N     0.05259   0.23774   0.19088   0.00000  Uiso   1.00
C93    C     0.62411   0.78202   0.90215   0.00000  Uiso   1.00
C94    C     0.63331   0.64257   0.98753   0.00000  Uiso   1.00
C95    C     0.65406   0.67214   0.08551   0.00000  Uiso   1.00
C96    C     0.65938   0.52722   0.15247   0.00000  Uiso   1.00
C97    C     0.67596   0.33628   0.28960   0.00000  Uiso   1.00
C98    C     0.64405   0.71304   0.80300   0.00000  Uiso   1.00
C99    C     0.67384   0.80187   0.74582   0.00000  Uiso   1.00
C100   C     0.68819   0.71626   0.65743   0.00000  Uiso   1.00
C101   C     0.72143   0.63478   0.50802   0.00000  Uiso   1.00
C102   C     0.57614   0.77803   0.87800   0.00000  Uiso   1.00
C103   C     0.54881   0.92152   0.88386   0.00000  Uiso   1.00
C104   C     0.50599   0.89064   0.85860   0.00000  Uiso   1.00
C105   C     0.43378   0.91008   0.82566   0.00000  Uiso   1.00
C106   C     0.59664   0.47206   0.84683   0.00000  Uiso   1.00
C107   C     0.61839   0.47422   0.95748   0.00000  Uiso   1.00
C108   C     0.62368   0.32921   0.02431   0.00000  Uiso   1.00
C109   C     0.64443   0.35856   0.12238   0.00000  Uiso   1.00
C110   C     0.62914   0.54469   0.77295   0.00000  Uiso   1.00
C111   C     0.64345   0.45893   0.68462   0.00000  Uiso   1.00
C112   C     0.67325   0.54760   0.62733   0.00000  Uiso   1.00
C113   C     0.56122   0.60968   0.84796   0.00000  Uiso   1.00
C114   C     0.51843   0.57858   0.82267   0.00000  Uiso   1.00
C115   C     0.49105   0.72198   0.82850   0.00000  Uiso   1.00
H116   H     0.63572   0.91309   0.92553   0.00000  Uiso   1.00
H117   H     0.66561   0.80245   0.10873   0.00000  Uiso   1.00
H118   H     0.68537   0.93216   0.76909   0.00000  Uiso   1.00
H119   H     0.56037   0.05178   0.90712   0.00000  Uiso   1.00
H120   H     0.69217   0.60552   0.29857   0.00000  Uiso   1.00
H121   H     0.73384   0.87904   0.58240   0.00000  Uiso   1.00
H122   H     0.47025   0.13131   0.87346   0.00000  Uiso   1.00
H123   H     0.58503   0.34098   0.82343   0.00000  Uiso   1.00
H124   H     0.61213   0.19894   0.00104   0.00000  Uiso   1.00
H125   H     0.63190   0.32865   0.66139   0.00000  Uiso   1.00
H126   H     0.50690   0.44828   0.79942   0.00000  Uiso   1.00
H127   H     0.64878   0.11569   0.21116   0.00000  Uiso   1.00
H128   H     0.69044   0.38922   0.49498   0.00000  Uiso   1.00
H129   H     0.42685   0.64147   0.78605   0.00000  Uiso   1.00
O130   O     0.68923   0.27747   0.37353   0.00000  Uiso   1.00
O131   O     0.74388   0.63635   0.43392   0.00000  Uiso   1.00
O132   O     0.39807   0.96730   0.81580   0.00000  Uiso   1.00
N133   N     0.67823   0.50974   0.25364   0.00000  Uiso   1.00
N134   N     0.71719   0.76546   0.58406   0.00000  Uiso   1.00
N135   N     0.47076   0.00131   0.85616   0.00000  Uiso   1.00
N136   N     0.65488   0.24616   0.20660   0.00000  Uiso   1.00
N137   N     0.69384   0.50188   0.53703   0.00000  Uiso   1.00
N138   N     0.44741   0.73774   0.80912   0.00000  Uiso   1.00
C139   C     0.12411   0.28202   0.90215   0.00000  Uiso   1.00
C140   C     0.13331   0.14257   0.98753   0.00000  Uiso   1.00
C141   C     0.15406   0.17214   0.08551   0.00000  Uiso   1.00
C142   C     0.15938   0.02722   0.15247   0.00000  Uiso   1.00
C143   C     0.17596   0.83628   0.28960   0.00000  Uiso   1.00
C144   C     0.14405   0.21304   0.80300   0.00000  Uiso   1.00
C145   C     0.17384   0.30187   0.74582   0.00000  Uiso   1.00
C146   C     0.18819   0.21626   0.65743   0.00000  Uiso   1.00
C147   C     0.22143   0.13478   0.50802   0.00000  Uiso   1.00
C148   C     0.07614   0.27803   0.87800   0.00000  Uiso   1.00
C149   C     0.04881   0.42152   0.88386   0.00000  Uiso   1.00
C150   C     0.00599   0.39064   0.85860   0.00000  Uiso   1.00
C151   C     0.93378   0.41008   0.82566   0.00000  Uiso   1.00
C152   C     0.09664   0.97206   0.84683   0.00000  Uiso   1.00
C153   C     0.11839   0.97422   0.95748   0.00000  Uiso   1.00
C154   C     0.12368   0.82921   0.02431   0.00000  Uiso   1.00
C155   C     0.14443   0.85856   0.12238   0.00000  Uiso   1.00
C156   C     0.12914   0.04469   0.77295   0.00000  Uiso   1.00
C157   C     0.14345   0.95893   0.68462   0.00000  Uiso   1.00
C158   C     0.17325   0.04760   0.62733   0.00000  Uiso   1.00
C159   C     0.06122   0.10968   0.84796   0.00000  Uiso   1.00
C160   C     0.01843   0.07858   0.82267   0.00000  Uiso   1.00
C161   C     0.99105   0.22198   0.82850   0.00000  Uiso   1.00
H162   H     0.13572   0.41309   0.92553   0.00000  Uiso   1.00
H163   H     0.16561   0.30245   0.10873   0.00000  Uiso   1.00
H164   H     0.18537   0.43216   0.76909   0.00000  Uiso   1.00
H165   H     0.06037   0.55178   0.90712   0.00000  Uiso   1.00
H166   H     0.19217   0.10552   0.29857   0.00000  Uiso   1.00
H167   H     0.23384   0.37904   0.58240   0.00000  Uiso   1.00
H168   H     0.97025   0.63131   0.87346   0.00000  Uiso   1.00
H169   H     0.08503   0.84098   0.82343   0.00000  Uiso   1.00
H170   H     0.11213   0.69894   0.00104   0.00000  Uiso   1.00
H171   H     0.13190   0.82865   0.66139   0.00000  Uiso   1.00
H172   H     0.00690   0.94828   0.79942   0.00000  Uiso   1.00
H173   H     0.14878   0.61569   0.21116   0.00000  Uiso   1.00
H174   H     0.19044   0.88922   0.49498   0.00000  Uiso   1.00
H175   H     0.92685   0.14147   0.78605   0.00000  Uiso   1.00
O176   O     0.18923   0.77747   0.37353   0.00000  Uiso   1.00
O177   O     0.24388   0.13635   0.43392   0.00000  Uiso   1.00
O178   O     0.89807   0.46730   0.81580   0.00000  Uiso   1.00
N179   N     0.17823   0.00974   0.25364   0.00000  Uiso   1.00
N180   N     0.21719   0.26546   0.58406   0.00000  Uiso   1.00
N181   N     0.97076   0.50131   0.85616   0.00000  Uiso   1.00
N182   N     0.15488   0.74616   0.20660   0.00000  Uiso   1.00
N183   N     0.19384   0.00188   0.53703   0.00000  Uiso   1.00
N184   N     0.94741   0.23774   0.80912   0.00000  Uiso   1.00
