data_job_05867
_audit_creation_date              2018-12-19
_audit_creation_method            'Materials Studio'
_symmetry_space_group_name_H-M    'P1'
_symmetry_Int_Tables_number       1
_symmetry_cell_setting            triclinic
loop_
_symmetry_equiv_pos_as_xyz
  x,y,z
_cell_length_a                    20.4715
_cell_length_b                    20.4715
_cell_length_c                    12.4628
_cell_angle_alpha                 90.0000
_cell_angle_beta                  90.0000
_cell_angle_gamma                 90.0000
loop_
_atom_site_label
_atom_site_type_symbol
_atom_site_fract_x
_atom_site_fract_y
_atom_site_fract_z
_atom_site_U_iso_or_equiv
_atom_site_adp_type
_atom_site_occupancy
C1     C     0.28268   0.60656   0.96729   0.00000  Uiso   1.00
C2     C     0.31815   0.61993   0.07262   0.00000  Uiso   1.00
C3     C     0.35042   0.57380   0.13465   0.00000  Uiso   1.00
C4     C     0.37981   0.59581   0.22832   0.00000  Uiso   1.00
C5     C     0.43528   0.60657   0.38727   0.00000  Uiso   1.00
C6     C     0.21290   0.63076   0.98313   0.00000  Uiso   1.00
C7     C     0.15668   0.59374   0.96990   0.00000  Uiso   1.00
C8     C     0.09747   0.62487   0.98822   0.00000  Uiso   1.00
C9     C     0.98953   0.65245   0.00816   0.00000  Uiso   1.00
C10    C     0.31343   0.65198   0.88451   0.00000  Uiso   1.00
C11    C     0.34173   0.63280   0.78835   0.00000  Uiso   1.00
C12    C     0.36715   0.68181   0.72362   0.00000  Uiso   1.00
C13    C     0.41531   0.74234   0.59045   0.00000  Uiso   1.00
C14    C     0.27748   0.72768   0.02332   0.00000  Uiso   1.00
C15    C     0.31532   0.68572   0.10306   0.00000  Uiso   1.00
C16    C     0.34467   0.70781   0.19665   0.00000  Uiso   1.00
C17    C     0.37698   0.66172   0.25881   0.00000  Uiso   1.00
C18    C     0.21007   0.69655   0.01357   0.00000  Uiso   1.00
C19    C     0.15093   0.72775   0.03190   0.00000  Uiso   1.00
C20    C     0.09464   0.69078   0.01871   0.00000  Uiso   1.00
C21    C     0.31061   0.71777   0.91495   0.00000  Uiso   1.00
C22    C     0.33599   0.76682   0.85035   0.00000  Uiso   1.00
C23    C     0.36432   0.74772   0.75411   0.00000  Uiso   1.00
H24    H     0.28488   0.55534   0.94359   0.00000  Uiso   1.00
H25    H     0.35259   0.52289   0.11108   0.00000  Uiso   1.00
H26    H     0.15888   0.54283   0.94634   0.00000  Uiso   1.00
H27    H     0.34391   0.58189   0.76483   0.00000  Uiso   1.00
H28    H     0.42639   0.51593   0.31021   0.00000  Uiso   1.00
H29    H     0.01795   0.55797   0.96282   0.00000  Uiso   1.00
H30    H     0.40811   0.64034   0.58005   0.00000  Uiso   1.00
H31    H     0.27529   0.77891   0.04702   0.00000  Uiso   1.00
H32    H     0.34248   0.75873   0.22018   0.00000  Uiso   1.00
H33    H     0.14876   0.77866   0.05544   0.00000  Uiso   1.00
H34    H     0.33379   0.81772   0.87393   0.00000  Uiso   1.00
H35    H     0.41818   0.70734   0.39876   0.00000  Uiso   1.00
H36    H     0.00973   0.74939   0.05137   0.00000  Uiso   1.00
H37    H     0.39990   0.83175   0.66861   0.00000  Uiso   1.00
O38    O     0.46664   0.59432   0.46655   0.00000  Uiso   1.00
O39    O     0.93078   0.64949   0.01076   0.00000  Uiso   1.00
O40    O     0.44267   0.75755   0.50859   0.00000  Uiso   1.00
N41    N     0.41525   0.56375   0.30727   0.00000  Uiso   1.00
N42    N     0.03338   0.60305   0.98250   0.00000  Uiso   1.00
N43    N     0.39814   0.68006   0.62463   0.00000  Uiso   1.00
N44    N     0.41084   0.66675   0.35492   0.00000  Uiso   1.00
N45    N     0.02896   0.70605   0.03015   0.00000  Uiso   1.00
N46    N     0.39372   0.78306   0.67228   0.00000  Uiso   1.00
C47    C     0.71732   0.39344   0.96729   0.00000  Uiso   1.00
C48    C     0.68185   0.38007   0.07262   0.00000  Uiso   1.00
C49    C     0.64958   0.42620   0.13465   0.00000  Uiso   1.00
C50    C     0.62019   0.40419   0.22832   0.00000  Uiso   1.00
C51    C     0.56472   0.39343   0.38727   0.00000  Uiso   1.00
C52    C     0.78710   0.36924   0.98313   0.00000  Uiso   1.00
C53    C     0.84332   0.40626   0.96990   0.00000  Uiso   1.00
C54    C     0.90253   0.37513   0.98822   0.00000  Uiso   1.00
C55    C     0.01047   0.34755   0.00816   0.00000  Uiso   1.00
C56    C     0.68657   0.34802   0.88451   0.00000  Uiso   1.00
C57    C     0.65827   0.36720   0.78835   0.00000  Uiso   1.00
C58    C     0.63285   0.31819   0.72362   0.00000  Uiso   1.00
C59    C     0.58469   0.25766   0.59045   0.00000  Uiso   1.00
C60    C     0.72252   0.27232   0.02332   0.00000  Uiso   1.00
C61    C     0.68468   0.31428   0.10306   0.00000  Uiso   1.00
C62    C     0.65533   0.29219   0.19665   0.00000  Uiso   1.00
C63    C     0.62302   0.33828   0.25881   0.00000  Uiso   1.00
C64    C     0.78993   0.30345   0.01357   0.00000  Uiso   1.00
C65    C     0.84907   0.27225   0.03190   0.00000  Uiso   1.00
C66    C     0.90536   0.30922   0.01871   0.00000  Uiso   1.00
C67    C     0.68939   0.28223   0.91495   0.00000  Uiso   1.00
C68    C     0.66401   0.23318   0.85035   0.00000  Uiso   1.00
C69    C     0.63568   0.25228   0.75411   0.00000  Uiso   1.00
H70    H     0.71512   0.44466   0.94359   0.00000  Uiso   1.00
H71    H     0.64741   0.47711   0.11108   0.00000  Uiso   1.00
H72    H     0.84112   0.45717   0.94634   0.00000  Uiso   1.00
H73    H     0.65609   0.41811   0.76483   0.00000  Uiso   1.00
H74    H     0.57361   0.48407   0.31021   0.00000  Uiso   1.00
H75    H     0.98205   0.44203   0.96282   0.00000  Uiso   1.00
H76    H     0.59189   0.35966   0.58005   0.00000  Uiso   1.00
H77    H     0.72471   0.22109   0.04702   0.00000  Uiso   1.00
H78    H     0.65752   0.24127   0.22018   0.00000  Uiso   1.00
H79    H     0.85124   0.22134   0.05544   0.00000  Uiso   1.00
H80    H     0.66621   0.18228   0.87393   0.00000  Uiso   1.00
H81    H     0.58182   0.29266   0.39876   0.00000  Uiso   1.00
H82    H     0.99027   0.25061   0.05137   0.00000  Uiso   1.00
H83    H     0.60010   0.16825   0.66861   0.00000  Uiso   1.00
O84    O     0.53336   0.40568   0.46655   0.00000  Uiso   1.00
O85    O     0.06922   0.35051   0.01076   0.00000  Uiso   1.00
O86    O     0.55733   0.24245   0.50859   0.00000  Uiso   1.00
N87    N     0.58475   0.43625   0.30727   0.00000  Uiso   1.00
N88    N     0.96662   0.39695   0.98250   0.00000  Uiso   1.00
N89    N     0.60186   0.31994   0.62463   0.00000  Uiso   1.00
N90    N     0.58916   0.33325   0.35492   0.00000  Uiso   1.00
N91    N     0.97104   0.29395   0.03015   0.00000  Uiso   1.00
N92    N     0.60628   0.21694   0.67228   0.00000  Uiso   1.00
C93    C     0.39344   0.28268   0.46729   0.00000  Uiso   1.00
C94    C     0.38007   0.31815   0.57262   0.00000  Uiso   1.00
C95    C     0.42620   0.35042   0.63465   0.00000  Uiso   1.00
C96    C     0.40419   0.37981   0.72832   0.00000  Uiso   1.00
C97    C     0.39343   0.43528   0.88727   0.00000  Uiso   1.00
C98    C     0.36924   0.21290   0.48313   0.00000  Uiso   1.00
C99    C     0.40626   0.15668   0.46990   0.00000  Uiso   1.00
C100   C     0.37513   0.09747   0.48822   0.00000  Uiso   1.00
C101   C     0.34755   0.98953   0.50816   0.00000  Uiso   1.00
C102   C     0.34802   0.31343   0.38451   0.00000  Uiso   1.00
C103   C     0.36720   0.34173   0.28835   0.00000  Uiso   1.00
C104   C     0.31819   0.36715   0.22362   0.00000  Uiso   1.00
C105   C     0.25766   0.41531   0.09045   0.00000  Uiso   1.00
C106   C     0.27232   0.27748   0.52332   0.00000  Uiso   1.00
C107   C     0.31428   0.31532   0.60306   0.00000  Uiso   1.00
C108   C     0.29219   0.34467   0.69665   0.00000  Uiso   1.00
C109   C     0.33828   0.37698   0.75881   0.00000  Uiso   1.00
C110   C     0.30345   0.21007   0.51357   0.00000  Uiso   1.00
C111   C     0.27225   0.15093   0.53190   0.00000  Uiso   1.00
C112   C     0.30922   0.09464   0.51871   0.00000  Uiso   1.00
C113   C     0.28223   0.31061   0.41495   0.00000  Uiso   1.00
C114   C     0.23318   0.33599   0.35035   0.00000  Uiso   1.00
C115   C     0.25228   0.36432   0.25411   0.00000  Uiso   1.00
H116   H     0.44466   0.28488   0.44359   0.00000  Uiso   1.00
H117   H     0.47711   0.35259   0.61108   0.00000  Uiso   1.00
H118   H     0.45717   0.15888   0.44634   0.00000  Uiso   1.00
H119   H     0.41811   0.34391   0.26483   0.00000  Uiso   1.00
H120   H     0.48407   0.42639   0.81021   0.00000  Uiso   1.00
H121   H     0.44203   0.01795   0.46282   0.00000  Uiso   1.00
H122   H     0.35966   0.40811   0.08005   0.00000  Uiso   1.00
H123   H     0.22109   0.27529   0.54702   0.00000  Uiso   1.00
H124   H     0.24127   0.34248   0.72018   0.00000  Uiso   1.00
H125   H     0.22134   0.14876   0.55544   0.00000  Uiso   1.00
H126   H     0.18228   0.33379   0.37393   0.00000  Uiso   1.00
H127   H     0.29266   0.41818   0.89876   0.00000  Uiso   1.00
H128   H     0.25061   0.00973   0.55137   0.00000  Uiso   1.00
H129   H     0.16825   0.39990   0.16861   0.00000  Uiso   1.00
O130   O     0.40568   0.46664   0.96655   0.00000  Uiso   1.00
O131   O     0.35051   0.93078   0.51076   0.00000  Uiso   1.00
O132   O     0.24245   0.44267   0.00859   0.00000  Uiso   1.00
N133   N     0.43625   0.41525   0.80727   0.00000  Uiso   1.00
N134   N     0.39695   0.03338   0.48250   0.00000  Uiso   1.00
N135   N     0.31994   0.39814   0.12463   0.00000  Uiso   1.00
N136   N     0.33325   0.41084   0.85492   0.00000  Uiso   1.00
N137   N     0.29395   0.02896   0.53015   0.00000  Uiso   1.00
N138   N     0.21694   0.39372   0.17228   0.00000  Uiso   1.00
C139   C     0.60656   0.71732   0.46729   0.00000  Uiso   1.00
C140   C     0.61993   0.68185   0.57262   0.00000  Uiso   1.00
C141   C     0.57380   0.64958   0.63465   0.00000  Uiso   1.00
C142   C     0.59581   0.62019   0.72832   0.00000  Uiso   1.00
C143   C     0.60657   0.56472   0.88727   0.00000  Uiso   1.00
C144   C     0.63076   0.78710   0.48313   0.00000  Uiso   1.00
C145   C     0.59374   0.84332   0.46990   0.00000  Uiso   1.00
C146   C     0.62487   0.90253   0.48822   0.00000  Uiso   1.00
C147   C     0.65245   0.01047   0.50816   0.00000  Uiso   1.00
C148   C     0.65198   0.68657   0.38451   0.00000  Uiso   1.00
C149   C     0.63280   0.65827   0.28835   0.00000  Uiso   1.00
C150   C     0.68181   0.63285   0.22362   0.00000  Uiso   1.00
C151   C     0.74234   0.58469   0.09045   0.00000  Uiso   1.00
C152   C     0.72768   0.72252   0.52332   0.00000  Uiso   1.00
C153   C     0.68572   0.68468   0.60306   0.00000  Uiso   1.00
C154   C     0.70781   0.65533   0.69665   0.00000  Uiso   1.00
C155   C     0.66172   0.62302   0.75881   0.00000  Uiso   1.00
C156   C     0.69655   0.78993   0.51357   0.00000  Uiso   1.00
C157   C     0.72775   0.84907   0.53190   0.00000  Uiso   1.00
C158   C     0.69078   0.90536   0.51871   0.00000  Uiso   1.00
C159   C     0.71777   0.68939   0.41495   0.00000  Uiso   1.00
C160   C     0.76682   0.66401   0.35035   0.00000  Uiso   1.00
C161   C     0.74772   0.63568   0.25411   0.00000  Uiso   1.00
H162   H     0.55534   0.71512   0.44359   0.00000  Uiso   1.00
H163   H     0.52289   0.64741   0.61108   0.00000  Uiso   1.00
H164   H     0.54283   0.84112   0.44634   0.00000  Uiso   1.00
H165   H     0.58189   0.65609   0.26483   0.00000  Uiso   1.00
H166   H     0.51593   0.57361   0.81021   0.00000  Uiso   1.00
H167   H     0.55797   0.98205   0.46282   0.00000  Uiso   1.00
H168   H     0.64034   0.59189   0.08005   0.00000  Uiso   1.00
H169   H     0.77891   0.72471   0.54702   0.00000  Uiso   1.00
H170   H     0.75873   0.65752   0.72018   0.00000  Uiso   1.00
H171   H     0.77866   0.85124   0.55544   0.00000  Uiso   1.00
H172   H     0.81772   0.66621   0.37393   0.00000  Uiso   1.00
H173   H     0.70734   0.58182   0.89876   0.00000  Uiso   1.00
H174   H     0.74939   0.99027   0.55137   0.00000  Uiso   1.00
H175   H     0.83175   0.60010   0.16861   0.00000  Uiso   1.00
O176   O     0.59432   0.53336   0.96655   0.00000  Uiso   1.00
O177   O     0.64949   0.06922   0.51076   0.00000  Uiso   1.00
O178   O     0.75755   0.55733   0.00859   0.00000  Uiso   1.00
N179   N     0.56375   0.58475   0.80727   0.00000  Uiso   1.00
N180   N     0.60305   0.96662   0.48250   0.00000  Uiso   1.00
N181   N     0.68006   0.60186   0.12463   0.00000  Uiso   1.00
N182   N     0.66675   0.58916   0.85492   0.00000  Uiso   1.00
N183   N     0.70605   0.97104   0.53015   0.00000  Uiso   1.00
N184   N     0.78306   0.60628   0.17228   0.00000  Uiso   1.00
C185   C     0.78268   0.89344   0.96729   0.00000  Uiso   1.00
C186   C     0.81815   0.88007   0.07262   0.00000  Uiso   1.00
C187   C     0.85042   0.92620   0.13465   0.00000  Uiso   1.00
C188   C     0.87981   0.90419   0.22832   0.00000  Uiso   1.00
C189   C     0.93528   0.89343   0.38727   0.00000  Uiso   1.00
C190   C     0.71290   0.86924   0.98313   0.00000  Uiso   1.00
C191   C     0.65668   0.90626   0.96990   0.00000  Uiso   1.00
C192   C     0.59747   0.87513   0.98822   0.00000  Uiso   1.00
C193   C     0.48953   0.84755   0.00816   0.00000  Uiso   1.00
C194   C     0.81343   0.84802   0.88451   0.00000  Uiso   1.00
C195   C     0.84173   0.86720   0.78835   0.00000  Uiso   1.00
C196   C     0.86715   0.81819   0.72362   0.00000  Uiso   1.00
C197   C     0.91531   0.75766   0.59045   0.00000  Uiso   1.00
C198   C     0.77748   0.77232   0.02332   0.00000  Uiso   1.00
C199   C     0.81532   0.81428   0.10306   0.00000  Uiso   1.00
C200   C     0.84467   0.79219   0.19665   0.00000  Uiso   1.00
C201   C     0.87698   0.83828   0.25881   0.00000  Uiso   1.00
C202   C     0.71007   0.80345   0.01357   0.00000  Uiso   1.00
C203   C     0.65093   0.77225   0.03190   0.00000  Uiso   1.00
C204   C     0.59464   0.80922   0.01871   0.00000  Uiso   1.00
C205   C     0.81061   0.78223   0.91495   0.00000  Uiso   1.00
C206   C     0.83599   0.73318   0.85035   0.00000  Uiso   1.00
C207   C     0.86432   0.75228   0.75411   0.00000  Uiso   1.00
H208   H     0.78488   0.94466   0.94359   0.00000  Uiso   1.00
H209   H     0.85259   0.97711   0.11108   0.00000  Uiso   1.00
H210   H     0.65888   0.95717   0.94634   0.00000  Uiso   1.00
H211   H     0.84391   0.91811   0.76483   0.00000  Uiso   1.00
H212   H     0.92639   0.98407   0.31021   0.00000  Uiso   1.00
H213   H     0.51795   0.94203   0.96282   0.00000  Uiso   1.00
H214   H     0.90811   0.85966   0.58005   0.00000  Uiso   1.00
H215   H     0.77529   0.72109   0.04702   0.00000  Uiso   1.00
H216   H     0.84248   0.74127   0.22018   0.00000  Uiso   1.00
H217   H     0.64876   0.72134   0.05544   0.00000  Uiso   1.00
H218   H     0.83379   0.68228   0.87393   0.00000  Uiso   1.00
H219   H     0.91818   0.79266   0.39876   0.00000  Uiso   1.00
H220   H     0.50973   0.75061   0.05137   0.00000  Uiso   1.00
H221   H     0.89990   0.66825   0.66861   0.00000  Uiso   1.00
O222   O     0.96664   0.90568   0.46655   0.00000  Uiso   1.00
O223   O     0.43078   0.85051   0.01076   0.00000  Uiso   1.00
O224   O     0.94267   0.74245   0.50859   0.00000  Uiso   1.00
N225   N     0.91525   0.93625   0.30727   0.00000  Uiso   1.00
N226   N     0.53338   0.89695   0.98250   0.00000  Uiso   1.00
N227   N     0.89814   0.81994   0.62463   0.00000  Uiso   1.00
N228   N     0.91084   0.83325   0.35492   0.00000  Uiso   1.00
N229   N     0.52896   0.79395   0.03015   0.00000  Uiso   1.00
N230   N     0.89372   0.71694   0.67228   0.00000  Uiso   1.00
C231   C     0.21732   0.10656   0.96729   0.00000  Uiso   1.00
C232   C     0.18185   0.11993   0.07262   0.00000  Uiso   1.00
C233   C     0.14958   0.07380   0.13465   0.00000  Uiso   1.00
C234   C     0.12019   0.09581   0.22832   0.00000  Uiso   1.00
C235   C     0.06472   0.10657   0.38727   0.00000  Uiso   1.00
C236   C     0.28710   0.13076   0.98313   0.00000  Uiso   1.00
C237   C     0.34332   0.09374   0.96990   0.00000  Uiso   1.00
C238   C     0.40253   0.12487   0.98822   0.00000  Uiso   1.00
C239   C     0.51047   0.15245   0.00816   0.00000  Uiso   1.00
C240   C     0.18657   0.15198   0.88451   0.00000  Uiso   1.00
C241   C     0.15827   0.13280   0.78835   0.00000  Uiso   1.00
C242   C     0.13285   0.18181   0.72362   0.00000  Uiso   1.00
C243   C     0.08469   0.24234   0.59045   0.00000  Uiso   1.00
C244   C     0.22252   0.22768   0.02332   0.00000  Uiso   1.00
C245   C     0.18468   0.18572   0.10306   0.00000  Uiso   1.00
C246   C     0.15533   0.20781   0.19665   0.00000  Uiso   1.00
C247   C     0.12302   0.16172   0.25881   0.00000  Uiso   1.00
C248   C     0.28993   0.19655   0.01357   0.00000  Uiso   1.00
C249   C     0.34907   0.22775   0.03190   0.00000  Uiso   1.00
C250   C     0.40536   0.19078   0.01871   0.00000  Uiso   1.00
C251   C     0.18939   0.21777   0.91495   0.00000  Uiso   1.00
C252   C     0.16401   0.26682   0.85035   0.00000  Uiso   1.00
C253   C     0.13568   0.24772   0.75411   0.00000  Uiso   1.00
H254   H     0.21512   0.05534   0.94359   0.00000  Uiso   1.00
H255   H     0.14741   0.02289   0.11108   0.00000  Uiso   1.00
H256   H     0.34112   0.04283   0.94634   0.00000  Uiso   1.00
H257   H     0.15609   0.08189   0.76483   0.00000  Uiso   1.00
H258   H     0.07361   0.01593   0.31021   0.00000  Uiso   1.00
H259   H     0.48205   0.05797   0.96282   0.00000  Uiso   1.00
H260   H     0.09189   0.14034   0.58005   0.00000  Uiso   1.00
H261   H     0.22471   0.27891   0.04702   0.00000  Uiso   1.00
H262   H     0.15752   0.25873   0.22018   0.00000  Uiso   1.00
H263   H     0.35124   0.27866   0.05544   0.00000  Uiso   1.00
H264   H     0.16621   0.31772   0.87393   0.00000  Uiso   1.00
H265   H     0.08182   0.20734   0.39876   0.00000  Uiso   1.00
H266   H     0.49027   0.24939   0.05137   0.00000  Uiso   1.00
H267   H     0.10010   0.33175   0.66861   0.00000  Uiso   1.00
O268   O     0.03336   0.09432   0.46655   0.00000  Uiso   1.00
O269   O     0.56922   0.14949   0.01076   0.00000  Uiso   1.00
O270   O     0.05733   0.25755   0.50859   0.00000  Uiso   1.00
N271   N     0.08475   0.06375   0.30727   0.00000  Uiso   1.00
N272   N     0.46662   0.10305   0.98250   0.00000  Uiso   1.00
N273   N     0.10186   0.18006   0.62463   0.00000  Uiso   1.00
N274   N     0.08916   0.16675   0.35492   0.00000  Uiso   1.00
N275   N     0.47104   0.20605   0.03015   0.00000  Uiso   1.00
N276   N     0.10628   0.28306   0.67228   0.00000  Uiso   1.00
C277   C     0.89344   0.21732   0.46729   0.00000  Uiso   1.00
C278   C     0.88007   0.18185   0.57262   0.00000  Uiso   1.00
C279   C     0.92620   0.14958   0.63465   0.00000  Uiso   1.00
C280   C     0.90419   0.12019   0.72832   0.00000  Uiso   1.00
C281   C     0.89343   0.06472   0.88727   0.00000  Uiso   1.00
C282   C     0.86924   0.28710   0.48313   0.00000  Uiso   1.00
C283   C     0.90626   0.34332   0.46990   0.00000  Uiso   1.00
C284   C     0.87513   0.40253   0.48822   0.00000  Uiso   1.00
C285   C     0.84755   0.51047   0.50816   0.00000  Uiso   1.00
C286   C     0.84802   0.18657   0.38451   0.00000  Uiso   1.00
C287   C     0.86720   0.15827   0.28835   0.00000  Uiso   1.00
C288   C     0.81819   0.13285   0.22362   0.00000  Uiso   1.00
C289   C     0.75766   0.08469   0.09045   0.00000  Uiso   1.00
C290   C     0.77232   0.22252   0.52332   0.00000  Uiso   1.00
C291   C     0.81428   0.18468   0.60306   0.00000  Uiso   1.00
C292   C     0.79219   0.15533   0.69665   0.00000  Uiso   1.00
C293   C     0.83828   0.12302   0.75881   0.00000  Uiso   1.00
C294   C     0.80345   0.28993   0.51357   0.00000  Uiso   1.00
C295   C     0.77225   0.34907   0.53190   0.00000  Uiso   1.00
C296   C     0.80922   0.40536   0.51871   0.00000  Uiso   1.00
C297   C     0.78223   0.18939   0.41495   0.00000  Uiso   1.00
C298   C     0.73318   0.16401   0.35035   0.00000  Uiso   1.00
C299   C     0.75228   0.13568   0.25411   0.00000  Uiso   1.00
H300   H     0.94466   0.21512   0.44359   0.00000  Uiso   1.00
H301   H     0.97711   0.14741   0.61108   0.00000  Uiso   1.00
H302   H     0.95717   0.34112   0.44634   0.00000  Uiso   1.00
H303   H     0.91811   0.15609   0.26483   0.00000  Uiso   1.00
H304   H     0.98407   0.07361   0.81021   0.00000  Uiso   1.00
H305   H     0.94203   0.48205   0.46282   0.00000  Uiso   1.00
H306   H     0.85966   0.09189   0.08005   0.00000  Uiso   1.00
H307   H     0.72109   0.22471   0.54702   0.00000  Uiso   1.00
H308   H     0.74127   0.15752   0.72018   0.00000  Uiso   1.00
H309   H     0.72134   0.35124   0.55544   0.00000  Uiso   1.00
H310   H     0.68228   0.16621   0.37393   0.00000  Uiso   1.00
H311   H     0.79266   0.08182   0.89876   0.00000  Uiso   1.00
H312   H     0.75061   0.49027   0.55137   0.00000  Uiso   1.00
H313   H     0.66825   0.10010   0.16861   0.00000  Uiso   1.00
O314   O     0.90568   0.03336   0.96655   0.00000  Uiso   1.00
O315   O     0.85051   0.56922   0.51076   0.00000  Uiso   1.00
O316   O     0.74245   0.05733   0.00859   0.00000  Uiso   1.00
N317   N     0.93625   0.08475   0.80727   0.00000  Uiso   1.00
N318   N     0.89695   0.46662   0.48250   0.00000  Uiso   1.00
N319   N     0.81994   0.10186   0.12463   0.00000  Uiso   1.00
N320   N     0.83325   0.08916   0.85492   0.00000  Uiso   1.00
N321   N     0.79395   0.47104   0.53015   0.00000  Uiso   1.00
N322   N     0.71694   0.10628   0.17228   0.00000  Uiso   1.00
C323   C     0.10656   0.78268   0.46729   0.00000  Uiso   1.00
C324   C     0.11993   0.81815   0.57262   0.00000  Uiso   1.00
C325   C     0.07380   0.85042   0.63465   0.00000  Uiso   1.00
C326   C     0.09581   0.87981   0.72832   0.00000  Uiso   1.00
C327   C     0.10657   0.93528   0.88727   0.00000  Uiso   1.00
C328   C     0.13076   0.71290   0.48313   0.00000  Uiso   1.00
C329   C     0.09374   0.65668   0.46990   0.00000  Uiso   1.00
C330   C     0.12487   0.59747   0.48822   0.00000  Uiso   1.00
C331   C     0.15245   0.48953   0.50816   0.00000  Uiso   1.00
C332   C     0.15198   0.81343   0.38451   0.00000  Uiso   1.00
C333   C     0.13280   0.84173   0.28835   0.00000  Uiso   1.00
C334   C     0.18181   0.86715   0.22362   0.00000  Uiso   1.00
C335   C     0.24234   0.91531   0.09045   0.00000  Uiso   1.00
C336   C     0.22768   0.77748   0.52332   0.00000  Uiso   1.00
C337   C     0.18572   0.81532   0.60306   0.00000  Uiso   1.00
C338   C     0.20781   0.84467   0.69665   0.00000  Uiso   1.00
C339   C     0.16172   0.87698   0.75881   0.00000  Uiso   1.00
C340   C     0.19655   0.71007   0.51357   0.00000  Uiso   1.00
C341   C     0.22775   0.65093   0.53190   0.00000  Uiso   1.00
C342   C     0.19078   0.59464   0.51871   0.00000  Uiso   1.00
C343   C     0.21777   0.81061   0.41495   0.00000  Uiso   1.00
C344   C     0.26682   0.83599   0.35035   0.00000  Uiso   1.00
C345   C     0.24772   0.86432   0.25411   0.00000  Uiso   1.00
H346   H     0.05534   0.78488   0.44359   0.00000  Uiso   1.00
H347   H     0.02289   0.85259   0.61108   0.00000  Uiso   1.00
H348   H     0.04283   0.65888   0.44634   0.00000  Uiso   1.00
H349   H     0.08189   0.84391   0.26483   0.00000  Uiso   1.00
H350   H     0.01593   0.92639   0.81021   0.00000  Uiso   1.00
H351   H     0.05797   0.51795   0.46282   0.00000  Uiso   1.00
H352   H     0.14034   0.90811   0.08005   0.00000  Uiso   1.00
H353   H     0.27891   0.77529   0.54702   0.00000  Uiso   1.00
H354   H     0.25873   0.84248   0.72018   0.00000  Uiso   1.00
H355   H     0.27866   0.64876   0.55544   0.00000  Uiso   1.00
H356   H     0.31772   0.83379   0.37393   0.00000  Uiso   1.00
H357   H     0.20734   0.91818   0.89876   0.00000  Uiso   1.00
H358   H     0.24939   0.50973   0.55137   0.00000  Uiso   1.00
H359   H     0.33175   0.89990   0.16861   0.00000  Uiso   1.00
O360   O     0.09432   0.96664   0.96655   0.00000  Uiso   1.00
O361   O     0.14949   0.43078   0.51076   0.00000  Uiso   1.00
O362   O     0.25755   0.94267   0.00859   0.00000  Uiso   1.00
N363   N     0.06375   0.91525   0.80727   0.00000  Uiso   1.00
N364   N     0.10305   0.53338   0.48250   0.00000  Uiso   1.00
N365   N     0.18006   0.89814   0.12463   0.00000  Uiso   1.00
N366   N     0.16675   0.91084   0.85492   0.00000  Uiso   1.00
N367   N     0.20605   0.52896   0.53015   0.00000  Uiso   1.00
N368   N     0.28306   0.89372   0.17228   0.00000  Uiso   1.00
