data_job_06920
_audit_creation_date              2018-12-19
_audit_creation_method            'Materials Studio'
_symmetry_space_group_name_H-M    'P1'
_symmetry_Int_Tables_number       1
_symmetry_cell_setting            triclinic
loop_
_symmetry_equiv_pos_as_xyz
  x,y,z
_cell_length_a                    22.5267
_cell_length_b                    18.1143
_cell_length_c                    22.9639
_cell_angle_alpha                 102.8080
_cell_angle_beta                  104.2620
_cell_angle_gamma                 99.2342
loop_
_atom_site_label
_atom_site_type_symbol
_atom_site_fract_x
_atom_site_fract_y
_atom_site_fract_z
_atom_site_U_iso_or_equiv
_atom_site_adp_type
_atom_site_occupancy
C1     C     0.77580   0.31496   0.92550   0.00000  Uiso   1.00
C2     C     0.73069   0.35069   0.88507   0.00000  Uiso   1.00
C3     C     0.66570   0.32516   0.86381   0.00000  Uiso   1.00
C4     C     0.63281   0.36564   0.82739   0.00000  Uiso   1.00
C5     C     0.55805   0.41139   0.76681   0.00000  Uiso   1.00
C6     C     0.82214   0.29388   0.88965   0.00000  Uiso   1.00
C7     C     0.83405   0.22058   0.87225   0.00000  Uiso   1.00
C8     C     0.87814   0.21325   0.83968   0.00000  Uiso   1.00
C9     C     0.94539   0.17081   0.78625   0.00000  Uiso   1.00
C10    C     0.81372   0.38070   0.98334   0.00000  Uiso   1.00
C11    C     0.81855   0.38041   0.04471   0.00000  Uiso   1.00
C12    C     0.85557   0.44617   0.09102   0.00000  Uiso   1.00
C13    C     0.90974   0.53854   0.18306   0.00000  Uiso   1.00
C14    C     0.83294   0.43226   0.89861   0.00000  Uiso   1.00
C15    C     0.76173   0.41439   0.87047   0.00000  Uiso   1.00
C16    C     0.72892   0.45493   0.83407   0.00000  Uiso   1.00
C17    C     0.66390   0.42947   0.81276   0.00000  Uiso   1.00
C18    C     0.85318   0.35758   0.87505   0.00000  Uiso   1.00
C19    C     0.89727   0.35035   0.84250   0.00000  Uiso   1.00
C20    C     0.90923   0.27707   0.82505   0.00000  Uiso   1.00
C21    C     0.84475   0.44441   0.96874   0.00000  Uiso   1.00
C22    C     0.88177   0.51018   0.01497   0.00000  Uiso   1.00
C23    C     0.88666   0.50999   0.07640   0.00000  Uiso   1.00
H24    H     0.75164   0.26536   0.93686   0.00000  Uiso   1.00
H25    H     0.64170   0.27585   0.87512   0.00000  Uiso   1.00
H26    H     0.81002   0.17129   0.88356   0.00000  Uiso   1.00
H27    H     0.79453   0.33110   0.05599   0.00000  Uiso   1.00
H28    H     0.53351   0.31555   0.80020   0.00000  Uiso   1.00
H29    H     0.88844   0.09510   0.81802   0.00000  Uiso   1.00
H30    H     0.85577   0.43207   0.18163   0.00000  Uiso   1.00
H31    H     0.85710   0.48186   0.88724   0.00000  Uiso   1.00
H32    H     0.75296   0.50423   0.82278   0.00000  Uiso   1.00
H33    H     0.92128   0.39967   0.83121   0.00000  Uiso   1.00
H34    H     0.90578   0.55947   0.00365   0.00000  Uiso   1.00
H35    H     0.62381   0.50091   0.75772   0.00000  Uiso   1.00
H36    H     0.97874   0.28046   0.77553   0.00000  Uiso   1.00
H37    H     0.94607   0.61743   0.13915   0.00000  Uiso   1.00
O38    O     0.50825   0.41902   0.73743   0.00000  Uiso   1.00
O39    O     0.97391   0.12980   0.76081   0.00000  Uiso   1.00
O40    O     0.93104   0.57190   0.23786   0.00000  Uiso   1.00
N41    N     0.56905   0.35612   0.79906   0.00000  Uiso   1.00
N42    N     0.90088   0.15000   0.81571   0.00000  Uiso   1.00
N43    N     0.87035   0.46504   0.15566   0.00000  Uiso   1.00
N44    N     0.61764   0.45586   0.77620   0.00000  Uiso   1.00
N45    N     0.94947   0.24974   0.79285   0.00000  Uiso   1.00
N46    N     0.91894   0.56478   0.13280   0.00000  Uiso   1.00
C47    C     0.86707   0.66041   0.50865   0.00000  Uiso   1.00
C48    C     0.83767   0.57778   0.50704   0.00000  Uiso   1.00
C49    C     0.85020   0.51035   0.47507   0.00000  Uiso   1.00
C50    C     0.81846   0.44040   0.47943   0.00000  Uiso   1.00
C51    C     0.77929   0.31245   0.47156   0.00000  Uiso   1.00
C52    C     0.81234   0.69677   0.48573   0.00000  Uiso   1.00
C53    C     0.80356   0.72938   0.43585   0.00000  Uiso   1.00
C54    C     0.75050   0.75961   0.42229   0.00000  Uiso   1.00
C55    C     0.67202   0.81644   0.38137   0.00000  Uiso   1.00
C56    C     0.89730   0.70374   0.57746   0.00000  Uiso   1.00
C57    C     0.95997   0.74223   0.60472   0.00000  Uiso   1.00
C58    C     0.97844   0.77834   0.66839   0.00000  Uiso   1.00
C59    C     0.03189   0.84599   0.76990   0.00000  Uiso   1.00
C60    C     0.78844   0.65611   0.57327   0.00000  Uiso   1.00
C61    C     0.79496   0.57545   0.54213   0.00000  Uiso   1.00
C62    C     0.76320   0.50559   0.54656   0.00000  Uiso   1.00
C63    C     0.77567   0.43806   0.51460   0.00000  Uiso   1.00
C64    C     0.76963   0.69443   0.52083   0.00000  Uiso   1.00
C65    C     0.71657   0.72462   0.50734   0.00000  Uiso   1.00
C66    C     0.70771   0.75727   0.45745   0.00000  Uiso   1.00
C67    C     0.85460   0.70140   0.61257   0.00000  Uiso   1.00
C68    C     0.87297   0.73747   0.67621   0.00000  Uiso   1.00
C69    C     0.93566   0.77600   0.70355   0.00000  Uiso   1.00
H70    H     0.90032   0.66224   0.48133   0.00000  Uiso   1.00
H71    H     0.88325   0.51218   0.44790   0.00000  Uiso   1.00
H72    H     0.83663   0.73119   0.40870   0.00000  Uiso   1.00
H73    H     0.99301   0.74403   0.57754   0.00000  Uiso   1.00
H74    H     0.84547   0.34478   0.42631   0.00000  Uiso   1.00
H75    H     0.74718   0.80660   0.34366   0.00000  Uiso   1.00
H76    H     0.07694   0.83368   0.69969   0.00000  Uiso   1.00
H77    H     0.75518   0.65429   0.60060   0.00000  Uiso   1.00
H78    H     0.73015   0.50380   0.57372   0.00000  Uiso   1.00
H79    H     0.68353   0.72281   0.53452   0.00000  Uiso   1.00
H80    H     0.83991   0.73565   0.70335   0.00000  Uiso   1.00
H81    H     0.72121   0.33798   0.52842   0.00000  Uiso   1.00
H82    H     0.62292   0.79980   0.44578   0.00000  Uiso   1.00
H83    H     0.95268   0.82688   0.80181   0.00000  Uiso   1.00
O84    O     0.76947   0.24252   0.45752   0.00000  Uiso   1.00
O85    O     0.64053   0.84842   0.34909   0.00000  Uiso   1.00
O86    O     0.07317   0.88395   0.81619   0.00000  Uiso   1.00
N87    N     0.81967   0.36383   0.45404   0.00000  Uiso   1.00
N88    N     0.72777   0.79560   0.37676   0.00000  Uiso   1.00
N89    N     0.03607   0.82093   0.70962   0.00000  Uiso   1.00
N90    N     0.75280   0.36017   0.50899   0.00000  Uiso   1.00
N91    N     0.66090   0.79194   0.43171   0.00000  Uiso   1.00
N92    N     0.96920   0.81727   0.76456   0.00000  Uiso   1.00
C93    C     0.37392   0.73988   0.86466   0.00000  Uiso   1.00
C94    C     0.38144   0.67074   0.81755   0.00000  Uiso   1.00
C95    C     0.33774   0.63067   0.76050   0.00000  Uiso   1.00
C96    C     0.35345   0.56906   0.72411   0.00000  Uiso   1.00
C97    C     0.35638   0.46483   0.64794   0.00000  Uiso   1.00
C98    C     0.38211   0.71718   0.92578   0.00000  Uiso   1.00
C99    C     0.33897   0.71619   0.95972   0.00000  Uiso   1.00
C100   C     0.35524   0.69369   0.01445   0.00000  Uiso   1.00
C101   C     0.35923   0.66163   0.10632   0.00000  Uiso   1.00
C102   C     0.43058   0.80556   0.87590   0.00000  Uiso   1.00
C103   C     0.42820   0.87887   0.86792   0.00000  Uiso   1.00
C104   C     0.48529   0.93079   0.88067   0.00000  Uiso   1.00
C105   C     0.56454   0.03593   0.89509   0.00000  Uiso   1.00
C106   C     0.47952   0.70171   0.90149   0.00000  Uiso   1.00
C107   C     0.43880   0.65000   0.83756   0.00000  Uiso   1.00
C108   C     0.45457   0.58844   0.80125   0.00000  Uiso   1.00
C109   C     0.41091   0.54829   0.74415   0.00000  Uiso   1.00
C110   C     0.43946   0.69645   0.94578   0.00000  Uiso   1.00
C111   C     0.45580   0.67396   0.00047   0.00000  Uiso   1.00
C112   C     0.41270   0.67292   0.03449   0.00000  Uiso   1.00
C113   C     0.48794   0.78483   0.89590   0.00000  Uiso   1.00
C114   C     0.54503   0.83664   0.90867   0.00000  Uiso   1.00
C115   C     0.54274   0.91002   0.90071   0.00000  Uiso   1.00
H116   H     0.32927   0.75602   0.84909   0.00000  Uiso   1.00
H117   H     0.29336   0.64673   0.74504   0.00000  Uiso   1.00
H118   H     0.29459   0.73224   0.94423   0.00000  Uiso   1.00
H119   H     0.38381   0.89490   0.85244   0.00000  Uiso   1.00
H120   H     0.27883   0.51640   0.63851   0.00000  Uiso   1.00
H121   H     0.28144   0.69673   0.05854   0.00000  Uiso   1.00
H122   H     0.46957   0.03973   0.86497   0.00000  Uiso   1.00
H123   H     0.52418   0.68557   0.91707   0.00000  Uiso   1.00
H124   H     0.49896   0.57241   0.81674   0.00000  Uiso   1.00
H125   H     0.50019   0.65792   0.01594   0.00000  Uiso   1.00
H126   H     0.58941   0.82058   0.92415   0.00000  Uiso   1.00
H127   H     0.44570   0.45608   0.69671   0.00000  Uiso   1.00
H128   H     0.44831   0.63641   0.11674   0.00000  Uiso   1.00
H129   H     0.63644   0.97940   0.92318   0.00000  Uiso   1.00
O130   O     0.34215   0.41305   0.60039   0.00000  Uiso   1.00
O131   O     0.34558   0.64966   0.15146   0.00000  Uiso   1.00
O132   O     0.59240   0.09965   0.89751   0.00000  Uiso   1.00
N133   N     0.32157   0.51774   0.66597   0.00000  Uiso   1.00
N134   N     0.32400   0.68633   0.05867   0.00000  Uiso   1.00
N135   N     0.49989   0.00701   0.87772   0.00000  Uiso   1.00
N136   N     0.41136   0.48528   0.69729   0.00000  Uiso   1.00
N137   N     0.41380   0.65387   0.08998   0.00000  Uiso   1.00
N138   N     0.58969   0.97455   0.90903   0.00000  Uiso   1.00
C139   C     0.31231   0.18879   0.88427   0.00000  Uiso   1.00
C140   C     0.30863   0.11332   0.90365   0.00000  Uiso   1.00
C141   C     0.25376   0.06145   0.89823   0.00000  Uiso   1.00
C142   C     0.26037   0.99573   0.91861   0.00000  Uiso   1.00
C143   C     0.24562   0.88055   0.94489   0.00000  Uiso   1.00
C144   C     0.35107   0.18322   0.83824   0.00000  Uiso   1.00
C145   C     0.33188   0.19012   0.77783   0.00000  Uiso   1.00
C146   C     0.37422   0.18325   0.74315   0.00000  Uiso   1.00
C147   C     0.42538   0.17664   0.66789   0.00000  Uiso   1.00
C148   C     0.35214   0.25307   0.94232   0.00000  Uiso   1.00
C149   C     0.33387   0.31872   0.96941   0.00000  Uiso   1.00
C150   C     0.37712   0.37068   0.02235   0.00000  Uiso   1.00
C151   C     0.42994   0.47253   0.10869   0.00000  Uiso   1.00
C152   C     0.42163   0.16434   0.93011   0.00000  Uiso   1.00
C153   C     0.36801   0.10004   0.92855   0.00000  Uiso   1.00
C154   C     0.37470   0.03439   0.94895   0.00000  Uiso   1.00
C155   C     0.31985   0.98243   0.94355   0.00000  Uiso   1.00
C156   C     0.41044   0.16993   0.86314   0.00000  Uiso   1.00
C157   C     0.45282   0.16306   0.82854   0.00000  Uiso   1.00
C158   C     0.43370   0.16995   0.76809   0.00000  Uiso   1.00
C159   C     0.41152   0.23979   0.96722   0.00000  Uiso   1.00
C160   C     0.45481   0.29166   0.02013   0.00000  Uiso   1.00
C161   C     0.43660   0.35738   0.04729   0.00000  Uiso   1.00
H162   H     0.26609   0.19913   0.86488   0.00000  Uiso   1.00
H163   H     0.20782   0.07174   0.87895   0.00000  Uiso   1.00
H164   H     0.28593   0.20040   0.75857   0.00000  Uiso   1.00
H165   H     0.28792   0.32898   0.95013   0.00000  Uiso   1.00
H166   H     0.16940   0.92464   0.90551   0.00000  Uiso   1.00
H167   H     0.33412   0.19595   0.65169   0.00000  Uiso   1.00
H168   H     0.33830   0.46709   0.05562   0.00000  Uiso   1.00
H169   H     0.46785   0.15400   0.94949   0.00000  Uiso   1.00
H170   H     0.42066   0.02413   0.96821   0.00000  Uiso   1.00
H171   H     0.49877   0.15279   0.84783   0.00000  Uiso   1.00
H172   H     0.50075   0.28137   0.03938   0.00000  Uiso   1.00
H173   H     0.34215   0.88599   0.97795   0.00000  Uiso   1.00
H174   H     0.50686   0.15731   0.72413   0.00000  Uiso   1.00
H175   H     0.51104   0.42844   0.12806   0.00000  Uiso   1.00
O176   O     0.22109   0.82068   0.95250   0.00000  Uiso   1.00
O177   O     0.43719   0.17665   0.61950   0.00000  Uiso   1.00
O178   O     0.44267   0.53237   0.14945   0.00000  Uiso   1.00
N179   N     0.21654   0.93337   0.92000   0.00000  Uiso   1.00
N180   N     0.37053   0.18702   0.68269   0.00000  Uiso   1.00
N181   N     0.37445   0.44052   0.06032   0.00000  Uiso   1.00
N182   N     0.30949   0.91258   0.95898   0.00000  Uiso   1.00
N183   N     0.46348   0.16622   0.72167   0.00000  Uiso   1.00
N184   N     0.46740   0.41973   0.09930   0.00000  Uiso   1.00
C185   C     0.35074   0.82539   0.43892   0.00000  Uiso   1.00
C186   C     0.32197   0.82766   0.37205   0.00000  Uiso   1.00
C187   C     0.32022   0.77289   0.31839   0.00000  Uiso   1.00
C188   C     0.29178   0.78542   0.26162   0.00000  Uiso   1.00
C189   C     0.25100   0.77904   0.15825   0.00000  Uiso   1.00
C190   C     0.29848   0.82850   0.47021   0.00000  Uiso   1.00
C191   C     0.27699   0.77446   0.49907   0.00000  Uiso   1.00
C192   C     0.22879   0.78770   0.52494   0.00000  Uiso   1.00
C193   C     0.15157   0.78267   0.57399   0.00000  Uiso   1.00
C194   C     0.39929   0.90198   0.47080   0.00000  Uiso   1.00
C195   C     0.46255   0.90972   0.50018   0.00000  Uiso   1.00
C196   C     0.49922   0.98483   0.52655   0.00000  Uiso   1.00
C197   C     0.57851   0.09388   0.57652   0.00000  Uiso   1.00
C198   C     0.30335   0.94503   0.43353   0.00000  Uiso   1.00
C199   C     0.29623   0.89264   0.36913   0.00000  Uiso   1.00
C200   C     0.26779   0.90526   0.31243   0.00000  Uiso   1.00
C201   C     0.26600   0.85052   0.25869   0.00000  Uiso   1.00
C202   C     0.27274   0.89348   0.46728   0.00000  Uiso   1.00
C203   C     0.22456   0.90682   0.49312   0.00000  Uiso   1.00
C204   C     0.20300   0.85280   0.52201   0.00000  Uiso   1.00
C205   C     0.37355   0.96697   0.46787   0.00000  Uiso   1.00
C206   C     0.41012   0.04209   0.49421   0.00000  Uiso   1.00
C207   C     0.47343   0.04993   0.52362   0.00000  Uiso   1.00
H208   H     0.37078   0.77479   0.44120   0.00000  Uiso   1.00
H209   H     0.34014   0.72260   0.32067   0.00000  Uiso   1.00
H210   H     0.29692   0.72418   0.50133   0.00000  Uiso   1.00
H211   H     0.48245   0.85942   0.50243   0.00000  Uiso   1.00
H212   H     0.29480   0.69339   0.18576   0.00000  Uiso   1.00
H213   H     0.20369   0.69671   0.56671   0.00000  Uiso   1.00
H214   H     0.59492   0.98190   0.56903   0.00000  Uiso   1.00
H215   H     0.28332   0.99562   0.43126   0.00000  Uiso   1.00
H216   H     0.24788   0.95555   0.31018   0.00000  Uiso   1.00
H217   H     0.20466   0.95712   0.49085   0.00000  Uiso   1.00
H218   H     0.39019   0.09236   0.49194   0.00000  Uiso   1.00
H219   H     0.21992   0.88245   0.17725   0.00000  Uiso   1.00
H220   H     0.12880   0.88578   0.55820   0.00000  Uiso   1.00
H221   H     0.52003   0.17096   0.56052   0.00000  Uiso   1.00
O222   O     0.23561   0.75756   0.10204   0.00000  Uiso   1.00
O223   O     0.11608   0.76193   0.60184   0.00000  Uiso   1.00
O224   O     0.62936   0.13608   0.60488   0.00000  Uiso   1.00
N225   N     0.28205   0.74339   0.20037   0.00000  Uiso   1.00
N226   N     0.19686   0.74649   0.55653   0.00000  Uiso   1.00
N227   N     0.56262   0.01312   0.55871   0.00000  Uiso   1.00
N228   N     0.24176   0.84513   0.19579   0.00000  Uiso   1.00
N229   N     0.15657   0.84823   0.55195   0.00000  Uiso   1.00
N230   N     0.52233   0.11485   0.55413   0.00000  Uiso   1.00
C231   C     0.92153   0.20609   0.39451   0.00000  Uiso   1.00
C232   C     0.97313   0.17951   0.36872   0.00000  Uiso   1.00
C233   C     0.97101   0.10414   0.33660   0.00000  Uiso   1.00
C234   C     0.02297   0.09171   0.31684   0.00000  Uiso   1.00
C235   C     0.09513   0.04120   0.27495   0.00000  Uiso   1.00
C236   C     0.90488   0.27108   0.36579   0.00000  Uiso   1.00
C237   C     0.84539   0.27269   0.33121   0.00000  Uiso   1.00
C238   C     0.83990   0.33734   0.30899   0.00000  Uiso   1.00
C239   C     0.80611   0.42902   0.26259   0.00000  Uiso   1.00
C240   C     0.95240   0.24441   0.46410   0.00000  Uiso   1.00
C241   C     0.93285   0.22361   0.51219   0.00000  Uiso   1.00
C242   C     0.96736   0.26582   0.57274   0.00000  Uiso   1.00
C243   C     0.00734   0.31608   0.67899   0.00000  Uiso   1.00
C244   C     0.01757   0.31805   0.41654   0.00000  Uiso   1.00
C245   C     0.02529   0.24033   0.38069   0.00000  Uiso   1.00
C246   C     0.07727   0.22801   0.36097   0.00000  Uiso   1.00
C247   C     0.07523   0.15263   0.32883   0.00000  Uiso   1.00
C248   C     0.95705   0.33189   0.37775   0.00000  Uiso   1.00
C249   C     0.95165   0.39656   0.35558   0.00000  Uiso   1.00
C250   C     0.89216   0.39827   0.32097   0.00000  Uiso   1.00
C251   C     0.00457   0.30522   0.47607   0.00000  Uiso   1.00
C252   C     0.03911   0.34748   0.53656   0.00000  Uiso   1.00
C253   C     0.01962   0.32675   0.58473   0.00000  Uiso   1.00
H254   H     0.88092   0.15875   0.38519   0.00000  Uiso   1.00
H255   H     0.93063   0.05709   0.32734   0.00000  Uiso   1.00
H256   H     0.80503   0.22562   0.32196   0.00000  Uiso   1.00
H257   H     0.89248   0.17654   0.50291   0.00000  Uiso   1.00
H258   H     0.00874   0.97122   0.26846   0.00000  Uiso   1.00
H259   H     0.74390   0.32658   0.25713   0.00000  Uiso   1.00
H260   H     0.92830   0.22309   0.63870   0.00000  Uiso   1.00
H261   H     0.05819   0.36540   0.42585   0.00000  Uiso   1.00
H262   H     0.11763   0.27509   0.37024   0.00000  Uiso   1.00
H263   H     0.99203   0.44361   0.36485   0.00000  Uiso   1.00
H264   H     0.07948   0.39454   0.54580   0.00000  Uiso   1.00
H265   H     0.16051   0.14815   0.30328   0.00000  Uiso   1.00
H266   H     0.89567   0.50351   0.29195   0.00000  Uiso   1.00
H267   H     0.08007   0.40003   0.67352   0.00000  Uiso   1.00
O268   O     0.12052   0.99655   0.24853   0.00000  Uiso   1.00
O269   O     0.77306   0.46277   0.23368   0.00000  Uiso   1.00
O270   O     0.01499   0.32700   0.73429   0.00000  Uiso   1.00
N271   N     0.03631   0.02525   0.28430   0.00000  Uiso   1.00
N272   N     0.78870   0.35749   0.27370   0.00000  Uiso   1.00
N273   N     0.96109   0.26075   0.63043   0.00000  Uiso   1.00
N274   N     0.11798   0.12045   0.30303   0.00000  Uiso   1.00
N275   N     0.87037   0.45269   0.29243   0.00000  Uiso   1.00
N276   N     0.04276   0.35595   0.64917   0.00000  Uiso   1.00
C277   C     0.13551   0.55738   0.19678   0.00000  Uiso   1.00
C278   C     0.19831   0.54090   0.22752   0.00000  Uiso   1.00
C279   C     0.24870   0.53990   0.20293   0.00000  Uiso   1.00
C280   C     0.30202   0.52364   0.23827   0.00000  Uiso   1.00
C281   C     0.39912   0.50033   0.27722   0.00000  Uiso   1.00
C282   C     0.12655   0.62541   0.24388   0.00000  Uiso   1.00
C283   C     0.11661   0.69546   0.23303   0.00000  Uiso   1.00
C284   C     0.10952   0.75032   0.28214   0.00000  Uiso   1.00
C285   C     0.09517   0.85820   0.34646   0.00000  Uiso   1.00
C286   C     0.08516   0.48725   0.19193   0.00000  Uiso   1.00
C287   C     0.04039   0.44115   0.13740   0.00000  Uiso   1.00
C288   C     0.99844   0.37970   0.14278   0.00000  Uiso   1.00
C289   C     0.91982   0.27306   0.12644   0.00000  Uiso   1.00
C290   C     0.14059   0.53026   0.30328   0.00000  Uiso   1.00
C291   C     0.20107   0.52617   0.28537   0.00000  Uiso   1.00
C292   C     0.25433   0.50990   0.32075   0.00000  Uiso   1.00
C293   C     0.30479   0.50888   0.29622   0.00000  Uiso   1.00
C294   C     0.12931   0.61068   0.30172   0.00000  Uiso   1.00
C295   C     0.12223   0.66546   0.35085   0.00000  Uiso   1.00
C296   C     0.11229   0.73557   0.34009   0.00000  Uiso   1.00
C297   C     0.08792   0.47252   0.24977   0.00000  Uiso   1.00
C298   C     0.04602   0.41114   0.25523   0.00000  Uiso   1.00
C299   C     0.00121   0.36495   0.20072   0.00000  Uiso   1.00
H300   H     0.13336   0.56885   0.15175   0.00000  Uiso   1.00
H301   H     0.24655   0.55131   0.15817   0.00000  Uiso   1.00
H302   H     0.11447   0.70684   0.18826   0.00000  Uiso   1.00
H303   H     0.03827   0.45256   0.09265   0.00000  Uiso   1.00
H304   H     0.37326   0.52540   0.19080   0.00000  Uiso   1.00
H305   H     0.09475   0.85332   0.25425   0.00000  Uiso   1.00
H306   H     0.93406   0.31714   0.05264   0.00000  Uiso   1.00
H307   H     0.14274   0.51880   0.34831   0.00000  Uiso   1.00
H308   H     0.25645   0.49851   0.36551   0.00000  Uiso   1.00
H309   H     0.12437   0.65403   0.39561   0.00000  Uiso   1.00
H310   H     0.04817   0.39976   0.30000   0.00000  Uiso   1.00
H311   H     0.38130   0.48254   0.35909   0.00000  Uiso   1.00
H312   H     0.10278   0.81047   0.42254   0.00000  Uiso   1.00
H313   H     0.94210   0.27428   0.22093   0.00000  Uiso   1.00
O314   O     0.45192   0.49155   0.28272   0.00000  Uiso   1.00
O315   O     0.08650   0.92177   0.36597   0.00000  Uiso   1.00
O316   O     0.87570   0.21831   0.10145   0.00000  Uiso   1.00
N317   N     0.35955   0.51808   0.22804   0.00000  Uiso   1.00
N318   N     0.09916   0.82468   0.28737   0.00000  Uiso   1.00
N319   N     0.94892   0.32340   0.09888   0.00000  Uiso   1.00
N320   N     0.36387   0.49502   0.31860   0.00000  Uiso   1.00
N321   N     0.10348   0.80162   0.37792   0.00000  Uiso   1.00
N322   N     0.95325   0.30034   0.18943   0.00000  Uiso   1.00
C323   C     0.08379   0.08223   0.67158   0.00000  Uiso   1.00
C324   C     0.12427   0.16285   0.68246   0.00000  Uiso   1.00
C325   C     0.12029   0.23120   0.72144   0.00000  Uiso   1.00
C326   C     0.16150   0.29897   0.72502   0.00000  Uiso   1.00
C327   C     0.21775   0.42425   0.74714   0.00000  Uiso   1.00
C328   C     0.12949   0.03114   0.68787   0.00000  Uiso   1.00
C329   C     0.12988   0.98874   0.73137   0.00000  Uiso   1.00
C330   C     0.17548   0.94563   0.73949   0.00000  Uiso   1.00
C331   C     0.23979   0.86638   0.76997   0.00000  Uiso   1.00
C332   C     0.05263   0.05187   0.60129   0.00000  Uiso   1.00
C333   C     0.98840   0.02688   0.57199   0.00000  Uiso   1.00
C334   C     0.96930   0.00121   0.50722   0.00000  Uiso   1.00
C335   C     0.91429   0.95415   0.40326   0.00000  Uiso   1.00
C336   C     0.16407   0.08103   0.60864   0.00000  Uiso   1.00
C337   C     0.16788   0.16220   0.64827   0.00000  Uiso   1.00
C338   C     0.20911   0.22988   0.65179   0.00000  Uiso   1.00
C339   C     0.20519   0.29832   0.69076   0.00000  Uiso   1.00
C340   C     0.17309   0.03049   0.65368   0.00000  Uiso   1.00
C341   C     0.21870   0.98742   0.66173   0.00000  Uiso   1.00
C342   C     0.21917   0.94498   0.70524   0.00000  Uiso   1.00
C343   C     0.09624   0.05122   0.56709   0.00000  Uiso   1.00
C344   C     0.07723   0.02557   0.50235   0.00000  Uiso   1.00
C345   C     0.01299   0.00055   0.47297   0.00000  Uiso   1.00
H346   H     0.04984   0.08273   0.69820   0.00000  Uiso   1.00
H347   H     0.08654   0.23167   0.74789   0.00000  Uiso   1.00
H348   H     0.09612   0.98925   0.75782   0.00000  Uiso   1.00
H349   H     0.95467   0.02739   0.59847   0.00000  Uiso   1.00
H350   H     0.14647   0.39652   0.78792   0.00000  Uiso   1.00
H351   H     0.16667   0.88533   0.80884   0.00000  Uiso   1.00
H352   H     0.86839   0.96576   0.47281   0.00000  Uiso   1.00
H353   H     0.19803   0.08053   0.58202   0.00000  Uiso   1.00
H354   H     0.24286   0.22936   0.62533   0.00000  Uiso   1.00
H355   H     0.25244   0.98693   0.63526   0.00000  Uiso   1.00
H356   H     0.11099   0.02508   0.47591   0.00000  Uiso   1.00
H357   H     0.27334   0.39464   0.68845   0.00000  Uiso   1.00
H358   H     0.29354   0.88345   0.70937   0.00000  Uiso   1.00
H359   H     0.99527   0.96388   0.37334   0.00000  Uiso   1.00
O360   O     0.23673   0.49353   0.76879   0.00000  Uiso   1.00
O361   O     0.26323   0.82285   0.79623   0.00000  Uiso   1.00
O362   O     0.87190   0.92838   0.35537   0.00000  Uiso   1.00
N363   N     0.17017   0.37566   0.75856   0.00000  Uiso   1.00
N364   N     0.18906   0.89773   0.77812   0.00000  Uiso   1.00
N365   N     0.91020   0.97291   0.46397   0.00000  Uiso   1.00
N366   N     0.23844   0.37465   0.70503   0.00000  Uiso   1.00
N367   N     0.25733   0.89672   0.72460   0.00000  Uiso   1.00
N368   N     0.97847   0.97190   0.41044   0.00000  Uiso   1.00
C369   C     0.64568   0.17368   0.26542   0.00000  Uiso   1.00
C370   C     0.62033   0.24485   0.28693   0.00000  Uiso   1.00
C371   C     0.64804   0.30375   0.34199   0.00000  Uiso   1.00
C372   C     0.61751   0.36385   0.35316   0.00000  Uiso   1.00
C373   C     0.58670   0.47422   0.39300   0.00000  Uiso   1.00
C374   C     0.65273   0.17434   0.20116   0.00000  Uiso   1.00
C375   C     0.70768   0.17395   0.18411   0.00000  Uiso   1.00
C376   C     0.70442   0.17469   0.12308   0.00000  Uiso   1.00
C377   C     0.72391   0.17553   0.02974   0.00000  Uiso   1.00
C378   C     0.59307   0.10322   0.25466   0.00000  Uiso   1.00
C379   C     0.59787   0.04300   0.28258   0.00000  Uiso   1.00
C380   C     0.54438   0.98385   0.26658   0.00000  Uiso   1.00
C381   C     0.47124   0.87426   0.25632   0.00000  Uiso   1.00
C382   C     0.54219   0.17568   0.18735   0.00000  Uiso   1.00
C383   C     0.56411   0.24594   0.24452   0.00000  Uiso   1.00
C384   C     0.53353   0.30597   0.25562   0.00000  Uiso   1.00
C385   C     0.56119   0.36494   0.31068   0.00000  Uiso   1.00
C386   C     0.59652   0.17543   0.15876   0.00000  Uiso   1.00
C387   C     0.59317   0.17617   0.09773   0.00000  Uiso   1.00
C388   C     0.64810   0.17578   0.08059   0.00000  Uiso   1.00
C389   C     0.53686   0.10430   0.21226   0.00000  Uiso   1.00
C390   C     0.48336   0.04523   0.19621   0.00000  Uiso   1.00
C391   C     0.48806   0.98494   0.22410   0.00000  Uiso   1.00
H392   H     0.68945   0.17283   0.29843   0.00000  Uiso   1.00
H393   H     0.69155   0.30289   0.37479   0.00000  Uiso   1.00
H394   H     0.75117   0.17310   0.21693   0.00000  Uiso   1.00
H395   H     0.64138   0.04218   0.31539   0.00000  Uiso   1.00
H396   H     0.66909   0.44758   0.44074   0.00000  Uiso   1.00
H397   H     0.79481   0.17388   0.10788   0.00000  Uiso   1.00
H398   H     0.56328   0.89781   0.31550   0.00000  Uiso   1.00
H399   H     0.49842   0.17653   0.15433   0.00000  Uiso   1.00
H400   H     0.49003   0.30679   0.22279   0.00000  Uiso   1.00
H401   H     0.54966   0.17700   0.06493   0.00000  Uiso   1.00
H402   H     0.43986   0.04609   0.16339   0.00000  Uiso   1.00
H403   H     0.50553   0.45075   0.31737   0.00000  Uiso   1.00
H404   H     0.63126   0.17705   0.98451   0.00000  Uiso   1.00
H405   H     0.39972   0.90098   0.19213   0.00000  Uiso   1.00
O406   O     0.58525   0.53480   0.42668   0.00000  Uiso   1.00
O407   O     0.75019   0.17571   0.98998   0.00000  Uiso   1.00
O408   O     0.44643   0.81352   0.26238   0.00000  Uiso   1.00
N409   N     0.63174   0.43044   0.40232   0.00000  Uiso   1.00
N410   N     0.74929   0.17456   0.09111   0.00000  Uiso   1.00
N411   N     0.53283   0.91645   0.28521   0.00000  Uiso   1.00
N412   N     0.54373   0.43215   0.33593   0.00000  Uiso   1.00
N413   N     0.66128   0.17627   0.02473   0.00000  Uiso   1.00
N414   N     0.44482   0.91816   0.21883   0.00000  Uiso   1.00
C415   C     0.68524   0.58331   0.21727   0.00000  Uiso   1.00
C416   C     0.73211   0.65345   0.21620   0.00000  Uiso   1.00
C417   C     0.79649   0.67166   0.24490   0.00000  Uiso   1.00
C418   C     0.83126   0.73835   0.23846   0.00000  Uiso   1.00
C419   C     0.90838   0.84017   0.24198   0.00000  Uiso   1.00
C420   C     0.63604   0.61584   0.24367   0.00000  Uiso   1.00
C421   C     0.61965   0.60241   0.29547   0.00000  Uiso   1.00
C422   C     0.57355   0.63744   0.31215   0.00000  Uiso   1.00
C423   C     0.50149   0.68081   0.35830   0.00000  Uiso   1.00
C424   C     0.65143   0.53964   0.14913   0.00000  Uiso   1.00
C425   C     0.64797   0.46213   0.12143   0.00000  Uiso   1.00
C426   C     0.61481   0.43300   0.05851   0.00000  Uiso   1.00
C427   C     0.56665   0.35806   0.95787   0.00000  Uiso   1.00
C428   C     0.63250   0.66938   0.15479   0.00000  Uiso   1.00
C429   C     0.70346   0.70020   0.18226   0.00000  Uiso   1.00
C430   C     0.73814   0.76688   0.17577   0.00000  Uiso   1.00
C431   C     0.80256   0.78518   0.20445   0.00000  Uiso   1.00
C432   C     0.60739   0.66258   0.20974   0.00000  Uiso   1.00
C433   C     0.56130   0.69764   0.22634   0.00000  Uiso   1.00
C434   C     0.54484   0.68427   0.27815   0.00000  Uiso   1.00
C435   C     0.62278   0.58638   0.11519   0.00000  Uiso   1.00
C436   C     0.58962   0.55736   0.05230   0.00000  Uiso   1.00
C437   C     0.58611   0.47983   0.02451   0.00000  Uiso   1.00
H438   H     0.70755   0.54692   0.24370   0.00000  Uiso   1.00
H439   H     0.81865   0.63547   0.27117   0.00000  Uiso   1.00
H440   H     0.64183   0.56623   0.32172   0.00000  Uiso   1.00
H441   H     0.67015   0.42598   0.14771   0.00000  Uiso   1.00
H442   H     0.92918   0.75428   0.28667   0.00000  Uiso   1.00
H443   H     0.55634   0.60826   0.39326   0.00000  Uiso   1.00
H444   H     0.61605   0.31250   0.02633   0.00000  Uiso   1.00
H445   H     0.61019   0.70577   0.12836   0.00000  Uiso   1.00
H446   H     0.71595   0.80305   0.14950   0.00000  Uiso   1.00
H447   H     0.53913   0.73380   0.20006   0.00000  Uiso   1.00
H448   H     0.56745   0.59355   0.02605   0.00000  Uiso   1.00
H449   H     0.84583   0.89029   0.18793   0.00000  Uiso   1.00
H450   H     0.47299   0.74427   0.29452   0.00000  Uiso   1.00
H451   H     0.53270   0.44851   0.92758   0.00000  Uiso   1.00
O452   O     0.95883   0.88342   0.25331   0.00000  Uiso   1.00
O453   O     0.46967   0.69183   0.39314   0.00000  Uiso   1.00
O454   O     0.54801   0.30381   0.91173   0.00000  Uiso   1.00
N455   N     0.89505   0.77293   0.26052   0.00000  Uiso   1.00
N456   N     0.54647   0.63642   0.36018   0.00000  Uiso   1.00
N457   N     0.60228   0.35991   0.01713   0.00000  Uiso   1.00
N458   N     0.85020   0.84612   0.20739   0.00000  Uiso   1.00
N459   N     0.50162   0.70961   0.30705   0.00000  Uiso   1.00
N460   N     0.55743   0.43309   0.96400   0.00000  Uiso   1.00
C461   C     0.66384   0.01056   0.76073   0.00000  Uiso   1.00
C462   C     0.70223   0.99021   0.81717   0.00000  Uiso   1.00
C463   C     0.73165   0.04135   0.87592   0.00000  Uiso   1.00
C464   C     0.76451   0.01143   0.92132   0.00000  Uiso   1.00
C465   C     0.82364   0.99174   0.01092   0.00000  Uiso   1.00
C466   C     0.69413   0.98758   0.70893   0.00000  Uiso   1.00
C467   C     0.71674   0.03650   0.67667   0.00000  Uiso   1.00
C468   C     0.74278   0.00435   0.63094   0.00000  Uiso   1.00
C469   C     0.78929   0.98056   0.55246   0.00000  Uiso   1.00
C470   C     0.59930   0.95516   0.73975   0.00000  Uiso   1.00
C471   C     0.54218   0.97682   0.73338   0.00000  Uiso   1.00
C472   C     0.48838   0.91738   0.71358   0.00000  Uiso   1.00
C473   C     0.38766   0.84325   0.68295   0.00000  Uiso   1.00
C474   C     0.66986   0.86647   0.73688   0.00000  Uiso   1.00
C475   C     0.70550   0.91195   0.80422   0.00000  Uiso   1.00
C476   C     0.73832   0.88193   0.84954   0.00000  Uiso   1.00
C477   C     0.76779   0.93302   0.90834   0.00000  Uiso   1.00
C478   C     0.69740   0.90931   0.69598   0.00000  Uiso   1.00
C479   C     0.72340   0.87708   0.65028   0.00000  Uiso   1.00
C480   C     0.74605   0.92595   0.61796   0.00000  Uiso   1.00
C481   C     0.60257   0.87689   0.72680   0.00000  Uiso   1.00
C482   C     0.54885   0.81740   0.70700   0.00000  Uiso   1.00
C483   C     0.49165   0.83897   0.70060   0.00000  Uiso   1.00
H484   H     0.66130   0.07150   0.77081   0.00000  Uiso   1.00
H485   H     0.72912   0.10192   0.88593   0.00000  Uiso   1.00
H486   H     0.71420   0.09706   0.68670   0.00000  Uiso   1.00
H487   H     0.53967   0.03739   0.74340   0.00000  Uiso   1.00
H488   H     0.80577   0.10114   0.00783   0.00000  Uiso   1.00
H489   H     0.77429   0.09090   0.58773   0.00000  Uiso   1.00
H490   H     0.40626   0.96508   0.70731   0.00000  Uiso   1.00
H491   H     0.67241   0.80553   0.72680   0.00000  Uiso   1.00
H492   H     0.74084   0.82136   0.83950   0.00000  Uiso   1.00
H493   H     0.72592   0.81651   0.64027   0.00000  Uiso   1.00
H494   H     0.55139   0.75684   0.69698   0.00000  Uiso   1.00
H495   H     0.81529   0.87344   0.97015   0.00000  Uiso   1.00
H496   H     0.78381   0.86319   0.55004   0.00000  Uiso   1.00
H497   H     0.41578   0.73737   0.66962   0.00000  Uiso   1.00
O498   O     0.85536   0.00251   0.06392   0.00000  Uiso   1.00
O499   O     0.81405   0.98907   0.51275   0.00000  Uiso   1.00
O500   O     0.33121   0.82399   0.66964   0.00000  Uiso   1.00
N501   N     0.79861   0.04538   0.98350   0.00000  Uiso   1.00
N502   N     0.76919   0.03580   0.59074   0.00000  Uiso   1.00
N503   N     0.42511   0.91817   0.70251   0.00000  Uiso   1.00
N504   N     0.80373   0.92285   0.96322   0.00000  Uiso   1.00
N505   N     0.77431   0.91327   0.57046   0.00000  Uiso   1.00
N506   N     0.43023   0.79564   0.68224   0.00000  Uiso   1.00
C507   C     0.07133   0.65956   0.83275   0.00000  Uiso   1.00
C508   C     0.01050   0.66605   0.84933   0.00000  Uiso   1.00
C509   C     0.99722   0.73392   0.87961   0.00000  Uiso   1.00
C510   C     0.93892   0.72769   0.89052   0.00000  Uiso   1.00
C511   C     0.85109   0.74866   0.91914   0.00000  Uiso   1.00
C512   C     0.09665   0.59951   0.86288   0.00000  Uiso   1.00
C513   C     0.15582   0.61144   0.90454   0.00000  Uiso   1.00
C514   C     0.17003   0.54919   0.92685   0.00000  Uiso   1.00
C515   C     0.21597   0.46683   0.97647   0.00000  Uiso   1.00
C516   C     0.05205   0.62280   0.76242   0.00000  Uiso   1.00
C517   C     0.07373   0.65430   0.71961   0.00000  Uiso   1.00
C518   C     0.05041   0.61165   0.65734   0.00000  Uiso   1.00
C519   C     0.02709   0.56546   0.55098   0.00000  Uiso   1.00
C520   C     0.99138   0.52779   0.79827   0.00000  Uiso   1.00
C521   C     0.96707   0.59448   0.83060   0.00000  Uiso   1.00
C522   C     0.90877   0.58814   0.84146   0.00000  Uiso   1.00
C523   C     0.89541   0.65599   0.87175   0.00000  Uiso   1.00
C524   C     0.05323   0.52794   0.84415   0.00000  Uiso   1.00
C525   C     0.06736   0.46565   0.86640   0.00000  Uiso   1.00
C526   C     0.12653   0.47748   0.90809   0.00000  Uiso   1.00
C527   C     0.00862   0.55123   0.74369   0.00000  Uiso   1.00
C528   C     0.98527   0.50852   0.68147   0.00000  Uiso   1.00
C529   C     0.00690   0.53995   0.63858   0.00000  Uiso   1.00
H530   H     0.10514   0.71528   0.84733   0.00000  Uiso   1.00
H531   H     0.03085   0.78930   0.89410   0.00000  Uiso   1.00
H532   H     0.18941   0.66683   0.91902   0.00000  Uiso   1.00
H533   H     0.10733   0.70969   0.73412   0.00000  Uiso   1.00
H534   H     0.92934   0.83981   0.93771   0.00000  Uiso   1.00
H535   H     0.26369   0.58156   0.99025   0.00000  Uiso   1.00
H536   H     0.09061   0.67194   0.60035   0.00000  Uiso   1.00
H537   H     0.95757   0.47206   0.78369   0.00000  Uiso   1.00
H538   H     0.87518   0.53274   0.82697   0.00000  Uiso   1.00
H539   H     0.03375   0.41027   0.85189   0.00000  Uiso   1.00
H540   H     0.95167   0.45313   0.66699   0.00000  Uiso   1.00
H541   H     0.80299   0.63157   0.88323   0.00000  Uiso   1.00
H542   H     0.13735   0.37333   0.93576   0.00000  Uiso   1.00
H543   H     0.96427   0.46370   0.54586   0.00000  Uiso   1.00
O544   O     0.81464   0.77999   0.94011   0.00000  Uiso   1.00
O545   O     0.25330   0.44119   0.00902   0.00000  Uiso   1.00
O546   O     0.02622   0.55975   0.49748   0.00000  Uiso   1.00
N547   N     0.91091   0.78247   0.91894   0.00000  Uiso   1.00
N548   N     0.22350   0.54104   0.96807   0.00000  Uiso   1.00
N549   N     0.06170   0.62552   0.60354   0.00000  Uiso   1.00
N550   N     0.84292   0.67042   0.88962   0.00000  Uiso   1.00
N551   N     0.15552   0.42899   0.93875   0.00000  Uiso   1.00
N552   N     0.99372   0.51347   0.57423   0.00000  Uiso   1.00
