data_job_06089
_audit_creation_date              2018-12-19
_audit_creation_method            'Materials Studio'
_symmetry_space_group_name_H-M    'P1'
_symmetry_Int_Tables_number       1
_symmetry_cell_setting            triclinic
loop_
_symmetry_equiv_pos_as_xyz
  x,y,z
_cell_length_a                    8.5137
_cell_length_b                    21.8331
_cell_length_c                    22.6511
_cell_angle_alpha                 117.9690
_cell_angle_beta                  81.8345
_cell_angle_gamma                 89.6470
loop_
_atom_site_label
_atom_site_type_symbol
_atom_site_fract_x
_atom_site_fract_y
_atom_site_fract_z
_atom_site_U_iso_or_equiv
_atom_site_adp_type
_atom_site_occupancy
C1     C     0.50164   0.99489   0.33024   0.00000  Uiso   1.00
C2     C     0.38588   0.94037   0.29798   0.00000  Uiso   1.00
C3     C     0.41727   0.86893   0.27006   0.00000  Uiso   1.00
C4     C     0.29570   0.82783   0.24303   0.00000  Uiso   1.00
C5     C     0.13842   0.73870   0.19277   0.00000  Uiso   1.00
C6     C     0.51533   0.03700   0.29206   0.00000  Uiso   1.00
C7     C     0.65557   0.04681   0.25919   0.00000  Uiso   1.00
C8     C     0.64295   0.08707   0.22719   0.00000  Uiso   1.00
C9     C     0.68666   0.14801   0.16778   0.00000  Uiso   1.00
C10    C     0.41750   0.04433   0.40180   0.00000  Uiso   1.00
C11    C     0.47550   0.06033   0.46120   0.00000  Uiso   1.00
C12    C     0.38053   0.10677   0.52159   0.00000  Uiso   1.00
C13    C     0.27235   0.17910   0.63258   0.00000  Uiso   1.00
C14    C     0.22989   0.04893   0.33187   0.00000  Uiso   1.00
C15    C     0.23828   0.96973   0.29886   0.00000  Uiso   1.00
C16    C     0.11661   0.92872   0.27187   0.00000  Uiso   1.00
C17    C     0.14782   0.85723   0.24392   0.00000  Uiso   1.00
C18    C     0.36773   0.06635   0.29295   0.00000  Uiso   1.00
C19    C     0.35490   0.10661   0.26099   0.00000  Uiso   1.00
C20    C     0.49508   0.11647   0.22808   0.00000  Uiso   1.00
C21    C     0.26989   0.07369   0.40269   0.00000  Uiso   1.00
C22    C     0.17483   0.12012   0.46300   0.00000  Uiso   1.00
C23    C     0.23266   0.13618   0.52248   0.00000  Uiso   1.00
H24    H     0.61656   0.97204   0.32955   0.00000  Uiso   1.00
H25    H     0.53153   0.84623   0.26938   0.00000  Uiso   1.00
H26    H     0.76977   0.02409   0.25852   0.00000  Uiso   1.00
H27    H     0.58973   0.03760   0.46050   0.00000  Uiso   1.00
H28    H     0.37217   0.71969   0.20304   0.00000  Uiso   1.00
H29    H     0.87454   0.09475   0.18015   0.00000  Uiso   1.00
H30    H     0.49488   0.12324   0.60606   0.00000  Uiso   1.00
H31    H     0.11497   0.07179   0.33256   0.00000  Uiso   1.00
H32    H     0.00240   0.95145   0.27256   0.00000  Uiso   1.00
H33    H     0.24066   0.12932   0.26169   0.00000  Uiso   1.00
H34    H     0.06061   0.14283   0.46367   0.00000  Uiso   1.00
H35    H     0.94272   0.80510   0.20562   0.00000  Uiso   1.00
H36    H     0.44509   0.18016   0.18273   0.00000  Uiso   1.00
H37    H     0.06543   0.20864   0.60864   0.00000  Uiso   1.00
O38    O     0.09246   0.68143   0.16479   0.00000  Uiso   1.00
O39    O     0.75156   0.17350   0.13476   0.00000  Uiso   1.00
O40    O     0.25345   0.21088   0.69355   0.00000  Uiso   1.00
N41    N     0.28654   0.75631   0.21190   0.00000  Uiso   1.00
N42    N     0.75622   0.10696   0.19048   0.00000  Uiso   1.00
N43    N     0.40129   0.13361   0.58867   0.00000  Uiso   1.00
N44    N     0.05545   0.80226   0.21328   0.00000  Uiso   1.00
N45    N     0.52513   0.15291   0.19187   0.00000  Uiso   1.00
N46    N     0.17020   0.17956   0.59006   0.00000  Uiso   1.00
C47    C     0.83290   0.68039   0.66406   0.00000  Uiso   1.00
C48    C     0.69090   0.70539   0.64452   0.00000  Uiso   1.00
C49    C     0.69899   0.73602   0.60270   0.00000  Uiso   1.00
C50    C     0.55555   0.75528   0.59102   0.00000  Uiso   1.00
C51    C     0.35730   0.79580   0.55628   0.00000  Uiso   1.00
C52    C     0.80826   0.71811   0.74130   0.00000  Uiso   1.00
C53    C     0.91503   0.75944   0.78085   0.00000  Uiso   1.00
C54    C     0.87039   0.78939   0.85064   0.00000  Uiso   1.00
C55    C     0.85440   0.84962   0.96615   0.00000  Uiso   1.00
C56    C     0.81511   0.60377   0.64311   0.00000  Uiso   1.00
C57    C     0.92765   0.54897   0.60011   0.00000  Uiso   1.00
C58    C     0.88878   0.48266   0.58724   0.00000  Uiso   1.00
C59    C     0.88342   0.36537   0.55029   0.00000  Uiso   1.00
C60    C     0.56379   0.66009   0.71768   0.00000  Uiso   1.00
C61    C     0.54474   0.69436   0.67364   0.00000  Uiso   1.00
C62    C     0.40125   0.71357   0.66202   0.00000  Uiso   1.00
C63    C     0.40912   0.74423   0.62019   0.00000  Uiso   1.00
C64    C     0.66210   0.70708   0.77042   0.00000  Uiso   1.00
C65    C     0.61729   0.73698   0.84017   0.00000  Uiso   1.00
C66    C     0.72396   0.77834   0.87982   0.00000  Uiso   1.00
C67    C     0.66894   0.59275   0.67223   0.00000  Uiso   1.00
C68    C     0.62990   0.52651   0.65943   0.00000  Uiso   1.00
C69    C     0.74235   0.47161   0.61642   0.00000  Uiso   1.00
H70    H     0.94670   0.68898   0.64139   0.00000  Uiso   1.00
H71    H     0.81213   0.74456   0.58018   0.00000  Uiso   1.00
H72    H     0.02814   0.76795   0.75830   0.00000  Uiso   1.00
H73    H     0.04074   0.55752   0.57758   0.00000  Uiso   1.00
H74    H     0.59847   0.80134   0.52518   0.00000  Uiso   1.00
H75    H     0.05397   0.85065   0.90075   0.00000  Uiso   1.00
H76    H     0.08056   0.40691   0.51968   0.00000  Uiso   1.00
H77    H     0.44999   0.65151   0.74035   0.00000  Uiso   1.00
H78    H     0.28815   0.70503   0.68457   0.00000  Uiso   1.00
H79    H     0.50417   0.72843   0.86269   0.00000  Uiso   1.00
H80    H     0.51678   0.51800   0.68198   0.00000  Uiso   1.00
H81    H     0.17319   0.76926   0.60991   0.00000  Uiso   1.00
H82    H     0.62870   0.81857   0.98548   0.00000  Uiso   1.00
H83    H     0.65528   0.37483   0.60441   0.00000  Uiso   1.00
O84    O     0.28834   0.82120   0.52908   0.00000  Uiso   1.00
O85    O     0.88596   0.88589   0.02182   0.00000  Uiso   1.00
O86    O     0.92082   0.30372   0.52186   0.00000  Uiso   1.00
N87    N     0.52059   0.78643   0.55276   0.00000  Uiso   1.00
N88    N     0.94645   0.83255   0.90390   0.00000  Uiso   1.00
N89    N     0.97132   0.41769   0.54765   0.00000  Uiso   1.00
N90    N     0.29175   0.76917   0.59835   0.00000  Uiso   1.00
N91    N     0.71761   0.81528   0.94950   0.00000  Uiso   1.00
N92    N     0.74248   0.40043   0.59324   0.00000  Uiso   1.00
C93    C     0.49475   0.34273   0.01210   0.00000  Uiso   1.00
C94    C     0.33503   0.35220   0.05678   0.00000  Uiso   1.00
C95    C     0.30199   0.39331   0.12662   0.00000  Uiso   1.00
C96    C     0.14856   0.39507   0.15819   0.00000  Uiso   1.00
C97    C     0.91824   0.41554   0.23321   0.00000  Uiso   1.00
C98    C     0.54159   0.26462   0.97365   0.00000  Uiso   1.00
C99    C     0.68224   0.23210   0.97359   0.00000  Uiso   1.00
C100   C     0.70268   0.16013   0.93517   0.00000  Uiso   1.00
C101   C     0.79310   0.04463   0.88108   0.00000  Uiso   1.00
C102   C     0.46115   0.36339   0.95918   0.00000  Uiso   1.00
C103   C     0.53419   0.41390   0.94693   0.00000  Uiso   1.00
C104   C     0.48694   0.42507   0.89631   0.00000  Uiso   1.00
C105   C     0.45247   0.46292   0.81976   0.00000  Uiso   1.00
C106   C     0.28100   0.27274   0.94397   0.00000  Uiso   1.00
C107   C     0.21893   0.31419   0.01978   0.00000  Uiso   1.00
C108   C     0.06550   0.31589   0.05125   0.00000  Uiso   1.00
C109   C     0.03224   0.35699   0.12112   0.00000  Uiso   1.00
C110   C     0.42549   0.22661   0.93665   0.00000  Uiso   1.00
C111   C     0.44574   0.15467   0.89822   0.00000  Uiso   1.00
C112   C     0.58638   0.12204   0.89810   0.00000  Uiso   1.00
C113   C     0.34504   0.32538   0.92218   0.00000  Uiso   1.00
C114   C     0.29769   0.33647   0.87156   0.00000  Uiso   1.00
C115   C     0.37064   0.38699   0.85925   0.00000  Uiso   1.00
H116   H     0.58514   0.37232   0.04090   0.00000  Uiso   1.00
H117   H     0.39188   0.42272   0.15524   0.00000  Uiso   1.00
H118   H     0.77206   0.26153   0.00222   0.00000  Uiso   1.00
H119   H     0.62403   0.44330   0.97557   0.00000  Uiso   1.00
H120   H     0.12643   0.46182   0.26569   0.00000  Uiso   1.00
H121   H     0.92809   0.12194   0.94302   0.00000  Uiso   1.00
H122   H     0.61595   0.50524   0.88683   0.00000  Uiso   1.00
H123   H     0.19061   0.24314   0.91516   0.00000  Uiso   1.00
H124   H     0.97568   0.28646   0.02260   0.00000  Uiso   1.00
H125   H     0.35588   0.12527   0.86958   0.00000  Uiso   1.00
H126   H     0.20784   0.30704   0.84294   0.00000  Uiso   1.00
H127   H     0.78863   0.35122   0.15803   0.00000  Uiso   1.00
H128   H     0.59030   0.01134   0.83537   0.00000  Uiso   1.00
H129   H     0.27815   0.39465   0.77918   0.00000  Uiso   1.00
O130   O     0.82328   0.43732   0.28481   0.00000  Uiso   1.00
O131   O     0.87505   0.99142   0.86147   0.00000  Uiso   1.00
O132   O     0.46551   0.49431   0.78776   0.00000  Uiso   1.00
N133   N     0.07641   0.42985   0.22560   0.00000  Uiso   1.00
N134   N     0.82591   0.11209   0.92394   0.00000  Uiso   1.00
N135   N     0.53411   0.47043   0.87139   0.00000  Uiso   1.00
N136   N     0.89464   0.37035   0.16768   0.00000  Uiso   1.00
N137   N     0.64415   0.05258   0.86601   0.00000  Uiso   1.00
N138   N     0.35234   0.41092   0.81347   0.00000  Uiso   1.00
C139   C     0.49836   0.00511   0.66976   0.00000  Uiso   1.00
C140   C     0.61412   0.05963   0.70202   0.00000  Uiso   1.00
C141   C     0.58273   0.13107   0.72994   0.00000  Uiso   1.00
C142   C     0.70430   0.17218   0.75697   0.00000  Uiso   1.00
C143   C     0.86158   0.26130   0.80723   0.00000  Uiso   1.00
C144   C     0.48467   0.96300   0.70794   0.00000  Uiso   1.00
C145   C     0.34443   0.95319   0.74081   0.00000  Uiso   1.00
C146   C     0.35705   0.91293   0.77281   0.00000  Uiso   1.00
C147   C     0.31334   0.85199   0.83222   0.00000  Uiso   1.00
C148   C     0.58250   0.95567   0.59820   0.00000  Uiso   1.00
C149   C     0.52450   0.93967   0.53880   0.00000  Uiso   1.00
C150   C     0.61947   0.89323   0.47841   0.00000  Uiso   1.00
C151   C     0.72765   0.82090   0.36742   0.00000  Uiso   1.00
C152   C     0.77011   0.95107   0.66813   0.00000  Uiso   1.00
C153   C     0.76172   0.03027   0.70114   0.00000  Uiso   1.00
C154   C     0.88339   0.07128   0.72813   0.00000  Uiso   1.00
C155   C     0.85218   0.14277   0.75608   0.00000  Uiso   1.00
C156   C     0.63227   0.93365   0.70705   0.00000  Uiso   1.00
C157   C     0.64510   0.89339   0.73901   0.00000  Uiso   1.00
C158   C     0.50492   0.88353   0.77192   0.00000  Uiso   1.00
C159   C     0.73011   0.92631   0.59731   0.00000  Uiso   1.00
C160   C     0.82517   0.87988   0.53700   0.00000  Uiso   1.00
C161   C     0.76734   0.86382   0.47752   0.00000  Uiso   1.00
H162   H     0.38344   0.02796   0.67045   0.00000  Uiso   1.00
H163   H     0.46847   0.15377   0.73062   0.00000  Uiso   1.00
H164   H     0.23023   0.97591   0.74148   0.00000  Uiso   1.00
H165   H     0.41027   0.96240   0.53950   0.00000  Uiso   1.00
H166   H     0.62783   0.28031   0.79696   0.00000  Uiso   1.00
H167   H     0.12546   0.90525   0.81985   0.00000  Uiso   1.00
H168   H     0.50512   0.87676   0.39394   0.00000  Uiso   1.00
H169   H     0.88503   0.92821   0.66744   0.00000  Uiso   1.00
H170   H     0.99760   0.04855   0.72744   0.00000  Uiso   1.00
H171   H     0.75934   0.87068   0.73831   0.00000  Uiso   1.00
H172   H     0.93939   0.85717   0.53633   0.00000  Uiso   1.00
H173   H     0.05728   0.19491   0.79438   0.00000  Uiso   1.00
H174   H     0.55491   0.81984   0.81727   0.00000  Uiso   1.00
H175   H     0.93457   0.79136   0.39136   0.00000  Uiso   1.00
O176   O     0.90754   0.31857   0.83521   0.00000  Uiso   1.00
O177   O     0.24844   0.82650   0.86524   0.00000  Uiso   1.00
O178   O     0.74655   0.78912   0.30645   0.00000  Uiso   1.00
N179   N     0.71346   0.24369   0.78810   0.00000  Uiso   1.00
N180   N     0.24378   0.89304   0.80952   0.00000  Uiso   1.00
N181   N     0.59871   0.86639   0.41133   0.00000  Uiso   1.00
N182   N     0.94455   0.19774   0.78672   0.00000  Uiso   1.00
N183   N     0.47487   0.84709   0.80813   0.00000  Uiso   1.00
N184   N     0.82980   0.82044   0.40994   0.00000  Uiso   1.00
C185   C     0.16710   0.31961   0.33594   0.00000  Uiso   1.00
C186   C     0.30910   0.29462   0.35548   0.00000  Uiso   1.00
C187   C     0.30101   0.26398   0.39730   0.00000  Uiso   1.00
C188   C     0.44445   0.24472   0.40898   0.00000  Uiso   1.00
C189   C     0.64270   0.20420   0.44372   0.00000  Uiso   1.00
C190   C     0.19174   0.28189   0.25870   0.00000  Uiso   1.00
C191   C     0.08497   0.24056   0.21915   0.00000  Uiso   1.00
C192   C     0.12961   0.21061   0.14936   0.00000  Uiso   1.00
C193   C     0.14560   0.15038   0.03385   0.00000  Uiso   1.00
C194   C     0.18489   0.39623   0.35689   0.00000  Uiso   1.00
C195   C     0.07235   0.45103   0.39989   0.00000  Uiso   1.00
C196   C     0.11122   0.51734   0.41276   0.00000  Uiso   1.00
C197   C     0.11658   0.63463   0.44971   0.00000  Uiso   1.00
C198   C     0.43621   0.33991   0.28232   0.00000  Uiso   1.00
C199   C     0.45526   0.30564   0.32636   0.00000  Uiso   1.00
C200   C     0.59875   0.28643   0.33798   0.00000  Uiso   1.00
C201   C     0.59088   0.25577   0.37981   0.00000  Uiso   1.00
C202   C     0.33790   0.29292   0.22958   0.00000  Uiso   1.00
C203   C     0.38271   0.26302   0.15983   0.00000  Uiso   1.00
C204   C     0.27604   0.22166   0.12018   0.00000  Uiso   1.00
C205   C     0.33106   0.40725   0.32777   0.00000  Uiso   1.00
C206   C     0.37010   0.47349   0.34057   0.00000  Uiso   1.00
C207   C     0.25765   0.52839   0.38358   0.00000  Uiso   1.00
H208   H     0.05330   0.31102   0.35861   0.00000  Uiso   1.00
H209   H     0.18787   0.25544   0.41982   0.00000  Uiso   1.00
H210   H     0.97186   0.23205   0.24170   0.00000  Uiso   1.00
H211   H     0.95926   0.44248   0.42242   0.00000  Uiso   1.00
H212   H     0.40153   0.19867   0.47482   0.00000  Uiso   1.00
H213   H     0.94603   0.14935   0.09925   0.00000  Uiso   1.00
H214   H     0.91944   0.59309   0.48032   0.00000  Uiso   1.00
H215   H     0.55001   0.34849   0.25965   0.00000  Uiso   1.00
H216   H     0.71185   0.29497   0.31543   0.00000  Uiso   1.00
H217   H     0.49583   0.27157   0.13731   0.00000  Uiso   1.00
H218   H     0.48322   0.48201   0.31802   0.00000  Uiso   1.00
H219   H     0.82681   0.23074   0.39009   0.00000  Uiso   1.00
H220   H     0.37130   0.18143   0.01452   0.00000  Uiso   1.00
H221   H     0.34472   0.62517   0.39559   0.00000  Uiso   1.00
O222   O     0.71166   0.17880   0.47092   0.00000  Uiso   1.00
O223   O     0.11404   0.11411   0.97818   0.00000  Uiso   1.00
O224   O     0.07918   0.69628   0.47814   0.00000  Uiso   1.00
N225   N     0.47941   0.21357   0.44724   0.00000  Uiso   1.00
N226   N     0.05355   0.16746   0.09610   0.00000  Uiso   1.00
N227   N     0.02868   0.58231   0.45235   0.00000  Uiso   1.00
N228   N     0.70825   0.23084   0.40165   0.00000  Uiso   1.00
N229   N     0.28239   0.18472   0.05050   0.00000  Uiso   1.00
N230   N     0.25752   0.59958   0.40676   0.00000  Uiso   1.00
C231   C     0.50525   0.65727   0.98790   0.00000  Uiso   1.00
C232   C     0.66497   0.64780   0.94322   0.00000  Uiso   1.00
C233   C     0.69801   0.60669   0.87338   0.00000  Uiso   1.00
C234   C     0.85144   0.60493   0.84181   0.00000  Uiso   1.00
C235   C     0.08176   0.58446   0.76679   0.00000  Uiso   1.00
C236   C     0.45841   0.73538   0.02635   0.00000  Uiso   1.00
C237   C     0.31776   0.76790   0.02641   0.00000  Uiso   1.00
C238   C     0.29732   0.83987   0.06483   0.00000  Uiso   1.00
C239   C     0.20690   0.95537   0.11892   0.00000  Uiso   1.00
C240   C     0.53885   0.63661   0.04082   0.00000  Uiso   1.00
C241   C     0.46581   0.58610   0.05307   0.00000  Uiso   1.00
C242   C     0.51306   0.57493   0.10369   0.00000  Uiso   1.00
C243   C     0.54753   0.53708   0.18024   0.00000  Uiso   1.00
C244   C     0.71900   0.72726   0.05603   0.00000  Uiso   1.00
C245   C     0.78107   0.68581   0.98022   0.00000  Uiso   1.00
C246   C     0.93450   0.68412   0.94875   0.00000  Uiso   1.00
C247   C     0.96776   0.64301   0.87888   0.00000  Uiso   1.00
C248   C     0.57451   0.77339   0.06335   0.00000  Uiso   1.00
C249   C     0.55426   0.84533   0.10178   0.00000  Uiso   1.00
C250   C     0.41362   0.87796   0.10190   0.00000  Uiso   1.00
C251   C     0.65496   0.67462   0.07782   0.00000  Uiso   1.00
C252   C     0.70231   0.66353   0.12844   0.00000  Uiso   1.00
C253   C     0.62936   0.61301   0.14075   0.00000  Uiso   1.00
H254   H     0.41486   0.62768   0.95910   0.00000  Uiso   1.00
H255   H     0.60812   0.57728   0.84476   0.00000  Uiso   1.00
H256   H     0.22794   0.73847   0.99778   0.00000  Uiso   1.00
H257   H     0.37597   0.55670   0.02443   0.00000  Uiso   1.00
H258   H     0.87357   0.53818   0.73431   0.00000  Uiso   1.00
H259   H     0.07191   0.87806   0.05698   0.00000  Uiso   1.00
H260   H     0.38405   0.49476   0.11317   0.00000  Uiso   1.00
H261   H     0.80939   0.75686   0.08484   0.00000  Uiso   1.00
H262   H     0.02432   0.71354   0.97740   0.00000  Uiso   1.00
H263   H     0.64413   0.87473   0.13042   0.00000  Uiso   1.00
H264   H     0.79216   0.69296   0.15706   0.00000  Uiso   1.00
H265   H     0.21137   0.64878   0.84197   0.00000  Uiso   1.00
H266   H     0.40970   0.98866   0.16463   0.00000  Uiso   1.00
H267   H     0.72185   0.60535   0.22082   0.00000  Uiso   1.00
O268   O     0.17672   0.56268   0.71519   0.00000  Uiso   1.00
O269   O     0.12495   0.00858   0.13853   0.00000  Uiso   1.00
O270   O     0.53449   0.50569   0.21224   0.00000  Uiso   1.00
N271   N     0.92359   0.57015   0.77440   0.00000  Uiso   1.00
N272   N     0.17409   0.88791   0.07606   0.00000  Uiso   1.00
N273   N     0.46589   0.52957   0.12861   0.00000  Uiso   1.00
N274   N     0.10536   0.62966   0.83232   0.00000  Uiso   1.00
N275   N     0.35585   0.94742   0.13399   0.00000  Uiso   1.00
N276   N     0.64766   0.58908   0.18653   0.00000  Uiso   1.00
