data_job_02704
_audit_creation_date              2018-12-19
_audit_creation_method            'Materials Studio'
_symmetry_space_group_name_H-M    'P1'
_symmetry_Int_Tables_number       1
_symmetry_cell_setting            triclinic
loop_
_symmetry_equiv_pos_as_xyz
  x,y,z
_cell_length_a                    13.3431
_cell_length_b                    13.3431
_cell_length_c                    15.4871
_cell_angle_alpha                 90.0000
_cell_angle_beta                  90.0000
_cell_angle_gamma                 90.0000
loop_
_atom_site_label
_atom_site_type_symbol
_atom_site_fract_x
_atom_site_fract_y
_atom_site_fract_z
_atom_site_U_iso_or_equiv
_atom_site_adp_type
_atom_site_occupancy
C1     C     0.68958   0.81678   0.28323   0.00000  Uiso   1.00
C2     C     0.61227   0.81739   0.21071   0.00000  Uiso   1.00
C3     C     0.60251   0.74500   0.14692   0.00000  Uiso   1.00
C4     C     0.52708   0.75919   0.08639   0.00000  Uiso   1.00
C5     C     0.41671   0.74744   0.97327   0.00000  Uiso   1.00
C6     C     0.74637   0.91559   0.27584   0.00000  Uiso   1.00
C7     C     0.84935   0.92575   0.26682   0.00000  Uiso   1.00
C8     C     0.88680   0.02261   0.26112   0.00000  Uiso   1.00
C9     C     0.98463   0.16332   0.24918   0.00000  Uiso   1.00
C10    C     0.63020   0.82286   0.36719   0.00000  Uiso   1.00
C11    C     0.63554   0.75507   0.43501   0.00000  Uiso   1.00
C12    C     0.57520   0.77387   0.50624   0.00000  Uiso   1.00
C13    C     0.49266   0.77060   0.63614   0.00000  Uiso   1.00
C14    C     0.57298   0.97071   0.28916   0.00000  Uiso   1.00
C15    C     0.54894   0.90100   0.21393   0.00000  Uiso   1.00
C16    C     0.47351   0.91531   0.15348   0.00000  Uiso   1.00
C17    C     0.46363   0.84295   0.08962   0.00000  Uiso   1.00
C18    C     0.68304   0.99920   0.27905   0.00000  Uiso   1.00
C19    C     0.72035   0.09606   0.27338   0.00000  Uiso   1.00
C20    C     0.82336   0.10637   0.26435   0.00000  Uiso   1.00
C21    C     0.56687   0.90647   0.37041   0.00000  Uiso   1.00
C22    C     0.50653   0.92538   0.44156   0.00000  Uiso   1.00
C23    C     0.51176   0.85763   0.50946   0.00000  Uiso   1.00
H24    H     0.73889   0.75169   0.28072   0.00000  Uiso   1.00
H25    H     0.65154   0.68030   0.14445   0.00000  Uiso   1.00
H26    H     0.89834   0.86103   0.26434   0.00000  Uiso   1.00
H27    H     0.68455   0.69038   0.43249   0.00000  Uiso   1.00
H28    H     0.52679   0.63806   0.99477   0.00000  Uiso   1.00
H29    H     0.04719   0.01913   0.24759   0.00000  Uiso   1.00
H30    H     0.59638   0.65927   0.60218   0.00000  Uiso   1.00
H31    H     0.52368   0.03581   0.29166   0.00000  Uiso   1.00
H32    H     0.42451   0.98002   0.15599   0.00000  Uiso   1.00
H33    H     0.67132   0.16075   0.27587   0.00000  Uiso   1.00
H34    H     0.45753   0.99009   0.44403   0.00000  Uiso   1.00
H35    H     0.34253   0.88132   0.00413   0.00000  Uiso   1.00
H36    H     0.86293   0.26240   0.25695   0.00000  Uiso   1.00
H37    H     0.41212   0.90253   0.61154   0.00000  Uiso   1.00
O38    O     0.37334   0.71787   0.90998   0.00000  Uiso   1.00
O39    O     0.05608   0.21783   0.24169   0.00000  Uiso   1.00
O40    O     0.46462   0.74569   0.70690   0.00000  Uiso   1.00
N41    N     0.49702   0.70295   0.01560   0.00000  Uiso   1.00
N42    N     0.98356   0.05924   0.25196   0.00000  Uiso   1.00
N43    N     0.56211   0.72281   0.58348   0.00000  Uiso   1.00
N44    N     0.39787   0.83385   0.02064   0.00000  Uiso   1.00
N45    N     0.88441   0.19013   0.25700   0.00000  Uiso   1.00
N46    N     0.46296   0.85371   0.58852   0.00000  Uiso   1.00
C47    C     0.31042   0.18322   0.78323   0.00000  Uiso   1.00
C48    C     0.38773   0.18261   0.71071   0.00000  Uiso   1.00
C49    C     0.39749   0.25500   0.64692   0.00000  Uiso   1.00
C50    C     0.47292   0.24081   0.58639   0.00000  Uiso   1.00
C51    C     0.58329   0.25256   0.47327   0.00000  Uiso   1.00
C52    C     0.25363   0.08441   0.77584   0.00000  Uiso   1.00
C53    C     0.15065   0.07425   0.76682   0.00000  Uiso   1.00
C54    C     0.11320   0.97739   0.76112   0.00000  Uiso   1.00
C55    C     0.01537   0.83668   0.74918   0.00000  Uiso   1.00
C56    C     0.36980   0.17714   0.86719   0.00000  Uiso   1.00
C57    C     0.36446   0.24493   0.93501   0.00000  Uiso   1.00
C58    C     0.42480   0.22613   0.00624   0.00000  Uiso   1.00
C59    C     0.50734   0.22940   0.13614   0.00000  Uiso   1.00
C60    C     0.42702   0.02929   0.78916   0.00000  Uiso   1.00
C61    C     0.45106   0.09900   0.71393   0.00000  Uiso   1.00
C62    C     0.52649   0.08469   0.65348   0.00000  Uiso   1.00
C63    C     0.53637   0.15705   0.58962   0.00000  Uiso   1.00
C64    C     0.31696   0.00080   0.77905   0.00000  Uiso   1.00
C65    C     0.27965   0.90394   0.77338   0.00000  Uiso   1.00
C66    C     0.17664   0.89363   0.76435   0.00000  Uiso   1.00
C67    C     0.43313   0.09353   0.87041   0.00000  Uiso   1.00
C68    C     0.49347   0.07462   0.94156   0.00000  Uiso   1.00
C69    C     0.48824   0.14237   0.00946   0.00000  Uiso   1.00
H70    H     0.26111   0.24831   0.78072   0.00000  Uiso   1.00
H71    H     0.34846   0.31970   0.64445   0.00000  Uiso   1.00
H72    H     0.10166   0.13897   0.76434   0.00000  Uiso   1.00
H73    H     0.31545   0.30962   0.93249   0.00000  Uiso   1.00
H74    H     0.47321   0.36194   0.49477   0.00000  Uiso   1.00
H75    H     0.95281   0.98087   0.74759   0.00000  Uiso   1.00
H76    H     0.40362   0.34073   0.10218   0.00000  Uiso   1.00
H77    H     0.47632   0.96419   0.79166   0.00000  Uiso   1.00
H78    H     0.57549   0.01998   0.65599   0.00000  Uiso   1.00
H79    H     0.32868   0.83925   0.77587   0.00000  Uiso   1.00
H80    H     0.54247   0.00991   0.94403   0.00000  Uiso   1.00
H81    H     0.65747   0.11868   0.50413   0.00000  Uiso   1.00
H82    H     0.13707   0.73760   0.75695   0.00000  Uiso   1.00
H83    H     0.58788   0.09747   0.11154   0.00000  Uiso   1.00
O84    O     0.62666   0.28213   0.40998   0.00000  Uiso   1.00
O85    O     0.94392   0.78217   0.74169   0.00000  Uiso   1.00
O86    O     0.53538   0.25431   0.20690   0.00000  Uiso   1.00
N87    N     0.50298   0.29705   0.51560   0.00000  Uiso   1.00
N88    N     0.01644   0.94076   0.75196   0.00000  Uiso   1.00
N89    N     0.43789   0.27719   0.08348   0.00000  Uiso   1.00
N90    N     0.60213   0.16615   0.52064   0.00000  Uiso   1.00
N91    N     0.11559   0.80987   0.75700   0.00000  Uiso   1.00
N92    N     0.53704   0.14629   0.08852   0.00000  Uiso   1.00
C93    C     0.18322   0.68958   0.53323   0.00000  Uiso   1.00
C94    C     0.18261   0.61227   0.46071   0.00000  Uiso   1.00
C95    C     0.25500   0.60251   0.39692   0.00000  Uiso   1.00
C96    C     0.24081   0.52708   0.33639   0.00000  Uiso   1.00
C97    C     0.25256   0.41671   0.22327   0.00000  Uiso   1.00
C98    C     0.08441   0.74637   0.52584   0.00000  Uiso   1.00
C99    C     0.07425   0.84935   0.51682   0.00000  Uiso   1.00
C100   C     0.97739   0.88680   0.51112   0.00000  Uiso   1.00
C101   C     0.83668   0.98463   0.49918   0.00000  Uiso   1.00
C102   C     0.17714   0.63020   0.61719   0.00000  Uiso   1.00
C103   C     0.24493   0.63554   0.68501   0.00000  Uiso   1.00
C104   C     0.22613   0.57520   0.75624   0.00000  Uiso   1.00
C105   C     0.22940   0.49266   0.88614   0.00000  Uiso   1.00
C106   C     0.02929   0.57298   0.53916   0.00000  Uiso   1.00
C107   C     0.09900   0.54894   0.46393   0.00000  Uiso   1.00
C108   C     0.08469   0.47351   0.40348   0.00000  Uiso   1.00
C109   C     0.15705   0.46363   0.33962   0.00000  Uiso   1.00
C110   C     0.00080   0.68304   0.52905   0.00000  Uiso   1.00
C111   C     0.90394   0.72035   0.52338   0.00000  Uiso   1.00
C112   C     0.89363   0.82336   0.51435   0.00000  Uiso   1.00
C113   C     0.09353   0.56687   0.62041   0.00000  Uiso   1.00
C114   C     0.07462   0.50653   0.69156   0.00000  Uiso   1.00
C115   C     0.14237   0.51176   0.75946   0.00000  Uiso   1.00
H116   H     0.24831   0.73889   0.53072   0.00000  Uiso   1.00
H117   H     0.31970   0.65154   0.39445   0.00000  Uiso   1.00
H118   H     0.13897   0.89834   0.51434   0.00000  Uiso   1.00
H119   H     0.30962   0.68455   0.68249   0.00000  Uiso   1.00
H120   H     0.36194   0.52679   0.24477   0.00000  Uiso   1.00
H121   H     0.98087   0.04719   0.49759   0.00000  Uiso   1.00
H122   H     0.34073   0.59638   0.85218   0.00000  Uiso   1.00
H123   H     0.96419   0.52368   0.54166   0.00000  Uiso   1.00
H124   H     0.01998   0.42451   0.40599   0.00000  Uiso   1.00
H125   H     0.83925   0.67132   0.52587   0.00000  Uiso   1.00
H126   H     0.00991   0.45753   0.69403   0.00000  Uiso   1.00
H127   H     0.11868   0.34253   0.25413   0.00000  Uiso   1.00
H128   H     0.73760   0.86293   0.50695   0.00000  Uiso   1.00
H129   H     0.09747   0.41212   0.86154   0.00000  Uiso   1.00
O130   O     0.28213   0.37334   0.15998   0.00000  Uiso   1.00
O131   O     0.78217   0.05608   0.49169   0.00000  Uiso   1.00
O132   O     0.25431   0.46462   0.95690   0.00000  Uiso   1.00
N133   N     0.29705   0.49702   0.26560   0.00000  Uiso   1.00
N134   N     0.94076   0.98356   0.50196   0.00000  Uiso   1.00
N135   N     0.27719   0.56211   0.83348   0.00000  Uiso   1.00
N136   N     0.16615   0.39787   0.27064   0.00000  Uiso   1.00
N137   N     0.80987   0.88441   0.50700   0.00000  Uiso   1.00
N138   N     0.14629   0.46296   0.83852   0.00000  Uiso   1.00
C139   C     0.81678   0.31042   0.03323   0.00000  Uiso   1.00
C140   C     0.81739   0.38773   0.96071   0.00000  Uiso   1.00
C141   C     0.74500   0.39749   0.89692   0.00000  Uiso   1.00
C142   C     0.75919   0.47292   0.83639   0.00000  Uiso   1.00
C143   C     0.74744   0.58329   0.72327   0.00000  Uiso   1.00
C144   C     0.91559   0.25363   0.02584   0.00000  Uiso   1.00
C145   C     0.92575   0.15065   0.01682   0.00000  Uiso   1.00
C146   C     0.02261   0.11320   0.01112   0.00000  Uiso   1.00
C147   C     0.16332   0.01537   0.99918   0.00000  Uiso   1.00
C148   C     0.82286   0.36980   0.11719   0.00000  Uiso   1.00
C149   C     0.75507   0.36446   0.18501   0.00000  Uiso   1.00
C150   C     0.77387   0.42480   0.25624   0.00000  Uiso   1.00
C151   C     0.77060   0.50734   0.38614   0.00000  Uiso   1.00
C152   C     0.97071   0.42702   0.03916   0.00000  Uiso   1.00
C153   C     0.90100   0.45106   0.96393   0.00000  Uiso   1.00
C154   C     0.91531   0.52649   0.90348   0.00000  Uiso   1.00
C155   C     0.84295   0.53637   0.83962   0.00000  Uiso   1.00
C156   C     0.99920   0.31696   0.02905   0.00000  Uiso   1.00
C157   C     0.09606   0.27965   0.02338   0.00000  Uiso   1.00
C158   C     0.10637   0.17664   0.01435   0.00000  Uiso   1.00
C159   C     0.90647   0.43313   0.12041   0.00000  Uiso   1.00
C160   C     0.92538   0.49347   0.19156   0.00000  Uiso   1.00
C161   C     0.85763   0.48824   0.25946   0.00000  Uiso   1.00
H162   H     0.75169   0.26111   0.03072   0.00000  Uiso   1.00
H163   H     0.68030   0.34846   0.89445   0.00000  Uiso   1.00
H164   H     0.86103   0.10166   0.01434   0.00000  Uiso   1.00
H165   H     0.69038   0.31545   0.18249   0.00000  Uiso   1.00
H166   H     0.63806   0.47321   0.74477   0.00000  Uiso   1.00
H167   H     0.01913   0.95281   0.99759   0.00000  Uiso   1.00
H168   H     0.65927   0.40362   0.35218   0.00000  Uiso   1.00
H169   H     0.03581   0.47632   0.04166   0.00000  Uiso   1.00
H170   H     0.98002   0.57549   0.90599   0.00000  Uiso   1.00
H171   H     0.16075   0.32868   0.02587   0.00000  Uiso   1.00
H172   H     0.99009   0.54247   0.19403   0.00000  Uiso   1.00
H173   H     0.88132   0.65747   0.75413   0.00000  Uiso   1.00
H174   H     0.26240   0.13707   0.00695   0.00000  Uiso   1.00
H175   H     0.90253   0.58788   0.36154   0.00000  Uiso   1.00
O176   O     0.71787   0.62666   0.65998   0.00000  Uiso   1.00
O177   O     0.21783   0.94392   0.99169   0.00000  Uiso   1.00
O178   O     0.74569   0.53538   0.45690   0.00000  Uiso   1.00
N179   N     0.70295   0.50298   0.76560   0.00000  Uiso   1.00
N180   N     0.05924   0.01644   0.00196   0.00000  Uiso   1.00
N181   N     0.72281   0.43789   0.33348   0.00000  Uiso   1.00
N182   N     0.83385   0.60213   0.77064   0.00000  Uiso   1.00
N183   N     0.19013   0.11559   0.00700   0.00000  Uiso   1.00
N184   N     0.85371   0.53704   0.33852   0.00000  Uiso   1.00
