data_job_02470
_audit_creation_date              2018-12-19
_audit_creation_method            'Materials Studio'
_symmetry_space_group_name_H-M    'P1'
_symmetry_Int_Tables_number       1
_symmetry_cell_setting            triclinic
loop_
_symmetry_equiv_pos_as_xyz
  x,y,z
_cell_length_a                    9.8820
_cell_length_b                    11.9513
_cell_length_c                    9.8692
_cell_angle_alpha                 90.0000
_cell_angle_beta                  76.5313
_cell_angle_gamma                 90.0000
loop_
_atom_site_label
_atom_site_type_symbol
_atom_site_fract_x
_atom_site_fract_y
_atom_site_fract_z
_atom_site_U_iso_or_equiv
_atom_site_adp_type
_atom_site_occupancy
C1     C     0.00426   0.98490   0.99610   0.00000  Uiso   1.00
C2     C     0.08433   0.90780   0.07272   0.00000  Uiso   1.00
C3     C     0.22682   0.91030   0.06209   0.00000  Uiso   1.00
C4     C     0.28014   0.83276   0.14064   0.00000  Uiso   1.00
C5     C     0.41758   0.72476   0.24647   0.00000  Uiso   1.00
C6     C     0.92710   0.90851   0.91574   0.00000  Uiso   1.00
C7     C     0.93740   0.91161   0.77312   0.00000  Uiso   1.00
C8     C     0.85835   0.83468   0.71954   0.00000  Uiso   1.00
C9     C     0.75162   0.72783   0.58167   0.00000  Uiso   1.00
C10    C     0.89260   0.04097   0.10839   0.00000  Uiso   1.00
C11    C     0.87384   0.15544   0.12773   0.00000  Uiso   1.00
C12    C     0.76571   0.19003   0.23633   0.00000  Uiso   1.00
C13    C     0.60540   0.28884   0.39757   0.00000  Uiso   1.00
C14    C     0.84555   0.84277   0.15452   0.00000  Uiso   1.00
C15    C     0.99812   0.83060   0.15877   0.00000  Uiso   1.00
C16    C     0.05123   0.75304   0.23737   0.00000  Uiso   1.00
C17    C     0.19378   0.75542   0.22685   0.00000  Uiso   1.00
C18    C     0.84090   0.83131   0.00178   0.00000  Uiso   1.00
C19    C     0.76180   0.75436   0.94840   0.00000  Uiso   1.00
C20    C     0.77198   0.75734   0.80574   0.00000  Uiso   1.00
C21    C     0.80639   0.96377   0.19444   0.00000  Uiso   1.00
C22    C     0.69825   0.99818   0.30302   0.00000  Uiso   1.00
C23    C     0.67935   0.11269   0.32253   0.00000  Uiso   1.00
H24    H     0.07137   0.04500   0.92910   0.00000  Uiso   1.00
H25    H     0.29350   0.97005   0.99547   0.00000  Uiso   1.00
H26    H     0.00411   0.97137   0.70656   0.00000  Uiso   1.00
H27    H     0.94057   0.21516   0.06112   0.00000  Uiso   1.00
H28    H     0.50177   0.85288   0.10697   0.00000  Uiso   1.00
H29    H     0.89153   0.85570   0.49779   0.00000  Uiso   1.00
H30    H     0.75755   0.36977   0.24545   0.00000  Uiso   1.00
H31    H     0.77843   0.78266   0.22151   0.00000  Uiso   1.00
H32    H     0.98449   0.69331   0.30395   0.00000  Uiso   1.00
H33    H     0.69510   0.69464   0.01502   0.00000  Uiso   1.00
H34    H     0.63156   0.93842   0.36958   0.00000  Uiso   1.00
H35    H     0.25096   0.62827   0.35733   0.00000  Uiso   1.00
H36    H     0.64072   0.63109   0.74815   0.00000  Uiso   1.00
H37    H     0.50674   0.14516   0.49581   0.00000  Uiso   1.00
O38    O     0.51721   0.68651   0.28106   0.00000  Uiso   1.00
O39    O     0.71658   0.69022   0.48185   0.00000  Uiso   1.00
O40    O     0.54081   0.36467   0.46275   0.00000  Uiso   1.00
N41    N     0.41446   0.81229   0.15460   0.00000  Uiso   1.00
N42    N     0.84394   0.81492   0.58505   0.00000  Uiso   1.00
N43    N     0.71865   0.29553   0.28402   0.00000  Uiso   1.00
N44    N     0.27950   0.69143   0.28932   0.00000  Uiso   1.00
N45    N     0.70898   0.69405   0.71977   0.00000  Uiso   1.00
N46    N     0.58370   0.17467   0.41874   0.00000  Uiso   1.00
C47    C     0.99574   0.48490   0.00390   0.00000  Uiso   1.00
C48    C     0.91567   0.40780   0.92728   0.00000  Uiso   1.00
C49    C     0.77318   0.41030   0.93791   0.00000  Uiso   1.00
C50    C     0.71986   0.33276   0.85936   0.00000  Uiso   1.00
C51    C     0.58242   0.22476   0.75353   0.00000  Uiso   1.00
C52    C     0.07290   0.40851   0.08426   0.00000  Uiso   1.00
C53    C     0.06260   0.41161   0.22688   0.00000  Uiso   1.00
C54    C     0.14165   0.33468   0.28046   0.00000  Uiso   1.00
C55    C     0.24838   0.22783   0.41833   0.00000  Uiso   1.00
C56    C     0.10740   0.54097   0.89161   0.00000  Uiso   1.00
C57    C     0.12616   0.65544   0.87227   0.00000  Uiso   1.00
C58    C     0.23429   0.69003   0.76367   0.00000  Uiso   1.00
C59    C     0.39460   0.78884   0.60243   0.00000  Uiso   1.00
C60    C     0.15445   0.34277   0.84548   0.00000  Uiso   1.00
C61    C     0.00188   0.33060   0.84123   0.00000  Uiso   1.00
C62    C     0.94877   0.25304   0.76263   0.00000  Uiso   1.00
C63    C     0.80622   0.25542   0.77315   0.00000  Uiso   1.00
C64    C     0.15910   0.33131   0.99822   0.00000  Uiso   1.00
C65    C     0.23820   0.25436   0.05160   0.00000  Uiso   1.00
C66    C     0.22802   0.25734   0.19426   0.00000  Uiso   1.00
C67    C     0.19361   0.46377   0.80556   0.00000  Uiso   1.00
C68    C     0.30175   0.49818   0.69698   0.00000  Uiso   1.00
C69    C     0.32065   0.61269   0.67747   0.00000  Uiso   1.00
H70    H     0.92863   0.54500   0.07090   0.00000  Uiso   1.00
H71    H     0.70650   0.47005   0.00453   0.00000  Uiso   1.00
H72    H     0.99589   0.47137   0.29344   0.00000  Uiso   1.00
H73    H     0.05943   0.71516   0.93888   0.00000  Uiso   1.00
H74    H     0.49823   0.35288   0.89303   0.00000  Uiso   1.00
H75    H     0.10847   0.35570   0.50221   0.00000  Uiso   1.00
H76    H     0.24245   0.86977   0.75455   0.00000  Uiso   1.00
H77    H     0.22157   0.28266   0.77849   0.00000  Uiso   1.00
H78    H     0.01551   0.19331   0.69605   0.00000  Uiso   1.00
H79    H     0.30490   0.19464   0.98498   0.00000  Uiso   1.00
H80    H     0.36844   0.43842   0.63042   0.00000  Uiso   1.00
H81    H     0.74904   0.12827   0.64267   0.00000  Uiso   1.00
H82    H     0.35928   0.13109   0.25185   0.00000  Uiso   1.00
H83    H     0.49326   0.64516   0.50419   0.00000  Uiso   1.00
O84    O     0.48279   0.18651   0.71894   0.00000  Uiso   1.00
O85    O     0.28342   0.19022   0.51815   0.00000  Uiso   1.00
O86    O     0.45919   0.86467   0.53725   0.00000  Uiso   1.00
N87    N     0.58554   0.31229   0.84540   0.00000  Uiso   1.00
N88    N     0.15606   0.31492   0.41495   0.00000  Uiso   1.00
N89    N     0.28135   0.79553   0.71598   0.00000  Uiso   1.00
N90    N     0.72050   0.19143   0.71068   0.00000  Uiso   1.00
N91    N     0.29102   0.19405   0.28023   0.00000  Uiso   1.00
N92    N     0.41630   0.67467   0.58126   0.00000  Uiso   1.00
