data_job_03699
_audit_creation_date              2018-12-19
_audit_creation_method            'Materials Studio'
_symmetry_space_group_name_H-M    'P1'
_symmetry_Int_Tables_number       1
_symmetry_cell_setting            triclinic
loop_
_symmetry_equiv_pos_as_xyz
  x,y,z
_cell_length_a                    17.4134
_cell_length_b                    17.4134
_cell_length_c                    16.9704
_cell_angle_alpha                 90.0000
_cell_angle_beta                  90.0000
_cell_angle_gamma                 90.0000
loop_
_atom_site_label
_atom_site_type_symbol
_atom_site_fract_x
_atom_site_fract_y
_atom_site_fract_z
_atom_site_U_iso_or_equiv
_atom_site_adp_type
_atom_site_occupancy
C1     C     0.25005   0.75250   0.70415   0.00000  Uiso   1.00
C2     C     0.27005   0.82025   0.75726   0.00000  Uiso   1.00
C3     C     0.34354   0.84700   0.77299   0.00000  Uiso   1.00
C4     C     0.34975   0.90969   0.82314   0.00000  Uiso   1.00
C5     C     0.39069   0.00959   0.90060   0.00000  Uiso   1.00
C6     C     0.20335   0.69729   0.75482   0.00000  Uiso   1.00
C7     C     0.22075   0.62066   0.76849   0.00000  Uiso   1.00
C8     C     0.17080   0.57984   0.81658   0.00000  Uiso   1.00
C9     C     0.10815   0.48882   0.89020   0.00000  Uiso   1.00
C10    C     0.19476   0.78365   0.64223   0.00000  Uiso   1.00
C11    C     0.20494   0.77962   0.56122   0.00000  Uiso   1.00
C12    C     0.14775   0.81149   0.51451   0.00000  Uiso   1.00
C13    C     0.07178   0.85457   0.41331   0.00000  Uiso   1.00
C14    C     0.13041   0.81625   0.76523   0.00000  Uiso   1.00
C15    C     0.20506   0.85487   0.79044   0.00000  Uiso   1.00
C16    C     0.21117   0.91753   0.84058   0.00000  Uiso   1.00
C17    C     0.28465   0.94438   0.85638   0.00000  Uiso   1.00
C18    C     0.13836   0.73191   0.78800   0.00000  Uiso   1.00
C19    C     0.08838   0.69119   0.83608   0.00000  Uiso   1.00
C20    C     0.10570   0.61452   0.84982   0.00000  Uiso   1.00
C21    C     0.12978   0.81828   0.67541   0.00000  Uiso   1.00
C22    C     0.07257   0.85015   0.62881   0.00000  Uiso   1.00
C23    C     0.08265   0.84618   0.54775   0.00000  Uiso   1.00
H24    H     0.30064   0.72554   0.67831   0.00000  Uiso   1.00
H25    H     0.39381   0.82018   0.74731   0.00000  Uiso   1.00
H26    H     0.27104   0.59388   0.74280   0.00000  Uiso   1.00
H27    H     0.25523   0.75282   0.53556   0.00000  Uiso   1.00
H28    H     0.46846   0.94037   0.83845   0.00000  Uiso   1.00
H29    H     0.20956   0.46318   0.82893   0.00000  Uiso   1.00
H30    H     0.17623   0.79834   0.39193   0.00000  Uiso   1.00
H31    H     0.07981   0.84321   0.79107   0.00000  Uiso   1.00
H32    H     0.16087   0.94432   0.86625   0.00000  Uiso   1.00
H33    H     0.03809   0.71800   0.86174   0.00000  Uiso   1.00
H34    H     0.02228   0.87695   0.65451   0.00000  Uiso   1.00
H35    H     0.27939   0.04112   0.93500   0.00000  Uiso   1.00
H36    H     0.02049   0.56392   0.92547   0.00000  Uiso   1.00
H37    H     0.98716   0.89908   0.48847   0.00000  Uiso   1.00
O38    O     0.43123   0.05512   0.93417   0.00000  Uiso   1.00
O39    O     0.09156   0.42906   0.92165   0.00000  Uiso   1.00
O40    O     0.04784   0.86878   0.34833   0.00000  Uiso   1.00
N41    N     0.41283   0.95022   0.85084   0.00000  Uiso   1.00
N42    N     0.17079   0.50407   0.84195   0.00000  Uiso   1.00
N43    N     0.13962   0.81740   0.43339   0.00000  Uiso   1.00
N44    N     0.31110   0.00443   0.90279   0.00000  Uiso   1.00
N45    N     0.06905   0.55828   0.89390   0.00000  Uiso   1.00
N46    N     0.03788   0.87161   0.48534   0.00000  Uiso   1.00
C47    C     0.74995   0.24750   0.70415   0.00000  Uiso   1.00
C48    C     0.72995   0.17975   0.75726   0.00000  Uiso   1.00
C49    C     0.65646   0.15300   0.77299   0.00000  Uiso   1.00
C50    C     0.65025   0.09031   0.82314   0.00000  Uiso   1.00
C51    C     0.60931   0.99041   0.90060   0.00000  Uiso   1.00
C52    C     0.79665   0.30271   0.75482   0.00000  Uiso   1.00
C53    C     0.77925   0.37934   0.76849   0.00000  Uiso   1.00
C54    C     0.82920   0.42016   0.81658   0.00000  Uiso   1.00
C55    C     0.89185   0.51118   0.89020   0.00000  Uiso   1.00
C56    C     0.80524   0.21635   0.64223   0.00000  Uiso   1.00
C57    C     0.79506   0.22038   0.56122   0.00000  Uiso   1.00
C58    C     0.85225   0.18851   0.51451   0.00000  Uiso   1.00
C59    C     0.92822   0.14543   0.41331   0.00000  Uiso   1.00
C60    C     0.86959   0.18375   0.76523   0.00000  Uiso   1.00
C61    C     0.79494   0.14513   0.79044   0.00000  Uiso   1.00
C62    C     0.78883   0.08247   0.84058   0.00000  Uiso   1.00
C63    C     0.71535   0.05562   0.85638   0.00000  Uiso   1.00
C64    C     0.86164   0.26809   0.78800   0.00000  Uiso   1.00
C65    C     0.91162   0.30881   0.83608   0.00000  Uiso   1.00
C66    C     0.89430   0.38548   0.84982   0.00000  Uiso   1.00
C67    C     0.87022   0.18172   0.67541   0.00000  Uiso   1.00
C68    C     0.92743   0.14985   0.62881   0.00000  Uiso   1.00
C69    C     0.91735   0.15382   0.54775   0.00000  Uiso   1.00
H70    H     0.69936   0.27446   0.67831   0.00000  Uiso   1.00
H71    H     0.60619   0.17982   0.74731   0.00000  Uiso   1.00
H72    H     0.72896   0.40612   0.74280   0.00000  Uiso   1.00
H73    H     0.74477   0.24718   0.53556   0.00000  Uiso   1.00
H74    H     0.53154   0.05963   0.83845   0.00000  Uiso   1.00
H75    H     0.79044   0.53682   0.82893   0.00000  Uiso   1.00
H76    H     0.82377   0.20166   0.39193   0.00000  Uiso   1.00
H77    H     0.92019   0.15679   0.79107   0.00000  Uiso   1.00
H78    H     0.83913   0.05568   0.86625   0.00000  Uiso   1.00
H79    H     0.96191   0.28200   0.86174   0.00000  Uiso   1.00
H80    H     0.97772   0.12305   0.65451   0.00000  Uiso   1.00
H81    H     0.72061   0.95888   0.93500   0.00000  Uiso   1.00
H82    H     0.97951   0.43608   0.92547   0.00000  Uiso   1.00
H83    H     0.01284   0.10092   0.48847   0.00000  Uiso   1.00
O84    O     0.56877   0.94488   0.93417   0.00000  Uiso   1.00
O85    O     0.90844   0.57094   0.92165   0.00000  Uiso   1.00
O86    O     0.95216   0.13122   0.34833   0.00000  Uiso   1.00
N87    N     0.58717   0.04978   0.85084   0.00000  Uiso   1.00
N88    N     0.82921   0.49593   0.84195   0.00000  Uiso   1.00
N89    N     0.86038   0.18260   0.43339   0.00000  Uiso   1.00
N90    N     0.68890   0.99557   0.90279   0.00000  Uiso   1.00
N91    N     0.93095   0.44172   0.89390   0.00000  Uiso   1.00
N92    N     0.96212   0.12839   0.48534   0.00000  Uiso   1.00
C93    C     0.75250   0.74995   0.29585   0.00000  Uiso   1.00
C94    C     0.82025   0.72995   0.24274   0.00000  Uiso   1.00
C95    C     0.84700   0.65646   0.22701   0.00000  Uiso   1.00
C96    C     0.90969   0.65025   0.17686   0.00000  Uiso   1.00
C97    C     0.00959   0.60931   0.09940   0.00000  Uiso   1.00
C98    C     0.69729   0.79665   0.24518   0.00000  Uiso   1.00
C99    C     0.62066   0.77925   0.23151   0.00000  Uiso   1.00
C100   C     0.57984   0.82920   0.18342   0.00000  Uiso   1.00
C101   C     0.48882   0.89185   0.10980   0.00000  Uiso   1.00
C102   C     0.78365   0.80524   0.35777   0.00000  Uiso   1.00
C103   C     0.77962   0.79506   0.43878   0.00000  Uiso   1.00
C104   C     0.81149   0.85225   0.48549   0.00000  Uiso   1.00
C105   C     0.85457   0.92822   0.58669   0.00000  Uiso   1.00
C106   C     0.81625   0.86959   0.23477   0.00000  Uiso   1.00
C107   C     0.85487   0.79494   0.20956   0.00000  Uiso   1.00
C108   C     0.91753   0.78883   0.15942   0.00000  Uiso   1.00
C109   C     0.94438   0.71535   0.14362   0.00000  Uiso   1.00
C110   C     0.73191   0.86164   0.21200   0.00000  Uiso   1.00
C111   C     0.69119   0.91162   0.16392   0.00000  Uiso   1.00
C112   C     0.61452   0.89430   0.15018   0.00000  Uiso   1.00
C113   C     0.81828   0.87022   0.32459   0.00000  Uiso   1.00
C114   C     0.85015   0.92743   0.37119   0.00000  Uiso   1.00
C115   C     0.84618   0.91735   0.45225   0.00000  Uiso   1.00
H116   H     0.72554   0.69936   0.32169   0.00000  Uiso   1.00
H117   H     0.82018   0.60619   0.25269   0.00000  Uiso   1.00
H118   H     0.59388   0.72896   0.25720   0.00000  Uiso   1.00
H119   H     0.75282   0.74477   0.46444   0.00000  Uiso   1.00
H120   H     0.94037   0.53154   0.16155   0.00000  Uiso   1.00
H121   H     0.46318   0.79044   0.17107   0.00000  Uiso   1.00
H122   H     0.79834   0.82377   0.60807   0.00000  Uiso   1.00
H123   H     0.84321   0.92019   0.20893   0.00000  Uiso   1.00
H124   H     0.94432   0.83913   0.13375   0.00000  Uiso   1.00
H125   H     0.71800   0.96191   0.13826   0.00000  Uiso   1.00
H126   H     0.87695   0.97772   0.34549   0.00000  Uiso   1.00
H127   H     0.04112   0.72061   0.06500   0.00000  Uiso   1.00
H128   H     0.56392   0.97951   0.07453   0.00000  Uiso   1.00
H129   H     0.89908   0.01284   0.51153   0.00000  Uiso   1.00
O130   O     0.05512   0.56877   0.06583   0.00000  Uiso   1.00
O131   O     0.42906   0.90844   0.07835   0.00000  Uiso   1.00
O132   O     0.86878   0.95216   0.65167   0.00000  Uiso   1.00
N133   N     0.95022   0.58717   0.14916   0.00000  Uiso   1.00
N134   N     0.50407   0.82921   0.15805   0.00000  Uiso   1.00
N135   N     0.81740   0.86038   0.56661   0.00000  Uiso   1.00
N136   N     0.00443   0.68890   0.09721   0.00000  Uiso   1.00
N137   N     0.55828   0.93095   0.10610   0.00000  Uiso   1.00
N138   N     0.87161   0.96212   0.51466   0.00000  Uiso   1.00
C139   C     0.24750   0.25005   0.29585   0.00000  Uiso   1.00
C140   C     0.17975   0.27005   0.24274   0.00000  Uiso   1.00
C141   C     0.15300   0.34354   0.22701   0.00000  Uiso   1.00
C142   C     0.09031   0.34975   0.17686   0.00000  Uiso   1.00
C143   C     0.99041   0.39069   0.09940   0.00000  Uiso   1.00
C144   C     0.30271   0.20335   0.24518   0.00000  Uiso   1.00
C145   C     0.37934   0.22075   0.23151   0.00000  Uiso   1.00
C146   C     0.42016   0.17080   0.18342   0.00000  Uiso   1.00
C147   C     0.51118   0.10815   0.10980   0.00000  Uiso   1.00
C148   C     0.21635   0.19476   0.35777   0.00000  Uiso   1.00
C149   C     0.22038   0.20494   0.43878   0.00000  Uiso   1.00
C150   C     0.18851   0.14775   0.48549   0.00000  Uiso   1.00
C151   C     0.14543   0.07178   0.58669   0.00000  Uiso   1.00
C152   C     0.18375   0.13041   0.23477   0.00000  Uiso   1.00
C153   C     0.14513   0.20506   0.20956   0.00000  Uiso   1.00
C154   C     0.08247   0.21117   0.15942   0.00000  Uiso   1.00
C155   C     0.05562   0.28465   0.14362   0.00000  Uiso   1.00
C156   C     0.26809   0.13836   0.21200   0.00000  Uiso   1.00
C157   C     0.30881   0.08838   0.16392   0.00000  Uiso   1.00
C158   C     0.38548   0.10570   0.15018   0.00000  Uiso   1.00
C159   C     0.18172   0.12978   0.32459   0.00000  Uiso   1.00
C160   C     0.14985   0.07257   0.37119   0.00000  Uiso   1.00
C161   C     0.15382   0.08265   0.45225   0.00000  Uiso   1.00
H162   H     0.27446   0.30064   0.32169   0.00000  Uiso   1.00
H163   H     0.17982   0.39381   0.25269   0.00000  Uiso   1.00
H164   H     0.40612   0.27104   0.25720   0.00000  Uiso   1.00
H165   H     0.24718   0.25523   0.46444   0.00000  Uiso   1.00
H166   H     0.05963   0.46846   0.16155   0.00000  Uiso   1.00
H167   H     0.53682   0.20956   0.17107   0.00000  Uiso   1.00
H168   H     0.20166   0.17623   0.60807   0.00000  Uiso   1.00
H169   H     0.15679   0.07981   0.20893   0.00000  Uiso   1.00
H170   H     0.05568   0.16087   0.13375   0.00000  Uiso   1.00
H171   H     0.28200   0.03809   0.13826   0.00000  Uiso   1.00
H172   H     0.12305   0.02228   0.34549   0.00000  Uiso   1.00
H173   H     0.95888   0.27939   0.06500   0.00000  Uiso   1.00
H174   H     0.43608   0.02049   0.07453   0.00000  Uiso   1.00
H175   H     0.10092   0.98716   0.51153   0.00000  Uiso   1.00
O176   O     0.94488   0.43123   0.06583   0.00000  Uiso   1.00
O177   O     0.57094   0.09156   0.07835   0.00000  Uiso   1.00
O178   O     0.13122   0.04784   0.65167   0.00000  Uiso   1.00
N179   N     0.04978   0.41283   0.14916   0.00000  Uiso   1.00
N180   N     0.49593   0.17079   0.15805   0.00000  Uiso   1.00
N181   N     0.18260   0.13962   0.56661   0.00000  Uiso   1.00
N182   N     0.99557   0.31110   0.09721   0.00000  Uiso   1.00
N183   N     0.44172   0.06905   0.10610   0.00000  Uiso   1.00
N184   N     0.12839   0.03788   0.51466   0.00000  Uiso   1.00
C185   C     0.24995   0.25250   0.79585   0.00000  Uiso   1.00
C186   C     0.22995   0.32025   0.74274   0.00000  Uiso   1.00
C187   C     0.15646   0.34700   0.72701   0.00000  Uiso   1.00
C188   C     0.15025   0.40969   0.67686   0.00000  Uiso   1.00
C189   C     0.10931   0.50959   0.59940   0.00000  Uiso   1.00
C190   C     0.29665   0.19729   0.74518   0.00000  Uiso   1.00
C191   C     0.27925   0.12066   0.73151   0.00000  Uiso   1.00
C192   C     0.32920   0.07984   0.68342   0.00000  Uiso   1.00
C193   C     0.39185   0.98882   0.60980   0.00000  Uiso   1.00
C194   C     0.30524   0.28365   0.85777   0.00000  Uiso   1.00
C195   C     0.29506   0.27962   0.93878   0.00000  Uiso   1.00
C196   C     0.35225   0.31149   0.98549   0.00000  Uiso   1.00
C197   C     0.42822   0.35457   0.08669   0.00000  Uiso   1.00
C198   C     0.36959   0.31625   0.73477   0.00000  Uiso   1.00
C199   C     0.29494   0.35487   0.70956   0.00000  Uiso   1.00
C200   C     0.28883   0.41753   0.65942   0.00000  Uiso   1.00
C201   C     0.21535   0.44438   0.64362   0.00000  Uiso   1.00
C202   C     0.36164   0.23191   0.71200   0.00000  Uiso   1.00
C203   C     0.41162   0.19119   0.66392   0.00000  Uiso   1.00
C204   C     0.39430   0.11452   0.65018   0.00000  Uiso   1.00
C205   C     0.37022   0.31828   0.82459   0.00000  Uiso   1.00
C206   C     0.42743   0.35015   0.87119   0.00000  Uiso   1.00
C207   C     0.41735   0.34618   0.95225   0.00000  Uiso   1.00
H208   H     0.19936   0.22554   0.82169   0.00000  Uiso   1.00
H209   H     0.10619   0.32018   0.75269   0.00000  Uiso   1.00
H210   H     0.22896   0.09388   0.75720   0.00000  Uiso   1.00
H211   H     0.24477   0.25282   0.96444   0.00000  Uiso   1.00
H212   H     0.03154   0.44037   0.66155   0.00000  Uiso   1.00
H213   H     0.29044   0.96318   0.67107   0.00000  Uiso   1.00
H214   H     0.32377   0.29834   0.10807   0.00000  Uiso   1.00
H215   H     0.42019   0.34321   0.70893   0.00000  Uiso   1.00
H216   H     0.33913   0.44432   0.63375   0.00000  Uiso   1.00
H217   H     0.46191   0.21800   0.63826   0.00000  Uiso   1.00
H218   H     0.47772   0.37695   0.84549   0.00000  Uiso   1.00
H219   H     0.22061   0.54112   0.56500   0.00000  Uiso   1.00
H220   H     0.47951   0.06392   0.57453   0.00000  Uiso   1.00
H221   H     0.51284   0.39908   0.01153   0.00000  Uiso   1.00
O222   O     0.06877   0.55512   0.56583   0.00000  Uiso   1.00
O223   O     0.40844   0.92906   0.57835   0.00000  Uiso   1.00
O224   O     0.45216   0.36878   0.15167   0.00000  Uiso   1.00
N225   N     0.08717   0.45022   0.64916   0.00000  Uiso   1.00
N226   N     0.32921   0.00407   0.65805   0.00000  Uiso   1.00
N227   N     0.36038   0.31740   0.06661   0.00000  Uiso   1.00
N228   N     0.18890   0.50443   0.59721   0.00000  Uiso   1.00
N229   N     0.43095   0.05828   0.60610   0.00000  Uiso   1.00
N230   N     0.46212   0.37161   0.01466   0.00000  Uiso   1.00
C231   C     0.75005   0.74750   0.79585   0.00000  Uiso   1.00
C232   C     0.77005   0.67975   0.74274   0.00000  Uiso   1.00
C233   C     0.84354   0.65300   0.72701   0.00000  Uiso   1.00
C234   C     0.84975   0.59031   0.67686   0.00000  Uiso   1.00
C235   C     0.89069   0.49041   0.59940   0.00000  Uiso   1.00
C236   C     0.70335   0.80271   0.74518   0.00000  Uiso   1.00
C237   C     0.72075   0.87934   0.73151   0.00000  Uiso   1.00
C238   C     0.67080   0.92016   0.68342   0.00000  Uiso   1.00
C239   C     0.60815   0.01118   0.60980   0.00000  Uiso   1.00
C240   C     0.69476   0.71635   0.85777   0.00000  Uiso   1.00
C241   C     0.70494   0.72038   0.93878   0.00000  Uiso   1.00
C242   C     0.64775   0.68851   0.98549   0.00000  Uiso   1.00
C243   C     0.57178   0.64543   0.08669   0.00000  Uiso   1.00
C244   C     0.63041   0.68375   0.73477   0.00000  Uiso   1.00
C245   C     0.70506   0.64513   0.70956   0.00000  Uiso   1.00
C246   C     0.71117   0.58247   0.65942   0.00000  Uiso   1.00
C247   C     0.78465   0.55562   0.64362   0.00000  Uiso   1.00
C248   C     0.63836   0.76809   0.71200   0.00000  Uiso   1.00
C249   C     0.58838   0.80881   0.66392   0.00000  Uiso   1.00
C250   C     0.60570   0.88548   0.65018   0.00000  Uiso   1.00
C251   C     0.62978   0.68172   0.82459   0.00000  Uiso   1.00
C252   C     0.57257   0.64985   0.87119   0.00000  Uiso   1.00
C253   C     0.58265   0.65382   0.95225   0.00000  Uiso   1.00
H254   H     0.80064   0.77446   0.82169   0.00000  Uiso   1.00
H255   H     0.89381   0.67982   0.75269   0.00000  Uiso   1.00
H256   H     0.77104   0.90612   0.75720   0.00000  Uiso   1.00
H257   H     0.75523   0.74718   0.96444   0.00000  Uiso   1.00
H258   H     0.96846   0.55963   0.66155   0.00000  Uiso   1.00
H259   H     0.70956   0.03682   0.67107   0.00000  Uiso   1.00
H260   H     0.67623   0.70166   0.10807   0.00000  Uiso   1.00
H261   H     0.57981   0.65679   0.70893   0.00000  Uiso   1.00
H262   H     0.66087   0.55568   0.63375   0.00000  Uiso   1.00
H263   H     0.53809   0.78200   0.63826   0.00000  Uiso   1.00
H264   H     0.52228   0.62305   0.84549   0.00000  Uiso   1.00
H265   H     0.77939   0.45888   0.56500   0.00000  Uiso   1.00
H266   H     0.52049   0.93608   0.57453   0.00000  Uiso   1.00
H267   H     0.48716   0.60092   0.01153   0.00000  Uiso   1.00
O268   O     0.93123   0.44488   0.56583   0.00000  Uiso   1.00
O269   O     0.59156   0.07094   0.57835   0.00000  Uiso   1.00
O270   O     0.54784   0.63122   0.15167   0.00000  Uiso   1.00
N271   N     0.91283   0.54978   0.64916   0.00000  Uiso   1.00
N272   N     0.67079   0.99593   0.65805   0.00000  Uiso   1.00
N273   N     0.63962   0.68260   0.06661   0.00000  Uiso   1.00
N274   N     0.81110   0.49557   0.59721   0.00000  Uiso   1.00
N275   N     0.56905   0.94172   0.60610   0.00000  Uiso   1.00
N276   N     0.53788   0.62839   0.01466   0.00000  Uiso   1.00
C277   C     0.74750   0.24995   0.20415   0.00000  Uiso   1.00
C278   C     0.67975   0.22995   0.25726   0.00000  Uiso   1.00
C279   C     0.65300   0.15646   0.27299   0.00000  Uiso   1.00
C280   C     0.59031   0.15025   0.32314   0.00000  Uiso   1.00
C281   C     0.49041   0.10931   0.40060   0.00000  Uiso   1.00
C282   C     0.80271   0.29665   0.25482   0.00000  Uiso   1.00
C283   C     0.87934   0.27925   0.26849   0.00000  Uiso   1.00
C284   C     0.92016   0.32920   0.31658   0.00000  Uiso   1.00
C285   C     0.01118   0.39185   0.39020   0.00000  Uiso   1.00
C286   C     0.71635   0.30524   0.14223   0.00000  Uiso   1.00
C287   C     0.72038   0.29506   0.06122   0.00000  Uiso   1.00
C288   C     0.68851   0.35225   0.01451   0.00000  Uiso   1.00
C289   C     0.64543   0.42822   0.91331   0.00000  Uiso   1.00
C290   C     0.68375   0.36959   0.26523   0.00000  Uiso   1.00
C291   C     0.64513   0.29494   0.29044   0.00000  Uiso   1.00
C292   C     0.58247   0.28883   0.34058   0.00000  Uiso   1.00
C293   C     0.55562   0.21535   0.35638   0.00000  Uiso   1.00
C294   C     0.76809   0.36164   0.28800   0.00000  Uiso   1.00
C295   C     0.80881   0.41162   0.33608   0.00000  Uiso   1.00
C296   C     0.88548   0.39430   0.34982   0.00000  Uiso   1.00
C297   C     0.68172   0.37022   0.17541   0.00000  Uiso   1.00
C298   C     0.64985   0.42743   0.12881   0.00000  Uiso   1.00
C299   C     0.65382   0.41735   0.04775   0.00000  Uiso   1.00
H300   H     0.77446   0.19936   0.17831   0.00000  Uiso   1.00
H301   H     0.67982   0.10619   0.24731   0.00000  Uiso   1.00
H302   H     0.90612   0.22896   0.24280   0.00000  Uiso   1.00
H303   H     0.74718   0.24477   0.03556   0.00000  Uiso   1.00
H304   H     0.55963   0.03154   0.33845   0.00000  Uiso   1.00
H305   H     0.03682   0.29044   0.32893   0.00000  Uiso   1.00
H306   H     0.70166   0.32377   0.89193   0.00000  Uiso   1.00
H307   H     0.65679   0.42019   0.29107   0.00000  Uiso   1.00
H308   H     0.55568   0.33913   0.36625   0.00000  Uiso   1.00
H309   H     0.78200   0.46191   0.36174   0.00000  Uiso   1.00
H310   H     0.62305   0.47772   0.15451   0.00000  Uiso   1.00
H311   H     0.45888   0.22061   0.43500   0.00000  Uiso   1.00
H312   H     0.93608   0.47951   0.42547   0.00000  Uiso   1.00
H313   H     0.60092   0.51284   0.98847   0.00000  Uiso   1.00
O314   O     0.44488   0.06877   0.43417   0.00000  Uiso   1.00
O315   O     0.07094   0.40844   0.42165   0.00000  Uiso   1.00
O316   O     0.63122   0.45216   0.84833   0.00000  Uiso   1.00
N317   N     0.54978   0.08717   0.35084   0.00000  Uiso   1.00
N318   N     0.99593   0.32921   0.34195   0.00000  Uiso   1.00
N319   N     0.68260   0.36038   0.93339   0.00000  Uiso   1.00
N320   N     0.49557   0.18890   0.40279   0.00000  Uiso   1.00
N321   N     0.94172   0.43095   0.39390   0.00000  Uiso   1.00
N322   N     0.62839   0.46212   0.98534   0.00000  Uiso   1.00
C323   C     0.25250   0.75005   0.20415   0.00000  Uiso   1.00
C324   C     0.32025   0.77005   0.25726   0.00000  Uiso   1.00
C325   C     0.34700   0.84354   0.27299   0.00000  Uiso   1.00
C326   C     0.40969   0.84975   0.32314   0.00000  Uiso   1.00
C327   C     0.50959   0.89069   0.40060   0.00000  Uiso   1.00
C328   C     0.19729   0.70335   0.25482   0.00000  Uiso   1.00
C329   C     0.12066   0.72075   0.26849   0.00000  Uiso   1.00
C330   C     0.07984   0.67080   0.31658   0.00000  Uiso   1.00
C331   C     0.98882   0.60815   0.39020   0.00000  Uiso   1.00
C332   C     0.28365   0.69476   0.14223   0.00000  Uiso   1.00
C333   C     0.27962   0.70494   0.06122   0.00000  Uiso   1.00
C334   C     0.31149   0.64775   0.01451   0.00000  Uiso   1.00
C335   C     0.35457   0.57178   0.91331   0.00000  Uiso   1.00
C336   C     0.31625   0.63041   0.26523   0.00000  Uiso   1.00
C337   C     0.35487   0.70506   0.29044   0.00000  Uiso   1.00
C338   C     0.41753   0.71117   0.34058   0.00000  Uiso   1.00
C339   C     0.44438   0.78465   0.35638   0.00000  Uiso   1.00
C340   C     0.23191   0.63836   0.28800   0.00000  Uiso   1.00
C341   C     0.19119   0.58838   0.33608   0.00000  Uiso   1.00
C342   C     0.11452   0.60570   0.34982   0.00000  Uiso   1.00
C343   C     0.31828   0.62978   0.17541   0.00000  Uiso   1.00
C344   C     0.35015   0.57257   0.12881   0.00000  Uiso   1.00
C345   C     0.34618   0.58265   0.04775   0.00000  Uiso   1.00
H346   H     0.22554   0.80064   0.17831   0.00000  Uiso   1.00
H347   H     0.32018   0.89381   0.24731   0.00000  Uiso   1.00
H348   H     0.09388   0.77104   0.24280   0.00000  Uiso   1.00
H349   H     0.25282   0.75523   0.03556   0.00000  Uiso   1.00
H350   H     0.44037   0.96846   0.33845   0.00000  Uiso   1.00
H351   H     0.96318   0.70956   0.32893   0.00000  Uiso   1.00
H352   H     0.29834   0.67623   0.89193   0.00000  Uiso   1.00
H353   H     0.34321   0.57981   0.29107   0.00000  Uiso   1.00
H354   H     0.44432   0.66087   0.36625   0.00000  Uiso   1.00
H355   H     0.21800   0.53809   0.36174   0.00000  Uiso   1.00
H356   H     0.37695   0.52228   0.15451   0.00000  Uiso   1.00
H357   H     0.54112   0.77939   0.43500   0.00000  Uiso   1.00
H358   H     0.06392   0.52049   0.42547   0.00000  Uiso   1.00
H359   H     0.39908   0.48716   0.98847   0.00000  Uiso   1.00
O360   O     0.55512   0.93123   0.43417   0.00000  Uiso   1.00
O361   O     0.92906   0.59156   0.42165   0.00000  Uiso   1.00
O362   O     0.36878   0.54784   0.84833   0.00000  Uiso   1.00
N363   N     0.45022   0.91283   0.35084   0.00000  Uiso   1.00
N364   N     0.00407   0.67079   0.34195   0.00000  Uiso   1.00
N365   N     0.31740   0.63962   0.93339   0.00000  Uiso   1.00
N366   N     0.50443   0.81110   0.40279   0.00000  Uiso   1.00
N367   N     0.05828   0.56905   0.39390   0.00000  Uiso   1.00
N368   N     0.37161   0.53788   0.98534   0.00000  Uiso   1.00
