data_job_01854
_audit_creation_date              2018-12-19
_audit_creation_method            'Materials Studio'
_symmetry_space_group_name_H-M    'P1'
_symmetry_Int_Tables_number       1
_symmetry_cell_setting            triclinic
loop_
_symmetry_equiv_pos_as_xyz
  x,y,z
_cell_length_a                    10.5357
_cell_length_b                    24.8191
_cell_length_c                    20.6956
_cell_angle_alpha                 90.0000
_cell_angle_beta                  90.0000
_cell_angle_gamma                 90.0000
loop_
_atom_site_label
_atom_site_type_symbol
_atom_site_fract_x
_atom_site_fract_y
_atom_site_fract_z
_atom_site_U_iso_or_equiv
_atom_site_adp_type
_atom_site_occupancy
C1     C     0.71835   0.70445   0.65221   0.00000  Uiso   1.00
C2     C     0.57822   0.69903   0.66947   0.00000  Uiso   1.00
C3     C     0.53042   0.68379   0.72922   0.00000  Uiso   1.00
C4     C     0.39932   0.68121   0.73526   0.00000  Uiso   1.00
C5     C     0.19394   0.67091   0.76994   0.00000  Uiso   1.00
C6     C     0.73987   0.66785   0.59405   0.00000  Uiso   1.00
C7     C     0.82801   0.62640   0.59039   0.00000  Uiso   1.00
C8     C     0.83299   0.59759   0.53294   0.00000  Uiso   1.00
C9     C     0.87864   0.53891   0.45052   0.00000  Uiso   1.00
C10    C     0.73566   0.76191   0.62765   0.00000  Uiso   1.00
C11    C     0.82028   0.79954   0.65224   0.00000  Uiso   1.00
C12    C     0.82174   0.84992   0.62307   0.00000  Uiso   1.00
C13    C     0.86085   0.93727   0.59282   0.00000  Uiso   1.00
C14    C     0.57051   0.72698   0.55668   0.00000  Uiso   1.00
C15    C     0.49792   0.71127   0.61758   0.00000  Uiso   1.00
C16    C     0.36685   0.70872   0.62353   0.00000  Uiso   1.00
C17    C     0.31887   0.69348   0.68328   0.00000  Uiso   1.00
C18    C     0.65957   0.68009   0.54216   0.00000  Uiso   1.00
C19    C     0.66443   0.65133   0.48470   0.00000  Uiso   1.00
C20    C     0.75254   0.60985   0.48096   0.00000  Uiso   1.00
C21    C     0.65536   0.77415   0.57577   0.00000  Uiso   1.00
C22    C     0.65670   0.82447   0.54655   0.00000  Uiso   1.00
C23    C     0.74129   0.86218   0.57109   0.00000  Uiso   1.00
H24    H     0.78088   0.69492   0.69261   0.00000  Uiso   1.00
H25    H     0.59260   0.67431   0.76936   0.00000  Uiso   1.00
H26    H     0.89014   0.61694   0.63055   0.00000  Uiso   1.00
H27    H     0.88240   0.79005   0.69239   0.00000  Uiso   1.00
H28    H     0.34845   0.65685   0.83157   0.00000  Uiso   1.00
H29    H     0.97586   0.53589   0.53888   0.00000  Uiso   1.00
H30    H     0.95955   0.90093   0.66927   0.00000  Uiso   1.00
H31    H     0.50799   0.73651   0.51628   0.00000  Uiso   1.00
H32    H     0.30473   0.71819   0.58337   0.00000  Uiso   1.00
H33    H     0.60228   0.66082   0.44456   0.00000  Uiso   1.00
H34    H     0.59454   0.83393   0.50640   0.00000  Uiso   1.00
H35    H     0.11480   0.69246   0.68061   0.00000  Uiso   1.00
H36    H     0.74223   0.57150   0.38791   0.00000  Uiso   1.00
H37    H     0.72591   0.93654   0.51831   0.00000  Uiso   1.00
O38    O     0.10284   0.66183   0.80339   0.00000  Uiso   1.00
O39    O     0.92600   0.50315   0.41939   0.00000  Uiso   1.00
O40    O     0.90460   0.98207   0.59047   0.00000  Uiso   1.00
N41    N     0.32135   0.66775   0.78684   0.00000  Uiso   1.00
N42    N     0.90793   0.55466   0.51319   0.00000  Uiso   1.00
N43    N     0.89271   0.89594   0.63509   0.00000  Uiso   1.00
N44    N     0.19563   0.68692   0.70561   0.00000  Uiso   1.00
N45    N     0.78221   0.57382   0.43196   0.00000  Uiso   1.00
N46    N     0.76699   0.91510   0.55386   0.00000  Uiso   1.00
C47    C     0.78165   0.29555   0.65221   0.00000  Uiso   1.00
C48    C     0.92178   0.30097   0.66947   0.00000  Uiso   1.00
C49    C     0.96958   0.31621   0.72922   0.00000  Uiso   1.00
C50    C     0.10068   0.31879   0.73526   0.00000  Uiso   1.00
C51    C     0.30606   0.32909   0.76994   0.00000  Uiso   1.00
C52    C     0.76013   0.33215   0.59405   0.00000  Uiso   1.00
C53    C     0.67199   0.37360   0.59039   0.00000  Uiso   1.00
C54    C     0.66701   0.40241   0.53294   0.00000  Uiso   1.00
C55    C     0.62136   0.46109   0.45052   0.00000  Uiso   1.00
C56    C     0.76434   0.23809   0.62765   0.00000  Uiso   1.00
C57    C     0.67972   0.20046   0.65224   0.00000  Uiso   1.00
C58    C     0.67826   0.15008   0.62307   0.00000  Uiso   1.00
C59    C     0.63915   0.06273   0.59282   0.00000  Uiso   1.00
C60    C     0.92949   0.27302   0.55668   0.00000  Uiso   1.00
C61    C     0.00208   0.28873   0.61758   0.00000  Uiso   1.00
C62    C     0.13315   0.29128   0.62353   0.00000  Uiso   1.00
C63    C     0.18113   0.30652   0.68328   0.00000  Uiso   1.00
C64    C     0.84043   0.31991   0.54216   0.00000  Uiso   1.00
C65    C     0.83557   0.34867   0.48470   0.00000  Uiso   1.00
C66    C     0.74746   0.39015   0.48096   0.00000  Uiso   1.00
C67    C     0.84464   0.22585   0.57577   0.00000  Uiso   1.00
C68    C     0.84330   0.17553   0.54655   0.00000  Uiso   1.00
C69    C     0.75871   0.13782   0.57109   0.00000  Uiso   1.00
H70    H     0.71912   0.30508   0.69261   0.00000  Uiso   1.00
H71    H     0.90740   0.32569   0.76936   0.00000  Uiso   1.00
H72    H     0.60986   0.38306   0.63055   0.00000  Uiso   1.00
H73    H     0.61760   0.20995   0.69239   0.00000  Uiso   1.00
H74    H     0.15155   0.34315   0.83157   0.00000  Uiso   1.00
H75    H     0.52414   0.46411   0.53888   0.00000  Uiso   1.00
H76    H     0.54045   0.09907   0.66927   0.00000  Uiso   1.00
H77    H     0.99201   0.26349   0.51628   0.00000  Uiso   1.00
H78    H     0.19527   0.28181   0.58337   0.00000  Uiso   1.00
H79    H     0.89772   0.33918   0.44456   0.00000  Uiso   1.00
H80    H     0.90546   0.16607   0.50640   0.00000  Uiso   1.00
H81    H     0.38520   0.30754   0.68061   0.00000  Uiso   1.00
H82    H     0.75777   0.42850   0.38791   0.00000  Uiso   1.00
H83    H     0.77409   0.06346   0.51831   0.00000  Uiso   1.00
O84    O     0.39716   0.33817   0.80339   0.00000  Uiso   1.00
O85    O     0.57400   0.49685   0.41939   0.00000  Uiso   1.00
O86    O     0.59540   0.01793   0.59047   0.00000  Uiso   1.00
N87    N     0.17865   0.33225   0.78684   0.00000  Uiso   1.00
N88    N     0.59207   0.44534   0.51319   0.00000  Uiso   1.00
N89    N     0.60729   0.10406   0.63509   0.00000  Uiso   1.00
N90    N     0.30437   0.31308   0.70561   0.00000  Uiso   1.00
N91    N     0.71779   0.42618   0.43196   0.00000  Uiso   1.00
N92    N     0.73301   0.08490   0.55386   0.00000  Uiso   1.00
C93    C     0.78165   0.20445   0.84779   0.00000  Uiso   1.00
C94    C     0.92178   0.19903   0.83053   0.00000  Uiso   1.00
C95    C     0.96958   0.18379   0.77078   0.00000  Uiso   1.00
C96    C     0.10068   0.18121   0.76474   0.00000  Uiso   1.00
C97    C     0.30606   0.17091   0.73006   0.00000  Uiso   1.00
C98    C     0.76013   0.16785   0.90595   0.00000  Uiso   1.00
C99    C     0.67199   0.12640   0.90961   0.00000  Uiso   1.00
C100   C     0.66701   0.09759   0.96706   0.00000  Uiso   1.00
C101   C     0.62136   0.03891   0.04948   0.00000  Uiso   1.00
C102   C     0.76434   0.26191   0.87235   0.00000  Uiso   1.00
C103   C     0.67972   0.29954   0.84776   0.00000  Uiso   1.00
C104   C     0.67826   0.34992   0.87693   0.00000  Uiso   1.00
C105   C     0.63915   0.43727   0.90718   0.00000  Uiso   1.00
C106   C     0.92949   0.22698   0.94332   0.00000  Uiso   1.00
C107   C     0.00208   0.21127   0.88242   0.00000  Uiso   1.00
C108   C     0.13315   0.20872   0.87647   0.00000  Uiso   1.00
C109   C     0.18113   0.19348   0.81672   0.00000  Uiso   1.00
C110   C     0.84043   0.18009   0.95784   0.00000  Uiso   1.00
C111   C     0.83557   0.15133   0.01530   0.00000  Uiso   1.00
C112   C     0.74746   0.10985   0.01904   0.00000  Uiso   1.00
C113   C     0.84464   0.27415   0.92423   0.00000  Uiso   1.00
C114   C     0.84330   0.32447   0.95345   0.00000  Uiso   1.00
C115   C     0.75871   0.36218   0.92891   0.00000  Uiso   1.00
H116   H     0.71912   0.19492   0.80739   0.00000  Uiso   1.00
H117   H     0.90740   0.17431   0.73064   0.00000  Uiso   1.00
H118   H     0.60986   0.11694   0.86945   0.00000  Uiso   1.00
H119   H     0.61760   0.29005   0.80761   0.00000  Uiso   1.00
H120   H     0.15155   0.15685   0.66843   0.00000  Uiso   1.00
H121   H     0.52414   0.03589   0.96112   0.00000  Uiso   1.00
H122   H     0.54045   0.40093   0.83073   0.00000  Uiso   1.00
H123   H     0.99201   0.23651   0.98372   0.00000  Uiso   1.00
H124   H     0.19527   0.21819   0.91663   0.00000  Uiso   1.00
H125   H     0.89772   0.16082   0.05544   0.00000  Uiso   1.00
H126   H     0.90546   0.33393   0.99360   0.00000  Uiso   1.00
H127   H     0.38520   0.19246   0.81939   0.00000  Uiso   1.00
H128   H     0.75777   0.07150   0.11209   0.00000  Uiso   1.00
H129   H     0.77409   0.43654   0.98169   0.00000  Uiso   1.00
O130   O     0.39716   0.16183   0.69661   0.00000  Uiso   1.00
O131   O     0.57400   0.00315   0.08061   0.00000  Uiso   1.00
O132   O     0.59540   0.48207   0.90953   0.00000  Uiso   1.00
N133   N     0.17865   0.16775   0.71316   0.00000  Uiso   1.00
N134   N     0.59207   0.05466   0.98681   0.00000  Uiso   1.00
N135   N     0.60729   0.39594   0.86491   0.00000  Uiso   1.00
N136   N     0.30437   0.18692   0.79439   0.00000  Uiso   1.00
N137   N     0.71779   0.07382   0.06804   0.00000  Uiso   1.00
N138   N     0.73301   0.41510   0.94614   0.00000  Uiso   1.00
C139   C     0.71835   0.79555   0.84779   0.00000  Uiso   1.00
C140   C     0.57822   0.80097   0.83053   0.00000  Uiso   1.00
C141   C     0.53042   0.81621   0.77078   0.00000  Uiso   1.00
C142   C     0.39932   0.81879   0.76474   0.00000  Uiso   1.00
C143   C     0.19394   0.82909   0.73006   0.00000  Uiso   1.00
C144   C     0.73987   0.83215   0.90595   0.00000  Uiso   1.00
C145   C     0.82801   0.87360   0.90961   0.00000  Uiso   1.00
C146   C     0.83299   0.90241   0.96706   0.00000  Uiso   1.00
C147   C     0.87864   0.96109   0.04948   0.00000  Uiso   1.00
C148   C     0.73566   0.73809   0.87235   0.00000  Uiso   1.00
C149   C     0.82028   0.70046   0.84776   0.00000  Uiso   1.00
C150   C     0.82174   0.65008   0.87693   0.00000  Uiso   1.00
C151   C     0.86085   0.56273   0.90718   0.00000  Uiso   1.00
C152   C     0.57051   0.77302   0.94332   0.00000  Uiso   1.00
C153   C     0.49792   0.78873   0.88242   0.00000  Uiso   1.00
C154   C     0.36685   0.79128   0.87647   0.00000  Uiso   1.00
C155   C     0.31887   0.80652   0.81672   0.00000  Uiso   1.00
C156   C     0.65957   0.81991   0.95784   0.00000  Uiso   1.00
C157   C     0.66443   0.84867   0.01530   0.00000  Uiso   1.00
C158   C     0.75254   0.89015   0.01904   0.00000  Uiso   1.00
C159   C     0.65536   0.72585   0.92423   0.00000  Uiso   1.00
C160   C     0.65670   0.67553   0.95345   0.00000  Uiso   1.00
C161   C     0.74129   0.63782   0.92891   0.00000  Uiso   1.00
H162   H     0.78088   0.80508   0.80739   0.00000  Uiso   1.00
H163   H     0.59260   0.82569   0.73064   0.00000  Uiso   1.00
H164   H     0.89014   0.88306   0.86945   0.00000  Uiso   1.00
H165   H     0.88240   0.70995   0.80761   0.00000  Uiso   1.00
H166   H     0.34845   0.84315   0.66843   0.00000  Uiso   1.00
H167   H     0.97586   0.96411   0.96112   0.00000  Uiso   1.00
H168   H     0.95955   0.59907   0.83073   0.00000  Uiso   1.00
H169   H     0.50799   0.76349   0.98372   0.00000  Uiso   1.00
H170   H     0.30473   0.78181   0.91663   0.00000  Uiso   1.00
H171   H     0.60228   0.83918   0.05544   0.00000  Uiso   1.00
H172   H     0.59454   0.66607   0.99360   0.00000  Uiso   1.00
H173   H     0.11480   0.80754   0.81939   0.00000  Uiso   1.00
H174   H     0.74223   0.92850   0.11209   0.00000  Uiso   1.00
H175   H     0.72591   0.56346   0.98169   0.00000  Uiso   1.00
O176   O     0.10284   0.83817   0.69661   0.00000  Uiso   1.00
O177   O     0.92600   0.99685   0.08061   0.00000  Uiso   1.00
O178   O     0.90460   0.51793   0.90953   0.00000  Uiso   1.00
N179   N     0.32135   0.83225   0.71316   0.00000  Uiso   1.00
N180   N     0.90793   0.94534   0.98681   0.00000  Uiso   1.00
N181   N     0.89271   0.60406   0.86491   0.00000  Uiso   1.00
N182   N     0.19563   0.81308   0.79439   0.00000  Uiso   1.00
N183   N     0.78221   0.92618   0.06804   0.00000  Uiso   1.00
N184   N     0.76699   0.58490   0.94614   0.00000  Uiso   1.00
C185   C     0.28165   0.29555   0.34779   0.00000  Uiso   1.00
C186   C     0.42178   0.30097   0.33053   0.00000  Uiso   1.00
C187   C     0.46958   0.31621   0.27078   0.00000  Uiso   1.00
C188   C     0.60068   0.31879   0.26474   0.00000  Uiso   1.00
C189   C     0.80606   0.32909   0.23006   0.00000  Uiso   1.00
C190   C     0.26013   0.33215   0.40595   0.00000  Uiso   1.00
C191   C     0.17199   0.37360   0.40961   0.00000  Uiso   1.00
C192   C     0.16701   0.40241   0.46706   0.00000  Uiso   1.00
C193   C     0.12136   0.46109   0.54948   0.00000  Uiso   1.00
C194   C     0.26434   0.23809   0.37235   0.00000  Uiso   1.00
C195   C     0.17972   0.20046   0.34776   0.00000  Uiso   1.00
C196   C     0.17826   0.15008   0.37693   0.00000  Uiso   1.00
C197   C     0.13915   0.06273   0.40718   0.00000  Uiso   1.00
C198   C     0.42949   0.27302   0.44332   0.00000  Uiso   1.00
C199   C     0.50208   0.28873   0.38242   0.00000  Uiso   1.00
C200   C     0.63315   0.29128   0.37647   0.00000  Uiso   1.00
C201   C     0.68113   0.30652   0.31672   0.00000  Uiso   1.00
C202   C     0.34043   0.31991   0.45784   0.00000  Uiso   1.00
C203   C     0.33557   0.34867   0.51530   0.00000  Uiso   1.00
C204   C     0.24746   0.39015   0.51904   0.00000  Uiso   1.00
C205   C     0.34464   0.22585   0.42423   0.00000  Uiso   1.00
C206   C     0.34330   0.17553   0.45345   0.00000  Uiso   1.00
C207   C     0.25871   0.13782   0.42891   0.00000  Uiso   1.00
H208   H     0.21912   0.30508   0.30739   0.00000  Uiso   1.00
H209   H     0.40740   0.32569   0.23064   0.00000  Uiso   1.00
H210   H     0.10986   0.38306   0.36945   0.00000  Uiso   1.00
H211   H     0.11760   0.20995   0.30761   0.00000  Uiso   1.00
H212   H     0.65155   0.34315   0.16843   0.00000  Uiso   1.00
H213   H     0.02414   0.46411   0.46112   0.00000  Uiso   1.00
H214   H     0.04045   0.09907   0.33073   0.00000  Uiso   1.00
H215   H     0.49201   0.26349   0.48372   0.00000  Uiso   1.00
H216   H     0.69527   0.28181   0.41663   0.00000  Uiso   1.00
H217   H     0.39772   0.33918   0.55544   0.00000  Uiso   1.00
H218   H     0.40546   0.16607   0.49360   0.00000  Uiso   1.00
H219   H     0.88520   0.30754   0.31939   0.00000  Uiso   1.00
H220   H     0.25777   0.42850   0.61209   0.00000  Uiso   1.00
H221   H     0.27409   0.06346   0.48169   0.00000  Uiso   1.00
O222   O     0.89716   0.33817   0.19661   0.00000  Uiso   1.00
O223   O     0.07400   0.49685   0.58061   0.00000  Uiso   1.00
O224   O     0.09540   0.01793   0.40953   0.00000  Uiso   1.00
N225   N     0.67865   0.33225   0.21316   0.00000  Uiso   1.00
N226   N     0.09207   0.44534   0.48681   0.00000  Uiso   1.00
N227   N     0.10729   0.10406   0.36491   0.00000  Uiso   1.00
N228   N     0.80437   0.31308   0.29439   0.00000  Uiso   1.00
N229   N     0.21779   0.42618   0.56804   0.00000  Uiso   1.00
N230   N     0.23301   0.08490   0.44614   0.00000  Uiso   1.00
C231   C     0.21835   0.70445   0.34779   0.00000  Uiso   1.00
C232   C     0.07822   0.69903   0.33053   0.00000  Uiso   1.00
C233   C     0.03042   0.68379   0.27078   0.00000  Uiso   1.00
C234   C     0.89932   0.68121   0.26474   0.00000  Uiso   1.00
C235   C     0.69394   0.67091   0.23006   0.00000  Uiso   1.00
C236   C     0.23987   0.66785   0.40595   0.00000  Uiso   1.00
C237   C     0.32801   0.62640   0.40961   0.00000  Uiso   1.00
C238   C     0.33299   0.59759   0.46706   0.00000  Uiso   1.00
C239   C     0.37864   0.53891   0.54948   0.00000  Uiso   1.00
C240   C     0.23566   0.76191   0.37235   0.00000  Uiso   1.00
C241   C     0.32028   0.79954   0.34776   0.00000  Uiso   1.00
C242   C     0.32174   0.84992   0.37693   0.00000  Uiso   1.00
C243   C     0.36085   0.93727   0.40718   0.00000  Uiso   1.00
C244   C     0.07051   0.72698   0.44332   0.00000  Uiso   1.00
C245   C     0.99792   0.71127   0.38242   0.00000  Uiso   1.00
C246   C     0.86685   0.70872   0.37647   0.00000  Uiso   1.00
C247   C     0.81887   0.69348   0.31672   0.00000  Uiso   1.00
C248   C     0.15957   0.68009   0.45784   0.00000  Uiso   1.00
C249   C     0.16443   0.65133   0.51530   0.00000  Uiso   1.00
C250   C     0.25254   0.60985   0.51904   0.00000  Uiso   1.00
C251   C     0.15536   0.77415   0.42423   0.00000  Uiso   1.00
C252   C     0.15670   0.82447   0.45345   0.00000  Uiso   1.00
C253   C     0.24129   0.86218   0.42891   0.00000  Uiso   1.00
H254   H     0.28088   0.69492   0.30739   0.00000  Uiso   1.00
H255   H     0.09260   0.67431   0.23064   0.00000  Uiso   1.00
H256   H     0.39014   0.61694   0.36945   0.00000  Uiso   1.00
H257   H     0.38240   0.79005   0.30761   0.00000  Uiso   1.00
H258   H     0.84845   0.65685   0.16843   0.00000  Uiso   1.00
H259   H     0.47586   0.53589   0.46112   0.00000  Uiso   1.00
H260   H     0.45955   0.90093   0.33073   0.00000  Uiso   1.00
H261   H     0.00799   0.73651   0.48372   0.00000  Uiso   1.00
H262   H     0.80473   0.71819   0.41663   0.00000  Uiso   1.00
H263   H     0.10228   0.66082   0.55544   0.00000  Uiso   1.00
H264   H     0.09454   0.83393   0.49360   0.00000  Uiso   1.00
H265   H     0.61480   0.69246   0.31939   0.00000  Uiso   1.00
H266   H     0.24223   0.57150   0.61209   0.00000  Uiso   1.00
H267   H     0.22591   0.93654   0.48169   0.00000  Uiso   1.00
O268   O     0.60284   0.66183   0.19661   0.00000  Uiso   1.00
O269   O     0.42600   0.50315   0.58061   0.00000  Uiso   1.00
O270   O     0.40460   0.98207   0.40953   0.00000  Uiso   1.00
N271   N     0.82135   0.66775   0.21316   0.00000  Uiso   1.00
N272   N     0.40793   0.55466   0.48681   0.00000  Uiso   1.00
N273   N     0.39271   0.89594   0.36491   0.00000  Uiso   1.00
N274   N     0.69563   0.68692   0.29439   0.00000  Uiso   1.00
N275   N     0.28221   0.57382   0.56804   0.00000  Uiso   1.00
N276   N     0.26699   0.91510   0.44614   0.00000  Uiso   1.00
C277   C     0.21835   0.79555   0.15221   0.00000  Uiso   1.00
C278   C     0.07822   0.80097   0.16947   0.00000  Uiso   1.00
C279   C     0.03042   0.81621   0.22922   0.00000  Uiso   1.00
C280   C     0.89932   0.81879   0.23526   0.00000  Uiso   1.00
C281   C     0.69394   0.82909   0.26994   0.00000  Uiso   1.00
C282   C     0.23987   0.83215   0.09405   0.00000  Uiso   1.00
C283   C     0.32801   0.87360   0.09039   0.00000  Uiso   1.00
C284   C     0.33299   0.90241   0.03294   0.00000  Uiso   1.00
C285   C     0.37864   0.96109   0.95052   0.00000  Uiso   1.00
C286   C     0.23566   0.73809   0.12765   0.00000  Uiso   1.00
C287   C     0.32028   0.70046   0.15224   0.00000  Uiso   1.00
C288   C     0.32174   0.65008   0.12307   0.00000  Uiso   1.00
C289   C     0.36085   0.56273   0.09282   0.00000  Uiso   1.00
C290   C     0.07051   0.77302   0.05668   0.00000  Uiso   1.00
C291   C     0.99792   0.78873   0.11758   0.00000  Uiso   1.00
C292   C     0.86685   0.79128   0.12353   0.00000  Uiso   1.00
C293   C     0.81887   0.80652   0.18328   0.00000  Uiso   1.00
C294   C     0.15957   0.81991   0.04216   0.00000  Uiso   1.00
C295   C     0.16443   0.84867   0.98470   0.00000  Uiso   1.00
C296   C     0.25254   0.89015   0.98096   0.00000  Uiso   1.00
C297   C     0.15536   0.72585   0.07577   0.00000  Uiso   1.00
C298   C     0.15670   0.67553   0.04655   0.00000  Uiso   1.00
C299   C     0.24129   0.63782   0.07109   0.00000  Uiso   1.00
H300   H     0.28088   0.80508   0.19261   0.00000  Uiso   1.00
H301   H     0.09260   0.82569   0.26936   0.00000  Uiso   1.00
H302   H     0.39014   0.88306   0.13055   0.00000  Uiso   1.00
H303   H     0.38240   0.70995   0.19239   0.00000  Uiso   1.00
H304   H     0.84845   0.84315   0.33157   0.00000  Uiso   1.00
H305   H     0.47586   0.96411   0.03888   0.00000  Uiso   1.00
H306   H     0.45955   0.59907   0.16927   0.00000  Uiso   1.00
H307   H     0.00799   0.76349   0.01628   0.00000  Uiso   1.00
H308   H     0.80473   0.78181   0.08337   0.00000  Uiso   1.00
H309   H     0.10228   0.83918   0.94456   0.00000  Uiso   1.00
H310   H     0.09454   0.66607   0.00640   0.00000  Uiso   1.00
H311   H     0.61480   0.80754   0.18061   0.00000  Uiso   1.00
H312   H     0.24223   0.92850   0.88791   0.00000  Uiso   1.00
H313   H     0.22591   0.56346   0.01831   0.00000  Uiso   1.00
O314   O     0.60284   0.83817   0.30339   0.00000  Uiso   1.00
O315   O     0.42600   0.99685   0.91939   0.00000  Uiso   1.00
O316   O     0.40460   0.51793   0.09047   0.00000  Uiso   1.00
N317   N     0.82135   0.83225   0.28684   0.00000  Uiso   1.00
N318   N     0.40793   0.94534   0.01319   0.00000  Uiso   1.00
N319   N     0.39271   0.60406   0.13509   0.00000  Uiso   1.00
N320   N     0.69563   0.81308   0.20561   0.00000  Uiso   1.00
N321   N     0.28221   0.92618   0.93196   0.00000  Uiso   1.00
N322   N     0.26699   0.58490   0.05386   0.00000  Uiso   1.00
C323   C     0.28165   0.20445   0.15221   0.00000  Uiso   1.00
C324   C     0.42178   0.19903   0.16947   0.00000  Uiso   1.00
C325   C     0.46958   0.18379   0.22922   0.00000  Uiso   1.00
C326   C     0.60068   0.18121   0.23526   0.00000  Uiso   1.00
C327   C     0.80606   0.17091   0.26994   0.00000  Uiso   1.00
C328   C     0.26013   0.16785   0.09405   0.00000  Uiso   1.00
C329   C     0.17199   0.12640   0.09039   0.00000  Uiso   1.00
C330   C     0.16701   0.09759   0.03294   0.00000  Uiso   1.00
C331   C     0.12136   0.03891   0.95052   0.00000  Uiso   1.00
C332   C     0.26434   0.26191   0.12765   0.00000  Uiso   1.00
C333   C     0.17972   0.29954   0.15224   0.00000  Uiso   1.00
C334   C     0.17826   0.34992   0.12307   0.00000  Uiso   1.00
C335   C     0.13915   0.43727   0.09282   0.00000  Uiso   1.00
C336   C     0.42949   0.22698   0.05668   0.00000  Uiso   1.00
C337   C     0.50208   0.21127   0.11758   0.00000  Uiso   1.00
C338   C     0.63315   0.20872   0.12353   0.00000  Uiso   1.00
C339   C     0.68113   0.19348   0.18328   0.00000  Uiso   1.00
C340   C     0.34043   0.18009   0.04216   0.00000  Uiso   1.00
C341   C     0.33557   0.15133   0.98470   0.00000  Uiso   1.00
C342   C     0.24746   0.10985   0.98096   0.00000  Uiso   1.00
C343   C     0.34464   0.27415   0.07577   0.00000  Uiso   1.00
C344   C     0.34330   0.32447   0.04655   0.00000  Uiso   1.00
C345   C     0.25871   0.36218   0.07109   0.00000  Uiso   1.00
H346   H     0.21912   0.19492   0.19261   0.00000  Uiso   1.00
H347   H     0.40740   0.17431   0.26936   0.00000  Uiso   1.00
H348   H     0.10986   0.11694   0.13055   0.00000  Uiso   1.00
H349   H     0.11760   0.29005   0.19239   0.00000  Uiso   1.00
H350   H     0.65155   0.15685   0.33157   0.00000  Uiso   1.00
H351   H     0.02414   0.03589   0.03888   0.00000  Uiso   1.00
H352   H     0.04045   0.40093   0.16927   0.00000  Uiso   1.00
H353   H     0.49201   0.23651   0.01628   0.00000  Uiso   1.00
H354   H     0.69527   0.21819   0.08337   0.00000  Uiso   1.00
H355   H     0.39772   0.16082   0.94456   0.00000  Uiso   1.00
H356   H     0.40546   0.33393   0.00640   0.00000  Uiso   1.00
H357   H     0.88520   0.19246   0.18061   0.00000  Uiso   1.00
H358   H     0.25777   0.07150   0.88791   0.00000  Uiso   1.00
H359   H     0.27409   0.43654   0.01831   0.00000  Uiso   1.00
O360   O     0.89716   0.16183   0.30339   0.00000  Uiso   1.00
O361   O     0.07400   0.00315   0.91939   0.00000  Uiso   1.00
O362   O     0.09540   0.48207   0.09047   0.00000  Uiso   1.00
N363   N     0.67865   0.16775   0.28684   0.00000  Uiso   1.00
N364   N     0.09207   0.05466   0.01319   0.00000  Uiso   1.00
N365   N     0.10729   0.39594   0.13509   0.00000  Uiso   1.00
N366   N     0.80437   0.18692   0.20561   0.00000  Uiso   1.00
N367   N     0.21779   0.07382   0.93196   0.00000  Uiso   1.00
N368   N     0.23301   0.41510   0.05386   0.00000  Uiso   1.00
