data_job_04754
_audit_creation_date              2018-12-19
_audit_creation_method            'Materials Studio'
_symmetry_space_group_name_H-M    'P1'
_symmetry_Int_Tables_number       1
_symmetry_cell_setting            triclinic
loop_
_symmetry_equiv_pos_as_xyz
  x,y,z
_cell_length_a                    18.8327
_cell_length_b                    28.0563
_cell_length_c                    10.1597
_cell_angle_alpha                 90.0000
_cell_angle_beta                  87.5134
_cell_angle_gamma                 90.0000
loop_
_atom_site_label
_atom_site_type_symbol
_atom_site_fract_x
_atom_site_fract_y
_atom_site_fract_z
_atom_site_U_iso_or_equiv
_atom_site_adp_type
_atom_site_occupancy
C1     C     0.65442   0.65097   0.61681   0.00000  Uiso   1.00
C2     C     0.64905   0.59782   0.58740   0.00000  Uiso   1.00
C3     C     0.69592   0.57184   0.50633   0.00000  Uiso   1.00
C4     C     0.68176   0.52360   0.49211   0.00000  Uiso   1.00
C5     C     0.68236   0.44434   0.43656   0.00000  Uiso   1.00
C6     C     0.58414   0.67278   0.57820   0.00000  Uiso   1.00
C7     C     0.57644   0.70982   0.48941   0.00000  Uiso   1.00
C8     C     0.50763   0.72467   0.46746   0.00000  Uiso   1.00
C9     C     0.40746   0.76181   0.39770   0.00000  Uiso   1.00
C10    C     0.65572   0.65525   0.76631   0.00000  Uiso   1.00
C11    C     0.70820   0.67757   0.83570   0.00000  Uiso   1.00
C12    C     0.69964   0.67768   0.97213   0.00000  Uiso   1.00
C13    C     0.71062   0.68761   0.19445   0.00000  Uiso   1.00
C14    C     0.54592   0.61149   0.73572   0.00000  Uiso   1.00
C15    C     0.59011   0.57638   0.65199   0.00000  Uiso   1.00
C16    C     0.57587   0.52816   0.63789   0.00000  Uiso   1.00
C17    C     0.62272   0.50211   0.55682   0.00000  Uiso   1.00
C18    C     0.52520   0.65134   0.64278   0.00000  Uiso   1.00
C19    C     0.45639   0.66614   0.62097   0.00000  Uiso   1.00
C20    C     0.44859   0.70319   0.53216   0.00000  Uiso   1.00
C21    C     0.59679   0.63381   0.83090   0.00000  Uiso   1.00
C22    C     0.58815   0.63389   0.96725   0.00000  Uiso   1.00
C23    C     0.64060   0.65620   0.03683   0.00000  Uiso   1.00
H24    H     0.70030   0.66767   0.56653   0.00000  Uiso   1.00
H25    H     0.74152   0.58845   0.45636   0.00000  Uiso   1.00
H26    H     0.62206   0.72641   0.43945   0.00000  Uiso   1.00
H27    H     0.75379   0.69416   0.78568   0.00000  Uiso   1.00
H28    H     0.76121   0.49117   0.36266   0.00000  Uiso   1.00
H29    H     0.50931   0.78208   0.32705   0.00000  Uiso   1.00
H30    H     0.78711   0.71408   0.05714   0.00000  Uiso   1.00
H31    H     0.50003   0.59480   0.78601   0.00000  Uiso   1.00
H32    H     0.53026   0.51158   0.68788   0.00000  Uiso   1.00
H33    H     0.41080   0.64954   0.67097   0.00000  Uiso   1.00
H34    H     0.54254   0.61730   0.01720   0.00000  Uiso   1.00
H35    H     0.58975   0.42878   0.55057   0.00000  Uiso   1.00
H36    H     0.33785   0.71969   0.51496   0.00000  Uiso   1.00
H37    H     0.61564   0.65169   0.24505   0.00000  Uiso   1.00
O38    O     0.69897   0.40655   0.38807   0.00000  Uiso   1.00
O39    O     0.36849   0.78822   0.34137   0.00000  Uiso   1.00
O40    O     0.73295   0.69900   0.29923   0.00000  Uiso   1.00
N41    N     0.71672   0.48791   0.42037   0.00000  Uiso   1.00
N42    N     0.48121   0.75988   0.38706   0.00000  Uiso   1.00
N43    N     0.74092   0.69632   0.06964   0.00000  Uiso   1.00
N44    N     0.62445   0.45433   0.52148   0.00000  Uiso   1.00
N45    N     0.38894   0.72631   0.48817   0.00000  Uiso   1.00
N46    N     0.64865   0.66275   0.17075   0.00000  Uiso   1.00
C47    C     0.03239   0.14613   0.75212   0.00000  Uiso   1.00
C48    C     0.02513   0.09257   0.73096   0.00000  Uiso   1.00
C49    C     0.07094   0.06438   0.65381   0.00000  Uiso   1.00
C50    C     0.05510   0.01613   0.64711   0.00000  Uiso   1.00
C51    C     0.05287   0.93591   0.60385   0.00000  Uiso   1.00
C52    C     0.96278   0.16812   0.71054   0.00000  Uiso   1.00
C53    C     0.95616   0.20344   0.61624   0.00000  Uiso   1.00
C54    C     0.88782   0.21879   0.59236   0.00000  Uiso   1.00
C55    C     0.78879   0.25588   0.51748   0.00000  Uiso   1.00
C56    C     0.03413   0.15335   0.90070   0.00000  Uiso   1.00
C57    C     0.08751   0.17627   0.96628   0.00000  Uiso   1.00
C58    C     0.07924   0.17920   0.10251   0.00000  Uiso   1.00
C59    C     0.09100   0.19337   0.32288   0.00000  Uiso   1.00
C60    C     0.92278   0.11059   0.87742   0.00000  Uiso   1.00
C61    C     0.96560   0.07327   0.79902   0.00000  Uiso   1.00
C62    C     0.94968   0.02505   0.79244   0.00000  Uiso   1.00
C63    C     0.99546   0.99679   0.71530   0.00000  Uiso   1.00
C64    C     0.90325   0.14881   0.77860   0.00000  Uiso   1.00
C65    C     0.83490   0.16412   0.75487   0.00000  Uiso   1.00
C66    C     0.82818   0.19945   0.66055   0.00000  Uiso   1.00
C67    C     0.97460   0.13405   0.96877   0.00000  Uiso   1.00
C68    C     0.96625   0.13695   0.10492   0.00000  Uiso   1.00
C69    C     0.01960   0.15987   0.17070   0.00000  Uiso   1.00
H70    H     0.07873   0.16116   0.69913   0.00000  Uiso   1.00
H71    H     0.11701   0.07933   0.60114   0.00000  Uiso   1.00
H72    H     0.00224   0.21838   0.56359   0.00000  Uiso   1.00
H73    H     0.13357   0.19121   0.91358   0.00000  Uiso   1.00
H74    H     0.13317   0.98009   0.52249   0.00000  Uiso   1.00
H75    H     0.89119   0.27329   0.44334   0.00000  Uiso   1.00
H76    H     0.16812   0.21601   0.18136   0.00000  Uiso   1.00
H77    H     0.87643   0.09556   0.93041   0.00000  Uiso   1.00
H78    H     0.90361   0.01012   0.84512   0.00000  Uiso   1.00
H79    H     0.78884   0.14917   0.80757   0.00000  Uiso   1.00
H80    H     0.92017   0.12200   0.15756   0.00000  Uiso   1.00
H81    H     0.95997   0.92392   0.72050   0.00000  Uiso   1.00
H82    H     0.71799   0.21712   0.64136   0.00000  Uiso   1.00
H83    H     0.99491   0.15984   0.37938   0.00000  Uiso   1.00
O84    O     0.06809   0.89699   0.56118   0.00000  Uiso   1.00
O85    O     0.75062   0.28166   0.45736   0.00000  Uiso   1.00
O86    O     0.11394   0.20650   0.42563   0.00000  Uiso   1.00
N87    N     0.08869   0.97860   0.58082   0.00000  Uiso   1.00
N88    N     0.86245   0.25271   0.50680   0.00000  Uiso   1.00
N89    N     0.12134   0.19917   0.19679   0.00000  Uiso   1.00
N90    N     0.99549   0.94837   0.68737   0.00000  Uiso   1.00
N91    N     0.76925   0.22249   0.61335   0.00000  Uiso   1.00
N92    N     0.02814   0.16894   0.30334   0.00000  Uiso   1.00
C93    C     0.34558   0.15097   0.88319   0.00000  Uiso   1.00
C94    C     0.35095   0.09782   0.91260   0.00000  Uiso   1.00
C95    C     0.30408   0.07184   0.99367   0.00000  Uiso   1.00
C96    C     0.31824   0.02360   0.00789   0.00000  Uiso   1.00
C97    C     0.31764   0.94434   0.06344   0.00000  Uiso   1.00
C98    C     0.41586   0.17278   0.92180   0.00000  Uiso   1.00
C99    C     0.42356   0.20982   0.01059   0.00000  Uiso   1.00
C100   C     0.49237   0.22467   0.03254   0.00000  Uiso   1.00
C101   C     0.59254   0.26181   0.10230   0.00000  Uiso   1.00
C102   C     0.34428   0.15525   0.73369   0.00000  Uiso   1.00
C103   C     0.29180   0.17757   0.66430   0.00000  Uiso   1.00
C104   C     0.30036   0.17768   0.52787   0.00000  Uiso   1.00
C105   C     0.28938   0.18761   0.30555   0.00000  Uiso   1.00
C106   C     0.45408   0.11149   0.76428   0.00000  Uiso   1.00
C107   C     0.40989   0.07638   0.84801   0.00000  Uiso   1.00
C108   C     0.42413   0.02816   0.86211   0.00000  Uiso   1.00
C109   C     0.37728   0.00211   0.94318   0.00000  Uiso   1.00
C110   C     0.47480   0.15134   0.85722   0.00000  Uiso   1.00
C111   C     0.54361   0.16614   0.87903   0.00000  Uiso   1.00
C112   C     0.55141   0.20319   0.96784   0.00000  Uiso   1.00
C113   C     0.40321   0.13381   0.66910   0.00000  Uiso   1.00
C114   C     0.41185   0.13389   0.53275   0.00000  Uiso   1.00
C115   C     0.35940   0.15620   0.46317   0.00000  Uiso   1.00
H116   H     0.29970   0.16767   0.93347   0.00000  Uiso   1.00
H117   H     0.25848   0.08845   0.04364   0.00000  Uiso   1.00
H118   H     0.37794   0.22641   0.06055   0.00000  Uiso   1.00
H119   H     0.24621   0.19416   0.71432   0.00000  Uiso   1.00
H120   H     0.23879   0.99117   0.13734   0.00000  Uiso   1.00
H121   H     0.49069   0.28208   0.17295   0.00000  Uiso   1.00
H122   H     0.21289   0.21408   0.44286   0.00000  Uiso   1.00
H123   H     0.49997   0.09480   0.71399   0.00000  Uiso   1.00
H124   H     0.46974   0.01158   0.81212   0.00000  Uiso   1.00
H125   H     0.58920   0.14954   0.82903   0.00000  Uiso   1.00
H126   H     0.45746   0.11730   0.48280   0.00000  Uiso   1.00
H127   H     0.41025   0.92878   0.94943   0.00000  Uiso   1.00
H128   H     0.66215   0.21969   0.98504   0.00000  Uiso   1.00
H129   H     0.38436   0.15169   0.25495   0.00000  Uiso   1.00
O130   O     0.30103   0.90655   0.11193   0.00000  Uiso   1.00
O131   O     0.63151   0.28822   0.15863   0.00000  Uiso   1.00
O132   O     0.26705   0.19900   0.20077   0.00000  Uiso   1.00
N133   N     0.28328   0.98791   0.07963   0.00000  Uiso   1.00
N134   N     0.51879   0.25988   0.11294   0.00000  Uiso   1.00
N135   N     0.25908   0.19632   0.43036   0.00000  Uiso   1.00
N136   N     0.37555   0.95433   0.97852   0.00000  Uiso   1.00
N137   N     0.61106   0.22631   0.01183   0.00000  Uiso   1.00
N138   N     0.35135   0.16275   0.32925   0.00000  Uiso   1.00
C139   C     0.96761   0.64613   0.74788   0.00000  Uiso   1.00
C140   C     0.97487   0.59257   0.76904   0.00000  Uiso   1.00
C141   C     0.92906   0.56438   0.84619   0.00000  Uiso   1.00
C142   C     0.94490   0.51613   0.85289   0.00000  Uiso   1.00
C143   C     0.94713   0.43591   0.89615   0.00000  Uiso   1.00
C144   C     0.03722   0.66812   0.78946   0.00000  Uiso   1.00
C145   C     0.04384   0.70344   0.88376   0.00000  Uiso   1.00
C146   C     0.11218   0.71879   0.90764   0.00000  Uiso   1.00
C147   C     0.21121   0.75588   0.98252   0.00000  Uiso   1.00
C148   C     0.96587   0.65335   0.59930   0.00000  Uiso   1.00
C149   C     0.91249   0.67627   0.53372   0.00000  Uiso   1.00
C150   C     0.92076   0.67920   0.39749   0.00000  Uiso   1.00
C151   C     0.90900   0.69337   0.17712   0.00000  Uiso   1.00
C152   C     0.07722   0.61059   0.62258   0.00000  Uiso   1.00
C153   C     0.03440   0.57327   0.70098   0.00000  Uiso   1.00
C154   C     0.05032   0.52505   0.70756   0.00000  Uiso   1.00
C155   C     0.00454   0.49679   0.78470   0.00000  Uiso   1.00
C156   C     0.09675   0.64881   0.72140   0.00000  Uiso   1.00
C157   C     0.16510   0.66412   0.74513   0.00000  Uiso   1.00
C158   C     0.17182   0.69945   0.83945   0.00000  Uiso   1.00
C159   C     0.02540   0.63405   0.53123   0.00000  Uiso   1.00
C160   C     0.03375   0.63695   0.39508   0.00000  Uiso   1.00
C161   C     0.98040   0.65987   0.32930   0.00000  Uiso   1.00
H162   H     0.92127   0.66116   0.80087   0.00000  Uiso   1.00
H163   H     0.88299   0.57933   0.89886   0.00000  Uiso   1.00
H164   H     0.99776   0.71838   0.93641   0.00000  Uiso   1.00
H165   H     0.86643   0.69121   0.58642   0.00000  Uiso   1.00
H166   H     0.86683   0.48009   0.97751   0.00000  Uiso   1.00
H167   H     0.10881   0.77329   0.05666   0.00000  Uiso   1.00
H168   H     0.83188   0.71601   0.31864   0.00000  Uiso   1.00
H169   H     0.12357   0.59556   0.56959   0.00000  Uiso   1.00
H170   H     0.09639   0.51012   0.65488   0.00000  Uiso   1.00
H171   H     0.21116   0.64917   0.69243   0.00000  Uiso   1.00
H172   H     0.07983   0.62200   0.34244   0.00000  Uiso   1.00
H173   H     0.04003   0.42392   0.77950   0.00000  Uiso   1.00
H174   H     0.28201   0.71712   0.85864   0.00000  Uiso   1.00
H175   H     0.00509   0.65984   0.12062   0.00000  Uiso   1.00
O176   O     0.93191   0.39699   0.93882   0.00000  Uiso   1.00
O177   O     0.24938   0.78166   0.04264   0.00000  Uiso   1.00
O178   O     0.88606   0.70650   0.07437   0.00000  Uiso   1.00
N179   N     0.91131   0.47860   0.91918   0.00000  Uiso   1.00
N180   N     0.13755   0.75271   0.99320   0.00000  Uiso   1.00
N181   N     0.87866   0.69917   0.30321   0.00000  Uiso   1.00
N182   N     0.00451   0.44837   0.81263   0.00000  Uiso   1.00
N183   N     0.23075   0.72249   0.88665   0.00000  Uiso   1.00
N184   N     0.97186   0.66894   0.19666   0.00000  Uiso   1.00
C185   C     0.34558   0.34903   0.38319   0.00000  Uiso   1.00
C186   C     0.35095   0.40218   0.41260   0.00000  Uiso   1.00
C187   C     0.30408   0.42816   0.49367   0.00000  Uiso   1.00
C188   C     0.31824   0.47640   0.50789   0.00000  Uiso   1.00
C189   C     0.31764   0.55566   0.56344   0.00000  Uiso   1.00
C190   C     0.41586   0.32722   0.42180   0.00000  Uiso   1.00
C191   C     0.42356   0.29018   0.51059   0.00000  Uiso   1.00
C192   C     0.49237   0.27533   0.53254   0.00000  Uiso   1.00
C193   C     0.59254   0.23819   0.60230   0.00000  Uiso   1.00
C194   C     0.34428   0.34475   0.23369   0.00000  Uiso   1.00
C195   C     0.29180   0.32243   0.16430   0.00000  Uiso   1.00
C196   C     0.30036   0.32232   0.02787   0.00000  Uiso   1.00
C197   C     0.28938   0.31239   0.80555   0.00000  Uiso   1.00
C198   C     0.45408   0.38851   0.26428   0.00000  Uiso   1.00
C199   C     0.40989   0.42362   0.34801   0.00000  Uiso   1.00
C200   C     0.42413   0.47184   0.36211   0.00000  Uiso   1.00
C201   C     0.37728   0.49789   0.44318   0.00000  Uiso   1.00
C202   C     0.47480   0.34866   0.35722   0.00000  Uiso   1.00
C203   C     0.54361   0.33386   0.37903   0.00000  Uiso   1.00
C204   C     0.55141   0.29681   0.46784   0.00000  Uiso   1.00
C205   C     0.40321   0.36619   0.16910   0.00000  Uiso   1.00
C206   C     0.41185   0.36611   0.03275   0.00000  Uiso   1.00
C207   C     0.35940   0.34380   0.96317   0.00000  Uiso   1.00
H208   H     0.29970   0.33233   0.43347   0.00000  Uiso   1.00
H209   H     0.25848   0.41155   0.54364   0.00000  Uiso   1.00
H210   H     0.37794   0.27359   0.56055   0.00000  Uiso   1.00
H211   H     0.24621   0.30584   0.21432   0.00000  Uiso   1.00
H212   H     0.23879   0.50883   0.63734   0.00000  Uiso   1.00
H213   H     0.49069   0.21792   0.67295   0.00000  Uiso   1.00
H214   H     0.21289   0.28592   0.94286   0.00000  Uiso   1.00
H215   H     0.49997   0.40520   0.21399   0.00000  Uiso   1.00
H216   H     0.46974   0.48842   0.31212   0.00000  Uiso   1.00
H217   H     0.58920   0.35046   0.32903   0.00000  Uiso   1.00
H218   H     0.45746   0.38270   0.98280   0.00000  Uiso   1.00
H219   H     0.41025   0.57122   0.44943   0.00000  Uiso   1.00
H220   H     0.66215   0.28031   0.48504   0.00000  Uiso   1.00
H221   H     0.38436   0.34831   0.75495   0.00000  Uiso   1.00
O222   O     0.30103   0.59345   0.61193   0.00000  Uiso   1.00
O223   O     0.63151   0.21178   0.65863   0.00000  Uiso   1.00
O224   O     0.26705   0.30100   0.70077   0.00000  Uiso   1.00
N225   N     0.28328   0.51209   0.57963   0.00000  Uiso   1.00
N226   N     0.51879   0.24012   0.61294   0.00000  Uiso   1.00
N227   N     0.25908   0.30368   0.93036   0.00000  Uiso   1.00
N228   N     0.37555   0.54567   0.47852   0.00000  Uiso   1.00
N229   N     0.61106   0.27369   0.51183   0.00000  Uiso   1.00
N230   N     0.35135   0.33725   0.82925   0.00000  Uiso   1.00
C231   C     0.96761   0.85387   0.24788   0.00000  Uiso   1.00
C232   C     0.97487   0.90743   0.26904   0.00000  Uiso   1.00
C233   C     0.92906   0.93562   0.34619   0.00000  Uiso   1.00
C234   C     0.94490   0.98387   0.35289   0.00000  Uiso   1.00
C235   C     0.94713   0.06409   0.39615   0.00000  Uiso   1.00
C236   C     0.03722   0.83188   0.28946   0.00000  Uiso   1.00
C237   C     0.04384   0.79656   0.38376   0.00000  Uiso   1.00
C238   C     0.11218   0.78121   0.40764   0.00000  Uiso   1.00
C239   C     0.21121   0.74412   0.48252   0.00000  Uiso   1.00
C240   C     0.96587   0.84665   0.09930   0.00000  Uiso   1.00
C241   C     0.91249   0.82373   0.03372   0.00000  Uiso   1.00
C242   C     0.92076   0.82080   0.89749   0.00000  Uiso   1.00
C243   C     0.90900   0.80663   0.67712   0.00000  Uiso   1.00
C244   C     0.07722   0.88941   0.12258   0.00000  Uiso   1.00
C245   C     0.03440   0.92673   0.20098   0.00000  Uiso   1.00
C246   C     0.05032   0.97495   0.20756   0.00000  Uiso   1.00
C247   C     0.00454   0.00321   0.28470   0.00000  Uiso   1.00
C248   C     0.09675   0.85119   0.22140   0.00000  Uiso   1.00
C249   C     0.16510   0.83588   0.24513   0.00000  Uiso   1.00
C250   C     0.17182   0.80055   0.33945   0.00000  Uiso   1.00
C251   C     0.02540   0.86595   0.03123   0.00000  Uiso   1.00
C252   C     0.03375   0.86305   0.89508   0.00000  Uiso   1.00
C253   C     0.98040   0.84013   0.82930   0.00000  Uiso   1.00
H254   H     0.92127   0.83884   0.30087   0.00000  Uiso   1.00
H255   H     0.88299   0.92067   0.39886   0.00000  Uiso   1.00
H256   H     0.99776   0.78162   0.43641   0.00000  Uiso   1.00
H257   H     0.86643   0.80879   0.08642   0.00000  Uiso   1.00
H258   H     0.86683   0.01991   0.47751   0.00000  Uiso   1.00
H259   H     0.10881   0.72671   0.55666   0.00000  Uiso   1.00
H260   H     0.83188   0.78399   0.81864   0.00000  Uiso   1.00
H261   H     0.12357   0.90444   0.06959   0.00000  Uiso   1.00
H262   H     0.09639   0.98988   0.15488   0.00000  Uiso   1.00
H263   H     0.21116   0.85083   0.19243   0.00000  Uiso   1.00
H264   H     0.07983   0.87800   0.84244   0.00000  Uiso   1.00
H265   H     0.04003   0.07608   0.27950   0.00000  Uiso   1.00
H266   H     0.28201   0.78288   0.35864   0.00000  Uiso   1.00
H267   H     0.00509   0.84016   0.62062   0.00000  Uiso   1.00
O268   O     0.93191   0.10301   0.43882   0.00000  Uiso   1.00
O269   O     0.24938   0.71834   0.54264   0.00000  Uiso   1.00
O270   O     0.88606   0.79350   0.57437   0.00000  Uiso   1.00
N271   N     0.91131   0.02140   0.41918   0.00000  Uiso   1.00
N272   N     0.13755   0.74729   0.49320   0.00000  Uiso   1.00
N273   N     0.87866   0.80083   0.80321   0.00000  Uiso   1.00
N274   N     0.00451   0.05163   0.31263   0.00000  Uiso   1.00
N275   N     0.23075   0.77751   0.38665   0.00000  Uiso   1.00
N276   N     0.97186   0.83106   0.69666   0.00000  Uiso   1.00
C277   C     0.65442   0.84903   0.11681   0.00000  Uiso   1.00
C278   C     0.64905   0.90218   0.08740   0.00000  Uiso   1.00
C279   C     0.69592   0.92816   0.00633   0.00000  Uiso   1.00
C280   C     0.68176   0.97640   0.99211   0.00000  Uiso   1.00
C281   C     0.68236   0.05566   0.93656   0.00000  Uiso   1.00
C282   C     0.58414   0.82722   0.07820   0.00000  Uiso   1.00
C283   C     0.57644   0.79018   0.98941   0.00000  Uiso   1.00
C284   C     0.50763   0.77533   0.96746   0.00000  Uiso   1.00
C285   C     0.40746   0.73819   0.89770   0.00000  Uiso   1.00
C286   C     0.65572   0.84475   0.26631   0.00000  Uiso   1.00
C287   C     0.70820   0.82243   0.33570   0.00000  Uiso   1.00
C288   C     0.69964   0.82232   0.47213   0.00000  Uiso   1.00
C289   C     0.71062   0.81239   0.69445   0.00000  Uiso   1.00
C290   C     0.54592   0.88851   0.23572   0.00000  Uiso   1.00
C291   C     0.59011   0.92362   0.15199   0.00000  Uiso   1.00
C292   C     0.57587   0.97184   0.13789   0.00000  Uiso   1.00
C293   C     0.62272   0.99789   0.05682   0.00000  Uiso   1.00
C294   C     0.52520   0.84866   0.14278   0.00000  Uiso   1.00
C295   C     0.45639   0.83386   0.12097   0.00000  Uiso   1.00
C296   C     0.44859   0.79681   0.03216   0.00000  Uiso   1.00
C297   C     0.59679   0.86619   0.33090   0.00000  Uiso   1.00
C298   C     0.58815   0.86611   0.46725   0.00000  Uiso   1.00
C299   C     0.64060   0.84380   0.53683   0.00000  Uiso   1.00
H300   H     0.70030   0.83233   0.06653   0.00000  Uiso   1.00
H301   H     0.74152   0.91155   0.95636   0.00000  Uiso   1.00
H302   H     0.62206   0.77359   0.93945   0.00000  Uiso   1.00
H303   H     0.75379   0.80584   0.28568   0.00000  Uiso   1.00
H304   H     0.76121   0.00883   0.86266   0.00000  Uiso   1.00
H305   H     0.50931   0.71792   0.82705   0.00000  Uiso   1.00
H306   H     0.78711   0.78592   0.55714   0.00000  Uiso   1.00
H307   H     0.50003   0.90520   0.28601   0.00000  Uiso   1.00
H308   H     0.53026   0.98842   0.18788   0.00000  Uiso   1.00
H309   H     0.41080   0.85046   0.17097   0.00000  Uiso   1.00
H310   H     0.54254   0.88270   0.51720   0.00000  Uiso   1.00
H311   H     0.58975   0.07122   0.05057   0.00000  Uiso   1.00
H312   H     0.33785   0.78031   0.01496   0.00000  Uiso   1.00
H313   H     0.61564   0.84831   0.74505   0.00000  Uiso   1.00
O314   O     0.69897   0.09345   0.88807   0.00000  Uiso   1.00
O315   O     0.36849   0.71178   0.84137   0.00000  Uiso   1.00
O316   O     0.73295   0.80100   0.79923   0.00000  Uiso   1.00
N317   N     0.71672   0.01209   0.92037   0.00000  Uiso   1.00
N318   N     0.48121   0.74012   0.88706   0.00000  Uiso   1.00
N319   N     0.74092   0.80368   0.56964   0.00000  Uiso   1.00
N320   N     0.62445   0.04567   0.02148   0.00000  Uiso   1.00
N321   N     0.38894   0.77369   0.98817   0.00000  Uiso   1.00
N322   N     0.64865   0.83725   0.67075   0.00000  Uiso   1.00
C323   C     0.03239   0.35387   0.25212   0.00000  Uiso   1.00
C324   C     0.02513   0.40743   0.23096   0.00000  Uiso   1.00
C325   C     0.07094   0.43562   0.15381   0.00000  Uiso   1.00
C326   C     0.05510   0.48387   0.14711   0.00000  Uiso   1.00
C327   C     0.05287   0.56409   0.10385   0.00000  Uiso   1.00
C328   C     0.96278   0.33188   0.21054   0.00000  Uiso   1.00
C329   C     0.95616   0.29656   0.11624   0.00000  Uiso   1.00
C330   C     0.88782   0.28121   0.09236   0.00000  Uiso   1.00
C331   C     0.78879   0.24412   0.01748   0.00000  Uiso   1.00
C332   C     0.03413   0.34665   0.40070   0.00000  Uiso   1.00
C333   C     0.08751   0.32373   0.46628   0.00000  Uiso   1.00
C334   C     0.07924   0.32080   0.60251   0.00000  Uiso   1.00
C335   C     0.09100   0.30663   0.82288   0.00000  Uiso   1.00
C336   C     0.92278   0.38941   0.37742   0.00000  Uiso   1.00
C337   C     0.96560   0.42673   0.29902   0.00000  Uiso   1.00
C338   C     0.94968   0.47495   0.29244   0.00000  Uiso   1.00
C339   C     0.99546   0.50321   0.21530   0.00000  Uiso   1.00
C340   C     0.90325   0.35119   0.27860   0.00000  Uiso   1.00
C341   C     0.83490   0.33588   0.25487   0.00000  Uiso   1.00
C342   C     0.82818   0.30055   0.16055   0.00000  Uiso   1.00
C343   C     0.97460   0.36595   0.46877   0.00000  Uiso   1.00
C344   C     0.96625   0.36305   0.60492   0.00000  Uiso   1.00
C345   C     0.01960   0.34013   0.67070   0.00000  Uiso   1.00
H346   H     0.07873   0.33884   0.19913   0.00000  Uiso   1.00
H347   H     0.11701   0.42067   0.10114   0.00000  Uiso   1.00
H348   H     0.00224   0.28162   0.06359   0.00000  Uiso   1.00
H349   H     0.13357   0.30879   0.41358   0.00000  Uiso   1.00
H350   H     0.13317   0.51991   0.02249   0.00000  Uiso   1.00
H351   H     0.89119   0.22671   0.94334   0.00000  Uiso   1.00
H352   H     0.16812   0.28399   0.68136   0.00000  Uiso   1.00
H353   H     0.87643   0.40444   0.43041   0.00000  Uiso   1.00
H354   H     0.90361   0.48988   0.34512   0.00000  Uiso   1.00
H355   H     0.78884   0.35083   0.30757   0.00000  Uiso   1.00
H356   H     0.92017   0.37800   0.65756   0.00000  Uiso   1.00
H357   H     0.95997   0.57608   0.22050   0.00000  Uiso   1.00
H358   H     0.71799   0.28288   0.14136   0.00000  Uiso   1.00
H359   H     0.99491   0.34016   0.87938   0.00000  Uiso   1.00
O360   O     0.06809   0.60301   0.06118   0.00000  Uiso   1.00
O361   O     0.75062   0.21834   0.95736   0.00000  Uiso   1.00
O362   O     0.11394   0.29350   0.92563   0.00000  Uiso   1.00
N363   N     0.08869   0.52140   0.08082   0.00000  Uiso   1.00
N364   N     0.86245   0.24729   0.00680   0.00000  Uiso   1.00
N365   N     0.12134   0.30083   0.69679   0.00000  Uiso   1.00
N366   N     0.99549   0.55163   0.18737   0.00000  Uiso   1.00
N367   N     0.76925   0.27751   0.11335   0.00000  Uiso   1.00
N368   N     0.02814   0.33106   0.80334   0.00000  Uiso   1.00
