data_job_05835
_audit_creation_date              2018-12-19
_audit_creation_method            'Materials Studio'
_symmetry_space_group_name_H-M    'P1'
_symmetry_Int_Tables_number       1
_symmetry_cell_setting            triclinic
loop_
_symmetry_equiv_pos_as_xyz
  x,y,z
_cell_length_a                    17.2975
_cell_length_b                    17.2975
_cell_length_c                    18.0431
_cell_angle_alpha                 90.0000
_cell_angle_beta                  90.0000
_cell_angle_gamma                 90.0000
loop_
_atom_site_label
_atom_site_type_symbol
_atom_site_fract_x
_atom_site_fract_y
_atom_site_fract_z
_atom_site_U_iso_or_equiv
_atom_site_adp_type
_atom_site_occupancy
C1     C     0.28954   0.74631   0.95310   0.00000  Uiso   1.00
C2     C     0.27578   0.66208   0.97428   0.00000  Uiso   1.00
C3     C     0.25669   0.60287   0.92571   0.00000  Uiso   1.00
C4     C     0.24650   0.52979   0.95599   0.00000  Uiso   1.00
C5     C     0.22380   0.40103   0.97730   0.00000  Uiso   1.00
C6     C     0.23347   0.79374   0.99985   0.00000  Uiso   1.00
C7     C     0.17880   0.84524   0.97279   0.00000  Uiso   1.00
C8     C     0.13300   0.88299   0.02460   0.00000  Uiso   1.00
C9     C     0.04464   0.95869   0.08561   0.00000  Uiso   1.00
C10    C     0.37023   0.76632   0.98120   0.00000  Uiso   1.00
C11    C     0.43056   0.79478   0.93846   0.00000  Uiso   1.00
C12    C     0.49991   0.80946   0.97456   0.00000  Uiso   1.00
C13    C     0.62390   0.84257   0.00662   0.00000  Uiso   1.00
C14    C     0.30541   0.72180   0.09323   0.00000  Uiso   1.00
C15    C     0.28440   0.64877   0.05039   0.00000  Uiso   1.00
C16    C     0.27425   0.57575   0.08075   0.00000  Uiso   1.00
C17    C     0.25514   0.51645   0.03223   0.00000  Uiso   1.00
C18    C     0.24209   0.78043   0.07596   0.00000  Uiso   1.00
C19    C     0.19637   0.81812   0.12782   0.00000  Uiso   1.00
C20    C     0.14164   0.86966   0.10084   0.00000  Uiso   1.00
C21    C     0.37886   0.75300   0.05731   0.00000  Uiso   1.00
C22    C     0.44813   0.76765   0.09349   0.00000  Uiso   1.00
C23    C     0.50855   0.79612   0.05081   0.00000  Uiso   1.00
H24    H     0.28282   0.75668   0.89385   0.00000  Uiso   1.00
H25    H     0.25001   0.61320   0.86681   0.00000  Uiso   1.00
H26    H     0.17214   0.85554   0.91389   0.00000  Uiso   1.00
H27    H     0.42387   0.80507   0.87956   0.00000  Uiso   1.00
H28    H     0.21741   0.44826   0.87041   0.00000  Uiso   1.00
H29    H     0.05324   0.95926   0.96967   0.00000  Uiso   1.00
H30    H     0.58405   0.85285   0.89728   0.00000  Uiso   1.00
H31    H     0.31213   0.71144   0.15249   0.00000  Uiso   1.00
H32    H     0.28093   0.56547   0.13965   0.00000  Uiso   1.00
H33    H     0.20306   0.80781   0.18672   0.00000  Uiso   1.00
H34    H     0.45478   0.75734   0.15239   0.00000  Uiso   1.00
H35    H     0.24250   0.40952   0.09186   0.00000  Uiso   1.00
H36    H     0.07833   0.92053   0.19111   0.00000  Uiso   1.00
H37    H     0.60914   0.81411   0.11873   0.00000  Uiso   1.00
O38    O     0.20888   0.33369   0.96803   0.00000  Uiso   1.00
O39    O     0.99351   0.00411   0.09824   0.00000  Uiso   1.00
O40    O     0.68991   0.86450   0.00327   0.00000  Uiso   1.00
N41    N     0.22761   0.45917   0.92429   0.00000  Uiso   1.00
N42    N     0.07412   0.93692   0.01709   0.00000  Uiso   1.00
N43    N     0.57037   0.83745   0.94942   0.00000  Uiso   1.00
N44    N     0.24111   0.43833   0.04345   0.00000  Uiso   1.00
N45    N     0.08762   0.91607   0.13624   0.00000  Uiso   1.00
N46    N     0.58387   0.81661   0.06857   0.00000  Uiso   1.00
C47    C     0.71046   0.25369   0.45310   0.00000  Uiso   1.00
C48    C     0.72422   0.33792   0.47428   0.00000  Uiso   1.00
C49    C     0.74331   0.39713   0.42571   0.00000  Uiso   1.00
C50    C     0.75350   0.47021   0.45599   0.00000  Uiso   1.00
C51    C     0.77620   0.59897   0.47730   0.00000  Uiso   1.00
C52    C     0.76653   0.20626   0.49985   0.00000  Uiso   1.00
C53    C     0.82120   0.15476   0.47279   0.00000  Uiso   1.00
C54    C     0.86700   0.11701   0.52460   0.00000  Uiso   1.00
C55    C     0.95536   0.04131   0.58561   0.00000  Uiso   1.00
C56    C     0.62977   0.23368   0.48120   0.00000  Uiso   1.00
C57    C     0.56944   0.20522   0.43846   0.00000  Uiso   1.00
C58    C     0.50009   0.19054   0.47456   0.00000  Uiso   1.00
C59    C     0.37610   0.15743   0.50662   0.00000  Uiso   1.00
C60    C     0.69459   0.27820   0.59323   0.00000  Uiso   1.00
C61    C     0.71560   0.35123   0.55039   0.00000  Uiso   1.00
C62    C     0.72575   0.42425   0.58075   0.00000  Uiso   1.00
C63    C     0.74485   0.48355   0.53223   0.00000  Uiso   1.00
C64    C     0.75791   0.21957   0.57596   0.00000  Uiso   1.00
C65    C     0.80363   0.18188   0.62782   0.00000  Uiso   1.00
C66    C     0.85836   0.13034   0.60084   0.00000  Uiso   1.00
C67    C     0.62114   0.24700   0.55731   0.00000  Uiso   1.00
C68    C     0.55187   0.23235   0.59349   0.00000  Uiso   1.00
C69    C     0.49145   0.20388   0.55081   0.00000  Uiso   1.00
H70    H     0.71718   0.24332   0.39385   0.00000  Uiso   1.00
H71    H     0.74999   0.38680   0.36681   0.00000  Uiso   1.00
H72    H     0.82786   0.14446   0.41389   0.00000  Uiso   1.00
H73    H     0.57613   0.19493   0.37956   0.00000  Uiso   1.00
H74    H     0.78259   0.55174   0.37041   0.00000  Uiso   1.00
H75    H     0.94676   0.04074   0.46967   0.00000  Uiso   1.00
H76    H     0.41595   0.14715   0.39728   0.00000  Uiso   1.00
H77    H     0.68787   0.28856   0.65249   0.00000  Uiso   1.00
H78    H     0.71907   0.43453   0.63965   0.00000  Uiso   1.00
H79    H     0.79694   0.19219   0.68672   0.00000  Uiso   1.00
H80    H     0.54522   0.24266   0.65239   0.00000  Uiso   1.00
H81    H     0.75750   0.59048   0.59186   0.00000  Uiso   1.00
H82    H     0.92167   0.07947   0.69111   0.00000  Uiso   1.00
H83    H     0.39086   0.18589   0.61873   0.00000  Uiso   1.00
O84    O     0.79112   0.66631   0.46803   0.00000  Uiso   1.00
O85    O     0.00649   0.99589   0.59824   0.00000  Uiso   1.00
O86    O     0.31009   0.13550   0.50327   0.00000  Uiso   1.00
N87    N     0.77239   0.54083   0.42429   0.00000  Uiso   1.00
N88    N     0.92588   0.06308   0.51709   0.00000  Uiso   1.00
N89    N     0.42963   0.16255   0.44942   0.00000  Uiso   1.00
N90    N     0.75889   0.56167   0.54345   0.00000  Uiso   1.00
N91    N     0.91238   0.08393   0.63624   0.00000  Uiso   1.00
N92    N     0.41613   0.18339   0.56857   0.00000  Uiso   1.00
C93    C     0.75369   0.78954   0.70310   0.00000  Uiso   1.00
C94    C     0.83792   0.77578   0.72428   0.00000  Uiso   1.00
C95    C     0.89713   0.75669   0.67571   0.00000  Uiso   1.00
C96    C     0.97021   0.74650   0.70599   0.00000  Uiso   1.00
C97    C     0.09897   0.72380   0.72730   0.00000  Uiso   1.00
C98    C     0.70626   0.73347   0.74985   0.00000  Uiso   1.00
C99    C     0.65476   0.67880   0.72279   0.00000  Uiso   1.00
C100   C     0.61701   0.63300   0.77460   0.00000  Uiso   1.00
C101   C     0.54131   0.54464   0.83561   0.00000  Uiso   1.00
C102   C     0.73368   0.87023   0.73120   0.00000  Uiso   1.00
C103   C     0.70522   0.93056   0.68846   0.00000  Uiso   1.00
C104   C     0.69054   0.99991   0.72456   0.00000  Uiso   1.00
C105   C     0.65743   0.12390   0.75662   0.00000  Uiso   1.00
C106   C     0.77820   0.80541   0.84323   0.00000  Uiso   1.00
C107   C     0.85123   0.78440   0.80039   0.00000  Uiso   1.00
C108   C     0.92425   0.77425   0.83075   0.00000  Uiso   1.00
C109   C     0.98355   0.75515   0.78223   0.00000  Uiso   1.00
C110   C     0.71957   0.74209   0.82596   0.00000  Uiso   1.00
C111   C     0.68188   0.69637   0.87782   0.00000  Uiso   1.00
C112   C     0.63034   0.64164   0.85084   0.00000  Uiso   1.00
C113   C     0.74700   0.87886   0.80731   0.00000  Uiso   1.00
C114   C     0.73235   0.94813   0.84349   0.00000  Uiso   1.00
C115   C     0.70388   0.00855   0.80081   0.00000  Uiso   1.00
H116   H     0.74332   0.78282   0.64385   0.00000  Uiso   1.00
H117   H     0.88680   0.75001   0.61681   0.00000  Uiso   1.00
H118   H     0.64446   0.67214   0.66389   0.00000  Uiso   1.00
H119   H     0.69493   0.92387   0.62956   0.00000  Uiso   1.00
H120   H     0.05174   0.71741   0.62041   0.00000  Uiso   1.00
H121   H     0.54074   0.55324   0.71967   0.00000  Uiso   1.00
H122   H     0.64715   0.08405   0.64728   0.00000  Uiso   1.00
H123   H     0.78856   0.81213   0.90249   0.00000  Uiso   1.00
H124   H     0.93453   0.78093   0.88965   0.00000  Uiso   1.00
H125   H     0.69219   0.70306   0.93672   0.00000  Uiso   1.00
H126   H     0.74266   0.95478   0.90239   0.00000  Uiso   1.00
H127   H     0.09048   0.74250   0.84186   0.00000  Uiso   1.00
H128   H     0.57947   0.57833   0.94111   0.00000  Uiso   1.00
H129   H     0.68589   0.10914   0.86873   0.00000  Uiso   1.00
O130   O     0.16631   0.70888   0.71803   0.00000  Uiso   1.00
O131   O     0.49589   0.49351   0.84824   0.00000  Uiso   1.00
O132   O     0.63550   0.18991   0.75327   0.00000  Uiso   1.00
N133   N     0.04083   0.72761   0.67429   0.00000  Uiso   1.00
N134   N     0.56308   0.57412   0.76709   0.00000  Uiso   1.00
N135   N     0.66255   0.07037   0.69942   0.00000  Uiso   1.00
N136   N     0.06167   0.74111   0.79345   0.00000  Uiso   1.00
N137   N     0.58393   0.58762   0.88624   0.00000  Uiso   1.00
N138   N     0.68339   0.08387   0.81857   0.00000  Uiso   1.00
C139   C     0.24631   0.21046   0.20310   0.00000  Uiso   1.00
C140   C     0.16208   0.22422   0.22428   0.00000  Uiso   1.00
C141   C     0.10287   0.24331   0.17571   0.00000  Uiso   1.00
C142   C     0.02979   0.25350   0.20599   0.00000  Uiso   1.00
C143   C     0.90103   0.27620   0.22730   0.00000  Uiso   1.00
C144   C     0.29374   0.26653   0.24985   0.00000  Uiso   1.00
C145   C     0.34524   0.32120   0.22279   0.00000  Uiso   1.00
C146   C     0.38299   0.36700   0.27460   0.00000  Uiso   1.00
C147   C     0.45869   0.45536   0.33561   0.00000  Uiso   1.00
C148   C     0.26632   0.12977   0.23120   0.00000  Uiso   1.00
C149   C     0.29478   0.06944   0.18846   0.00000  Uiso   1.00
C150   C     0.30946   0.00009   0.22456   0.00000  Uiso   1.00
C151   C     0.34257   0.87610   0.25662   0.00000  Uiso   1.00
C152   C     0.22180   0.19459   0.34323   0.00000  Uiso   1.00
C153   C     0.14877   0.21560   0.30039   0.00000  Uiso   1.00
C154   C     0.07575   0.22575   0.33075   0.00000  Uiso   1.00
C155   C     0.01645   0.24486   0.28223   0.00000  Uiso   1.00
C156   C     0.28043   0.25791   0.32596   0.00000  Uiso   1.00
C157   C     0.31812   0.30363   0.37782   0.00000  Uiso   1.00
C158   C     0.36966   0.35836   0.35084   0.00000  Uiso   1.00
C159   C     0.25300   0.12114   0.30731   0.00000  Uiso   1.00
C160   C     0.26765   0.05187   0.34349   0.00000  Uiso   1.00
C161   C     0.29612   0.99145   0.30081   0.00000  Uiso   1.00
H162   H     0.25668   0.21718   0.14385   0.00000  Uiso   1.00
H163   H     0.11320   0.24999   0.11681   0.00000  Uiso   1.00
H164   H     0.35554   0.32786   0.16389   0.00000  Uiso   1.00
H165   H     0.30507   0.07613   0.12956   0.00000  Uiso   1.00
H166   H     0.94826   0.28259   0.12041   0.00000  Uiso   1.00
H167   H     0.45926   0.44676   0.21967   0.00000  Uiso   1.00
H168   H     0.35285   0.91595   0.14728   0.00000  Uiso   1.00
H169   H     0.21144   0.18787   0.40249   0.00000  Uiso   1.00
H170   H     0.06547   0.21907   0.38965   0.00000  Uiso   1.00
H171   H     0.30781   0.29694   0.43672   0.00000  Uiso   1.00
H172   H     0.25734   0.04522   0.40239   0.00000  Uiso   1.00
H173   H     0.90952   0.25750   0.34186   0.00000  Uiso   1.00
H174   H     0.42053   0.42167   0.44111   0.00000  Uiso   1.00
H175   H     0.31411   0.89086   0.36873   0.00000  Uiso   1.00
O176   O     0.83369   0.29112   0.21803   0.00000  Uiso   1.00
O177   O     0.50411   0.50649   0.34824   0.00000  Uiso   1.00
O178   O     0.36450   0.81009   0.25327   0.00000  Uiso   1.00
N179   N     0.95917   0.27239   0.17429   0.00000  Uiso   1.00
N180   N     0.43692   0.42588   0.26709   0.00000  Uiso   1.00
N181   N     0.33745   0.92963   0.19942   0.00000  Uiso   1.00
N182   N     0.93833   0.25889   0.29345   0.00000  Uiso   1.00
N183   N     0.41607   0.41238   0.38624   0.00000  Uiso   1.00
N184   N     0.31661   0.91613   0.31857   0.00000  Uiso   1.00
C185   C     0.21046   0.24631   0.79690   0.00000  Uiso   1.00
C186   C     0.22422   0.16208   0.77572   0.00000  Uiso   1.00
C187   C     0.24331   0.10287   0.82429   0.00000  Uiso   1.00
C188   C     0.25350   0.02979   0.79401   0.00000  Uiso   1.00
C189   C     0.27620   0.90103   0.77270   0.00000  Uiso   1.00
C190   C     0.26653   0.29374   0.75015   0.00000  Uiso   1.00
C191   C     0.32120   0.34524   0.77721   0.00000  Uiso   1.00
C192   C     0.36700   0.38299   0.72540   0.00000  Uiso   1.00
C193   C     0.45536   0.45869   0.66439   0.00000  Uiso   1.00
C194   C     0.12977   0.26632   0.76880   0.00000  Uiso   1.00
C195   C     0.06944   0.29478   0.81154   0.00000  Uiso   1.00
C196   C     0.00009   0.30946   0.77544   0.00000  Uiso   1.00
C197   C     0.87610   0.34257   0.74338   0.00000  Uiso   1.00
C198   C     0.19459   0.22180   0.65677   0.00000  Uiso   1.00
C199   C     0.21560   0.14877   0.69961   0.00000  Uiso   1.00
C200   C     0.22575   0.07575   0.66925   0.00000  Uiso   1.00
C201   C     0.24486   0.01645   0.71777   0.00000  Uiso   1.00
C202   C     0.25791   0.28043   0.67404   0.00000  Uiso   1.00
C203   C     0.30363   0.31812   0.62218   0.00000  Uiso   1.00
C204   C     0.35836   0.36966   0.64916   0.00000  Uiso   1.00
C205   C     0.12114   0.25300   0.69269   0.00000  Uiso   1.00
C206   C     0.05187   0.26765   0.65651   0.00000  Uiso   1.00
C207   C     0.99145   0.29612   0.69919   0.00000  Uiso   1.00
H208   H     0.21718   0.25668   0.85615   0.00000  Uiso   1.00
H209   H     0.24999   0.11320   0.88319   0.00000  Uiso   1.00
H210   H     0.32786   0.35554   0.83611   0.00000  Uiso   1.00
H211   H     0.07613   0.30507   0.87044   0.00000  Uiso   1.00
H212   H     0.28259   0.94826   0.87959   0.00000  Uiso   1.00
H213   H     0.44676   0.45926   0.78033   0.00000  Uiso   1.00
H214   H     0.91595   0.35285   0.85272   0.00000  Uiso   1.00
H215   H     0.18787   0.21144   0.59751   0.00000  Uiso   1.00
H216   H     0.21907   0.06547   0.61035   0.00000  Uiso   1.00
H217   H     0.29694   0.30781   0.56328   0.00000  Uiso   1.00
H218   H     0.04522   0.25734   0.59761   0.00000  Uiso   1.00
H219   H     0.25750   0.90952   0.65814   0.00000  Uiso   1.00
H220   H     0.42167   0.42053   0.55889   0.00000  Uiso   1.00
H221   H     0.89086   0.31411   0.63127   0.00000  Uiso   1.00
O222   O     0.29112   0.83369   0.78197   0.00000  Uiso   1.00
O223   O     0.50649   0.50411   0.65176   0.00000  Uiso   1.00
O224   O     0.81009   0.36450   0.74673   0.00000  Uiso   1.00
N225   N     0.27239   0.95917   0.82571   0.00000  Uiso   1.00
N226   N     0.42588   0.43692   0.73291   0.00000  Uiso   1.00
N227   N     0.92963   0.33745   0.80058   0.00000  Uiso   1.00
N228   N     0.25889   0.93833   0.70655   0.00000  Uiso   1.00
N229   N     0.41238   0.41607   0.61376   0.00000  Uiso   1.00
N230   N     0.91613   0.31661   0.68143   0.00000  Uiso   1.00
C231   C     0.78954   0.75369   0.29690   0.00000  Uiso   1.00
C232   C     0.77578   0.83792   0.27572   0.00000  Uiso   1.00
C233   C     0.75669   0.89713   0.32429   0.00000  Uiso   1.00
C234   C     0.74650   0.97021   0.29401   0.00000  Uiso   1.00
C235   C     0.72380   0.09897   0.27270   0.00000  Uiso   1.00
C236   C     0.73347   0.70626   0.25015   0.00000  Uiso   1.00
C237   C     0.67880   0.65476   0.27721   0.00000  Uiso   1.00
C238   C     0.63300   0.61701   0.22540   0.00000  Uiso   1.00
C239   C     0.54464   0.54131   0.16439   0.00000  Uiso   1.00
C240   C     0.87023   0.73368   0.26880   0.00000  Uiso   1.00
C241   C     0.93056   0.70522   0.31154   0.00000  Uiso   1.00
C242   C     0.99991   0.69054   0.27544   0.00000  Uiso   1.00
C243   C     0.12390   0.65743   0.24338   0.00000  Uiso   1.00
C244   C     0.80541   0.77820   0.15677   0.00000  Uiso   1.00
C245   C     0.78440   0.85123   0.19961   0.00000  Uiso   1.00
C246   C     0.77425   0.92425   0.16925   0.00000  Uiso   1.00
C247   C     0.75514   0.98355   0.21777   0.00000  Uiso   1.00
C248   C     0.74209   0.71957   0.17404   0.00000  Uiso   1.00
C249   C     0.69637   0.68188   0.12218   0.00000  Uiso   1.00
C250   C     0.64164   0.63034   0.14916   0.00000  Uiso   1.00
C251   C     0.87886   0.74700   0.19269   0.00000  Uiso   1.00
C252   C     0.94813   0.73235   0.15651   0.00000  Uiso   1.00
C253   C     0.00855   0.70388   0.19919   0.00000  Uiso   1.00
H254   H     0.78282   0.74332   0.35615   0.00000  Uiso   1.00
H255   H     0.75001   0.88680   0.38319   0.00000  Uiso   1.00
H256   H     0.67214   0.64446   0.33611   0.00000  Uiso   1.00
H257   H     0.92387   0.69493   0.37044   0.00000  Uiso   1.00
H258   H     0.71741   0.05174   0.37959   0.00000  Uiso   1.00
H259   H     0.55324   0.54074   0.28033   0.00000  Uiso   1.00
H260   H     0.08405   0.64715   0.35272   0.00000  Uiso   1.00
H261   H     0.81213   0.78856   0.09751   0.00000  Uiso   1.00
H262   H     0.78093   0.93453   0.11035   0.00000  Uiso   1.00
H263   H     0.70306   0.69219   0.06328   0.00000  Uiso   1.00
H264   H     0.95478   0.74266   0.09761   0.00000  Uiso   1.00
H265   H     0.74250   0.09048   0.15814   0.00000  Uiso   1.00
H266   H     0.57833   0.57947   0.05889   0.00000  Uiso   1.00
H267   H     0.10914   0.68589   0.13127   0.00000  Uiso   1.00
O268   O     0.70888   0.16631   0.28197   0.00000  Uiso   1.00
O269   O     0.49351   0.49589   0.15176   0.00000  Uiso   1.00
O270   O     0.18991   0.63550   0.24673   0.00000  Uiso   1.00
N271   N     0.72761   0.04083   0.32571   0.00000  Uiso   1.00
N272   N     0.57412   0.56308   0.23291   0.00000  Uiso   1.00
N273   N     0.07037   0.66255   0.30058   0.00000  Uiso   1.00
N274   N     0.74111   0.06167   0.20655   0.00000  Uiso   1.00
N275   N     0.58762   0.58393   0.11376   0.00000  Uiso   1.00
N276   N     0.08387   0.68339   0.18143   0.00000  Uiso   1.00
C277   C     0.74631   0.28954   0.04690   0.00000  Uiso   1.00
C278   C     0.66208   0.27578   0.02572   0.00000  Uiso   1.00
C279   C     0.60287   0.25669   0.07429   0.00000  Uiso   1.00
C280   C     0.52979   0.24650   0.04401   0.00000  Uiso   1.00
C281   C     0.40103   0.22380   0.02270   0.00000  Uiso   1.00
C282   C     0.79374   0.23347   0.00015   0.00000  Uiso   1.00
C283   C     0.84524   0.17880   0.02721   0.00000  Uiso   1.00
C284   C     0.88299   0.13300   0.97540   0.00000  Uiso   1.00
C285   C     0.95869   0.04464   0.91439   0.00000  Uiso   1.00
C286   C     0.76632   0.37023   0.01880   0.00000  Uiso   1.00
C287   C     0.79478   0.43056   0.06154   0.00000  Uiso   1.00
C288   C     0.80946   0.49991   0.02544   0.00000  Uiso   1.00
C289   C     0.84257   0.62390   0.99338   0.00000  Uiso   1.00
C290   C     0.72180   0.30541   0.90677   0.00000  Uiso   1.00
C291   C     0.64877   0.28440   0.94961   0.00000  Uiso   1.00
C292   C     0.57575   0.27425   0.91925   0.00000  Uiso   1.00
C293   C     0.51645   0.25514   0.96777   0.00000  Uiso   1.00
C294   C     0.78043   0.24209   0.92404   0.00000  Uiso   1.00
C295   C     0.81812   0.19637   0.87218   0.00000  Uiso   1.00
C296   C     0.86966   0.14164   0.89916   0.00000  Uiso   1.00
C297   C     0.75300   0.37886   0.94269   0.00000  Uiso   1.00
C298   C     0.76765   0.44813   0.90651   0.00000  Uiso   1.00
C299   C     0.79612   0.50855   0.94919   0.00000  Uiso   1.00
H300   H     0.75668   0.28282   0.10615   0.00000  Uiso   1.00
H301   H     0.61320   0.25001   0.13319   0.00000  Uiso   1.00
H302   H     0.85554   0.17214   0.08611   0.00000  Uiso   1.00
H303   H     0.80507   0.42387   0.12044   0.00000  Uiso   1.00
H304   H     0.44826   0.21741   0.12959   0.00000  Uiso   1.00
H305   H     0.95926   0.05324   0.03033   0.00000  Uiso   1.00
H306   H     0.85285   0.58405   0.10272   0.00000  Uiso   1.00
H307   H     0.71144   0.31213   0.84751   0.00000  Uiso   1.00
H308   H     0.56547   0.28093   0.86035   0.00000  Uiso   1.00
H309   H     0.80781   0.20306   0.81328   0.00000  Uiso   1.00
H310   H     0.75734   0.45478   0.84761   0.00000  Uiso   1.00
H311   H     0.40952   0.24250   0.90814   0.00000  Uiso   1.00
H312   H     0.92053   0.07833   0.80889   0.00000  Uiso   1.00
H313   H     0.81411   0.60914   0.88127   0.00000  Uiso   1.00
O314   O     0.33369   0.20888   0.03197   0.00000  Uiso   1.00
O315   O     0.00411   0.99351   0.90176   0.00000  Uiso   1.00
O316   O     0.86450   0.68991   0.99673   0.00000  Uiso   1.00
N317   N     0.45917   0.22761   0.07571   0.00000  Uiso   1.00
N318   N     0.93692   0.07412   0.98291   0.00000  Uiso   1.00
N319   N     0.83745   0.57037   0.05058   0.00000  Uiso   1.00
N320   N     0.43833   0.24111   0.95655   0.00000  Uiso   1.00
N321   N     0.91607   0.08762   0.86376   0.00000  Uiso   1.00
N322   N     0.81661   0.58387   0.93143   0.00000  Uiso   1.00
C323   C     0.25369   0.71046   0.54690   0.00000  Uiso   1.00
C324   C     0.33792   0.72422   0.52572   0.00000  Uiso   1.00
C325   C     0.39713   0.74331   0.57429   0.00000  Uiso   1.00
C326   C     0.47021   0.75350   0.54401   0.00000  Uiso   1.00
C327   C     0.59897   0.77620   0.52270   0.00000  Uiso   1.00
C328   C     0.20626   0.76653   0.50015   0.00000  Uiso   1.00
C329   C     0.15476   0.82120   0.52721   0.00000  Uiso   1.00
C330   C     0.11701   0.86700   0.47540   0.00000  Uiso   1.00
C331   C     0.04131   0.95536   0.41439   0.00000  Uiso   1.00
C332   C     0.23368   0.62977   0.51880   0.00000  Uiso   1.00
C333   C     0.20522   0.56944   0.56154   0.00000  Uiso   1.00
C334   C     0.19054   0.50009   0.52544   0.00000  Uiso   1.00
C335   C     0.15743   0.37610   0.49338   0.00000  Uiso   1.00
C336   C     0.27820   0.69459   0.40677   0.00000  Uiso   1.00
C337   C     0.35123   0.71560   0.44961   0.00000  Uiso   1.00
C338   C     0.42425   0.72575   0.41925   0.00000  Uiso   1.00
C339   C     0.48355   0.74486   0.46777   0.00000  Uiso   1.00
C340   C     0.21957   0.75791   0.42404   0.00000  Uiso   1.00
C341   C     0.18188   0.80363   0.37218   0.00000  Uiso   1.00
C342   C     0.13034   0.85836   0.39916   0.00000  Uiso   1.00
C343   C     0.24700   0.62114   0.44269   0.00000  Uiso   1.00
C344   C     0.23235   0.55187   0.40651   0.00000  Uiso   1.00
C345   C     0.20388   0.49145   0.44919   0.00000  Uiso   1.00
H346   H     0.24332   0.71718   0.60615   0.00000  Uiso   1.00
H347   H     0.38680   0.74999   0.63319   0.00000  Uiso   1.00
H348   H     0.14446   0.82786   0.58611   0.00000  Uiso   1.00
H349   H     0.19493   0.57613   0.62044   0.00000  Uiso   1.00
H350   H     0.55174   0.78259   0.62959   0.00000  Uiso   1.00
H351   H     0.04074   0.94676   0.53033   0.00000  Uiso   1.00
H352   H     0.14715   0.41595   0.60272   0.00000  Uiso   1.00
H353   H     0.28856   0.68787   0.34751   0.00000  Uiso   1.00
H354   H     0.43453   0.71907   0.36035   0.00000  Uiso   1.00
H355   H     0.19219   0.79694   0.31328   0.00000  Uiso   1.00
H356   H     0.24266   0.54522   0.34761   0.00000  Uiso   1.00
H357   H     0.59048   0.75750   0.40814   0.00000  Uiso   1.00
H358   H     0.07947   0.92167   0.30889   0.00000  Uiso   1.00
H359   H     0.18589   0.39086   0.38127   0.00000  Uiso   1.00
O360   O     0.66631   0.79112   0.53197   0.00000  Uiso   1.00
O361   O     0.99589   0.00649   0.40176   0.00000  Uiso   1.00
O362   O     0.13550   0.31009   0.49673   0.00000  Uiso   1.00
N363   N     0.54083   0.77239   0.57571   0.00000  Uiso   1.00
N364   N     0.06308   0.92588   0.48291   0.00000  Uiso   1.00
N365   N     0.16255   0.42963   0.55058   0.00000  Uiso   1.00
N366   N     0.56167   0.75889   0.45655   0.00000  Uiso   1.00
N367   N     0.08393   0.91238   0.36376   0.00000  Uiso   1.00
N368   N     0.18339   0.41613   0.43143   0.00000  Uiso   1.00
