data_job_05868
_audit_creation_date              2018-12-19
_audit_creation_method            'Materials Studio'
_symmetry_space_group_name_H-M    'P1'
_symmetry_Int_Tables_number       1
_symmetry_cell_setting            triclinic
loop_
_symmetry_equiv_pos_as_xyz
  x,y,z
_cell_length_a                    35.6089
_cell_length_b                    10.0882
_cell_length_c                    33.9942
_cell_angle_alpha                 90.0000
_cell_angle_beta                  166.9182
_cell_angle_gamma                 90.0000
loop_
_atom_site_label
_atom_site_type_symbol
_atom_site_fract_x
_atom_site_fract_y
_atom_site_fract_z
_atom_site_U_iso_or_equiv
_atom_site_adp_type
_atom_site_occupancy
C1     C     0.83654   0.67763   0.68949   0.00000  Uiso   1.00
C2     C     0.83630   0.72530   0.73182   0.00000  Uiso   1.00
C3     C     0.71359   0.80149   0.62418   0.00000  Uiso   1.00
C4     C     0.73637   0.83487   0.68668   0.00000  Uiso   1.00
C5     C     0.71467   0.91523   0.72746   0.00000  Uiso   1.00
C6     C     0.99786   0.72823   0.83610   0.00000  Uiso   1.00
C7     C     0.01098   0.80688   0.81613   0.00000  Uiso   1.00
C8     C     0.16977   0.84271   0.96641   0.00000  Uiso   1.00
C9     C     0.39891   0.92754   0.16907   0.00000  Uiso   1.00
C10    C     0.85273   0.52715   0.70779   0.00000  Uiso   1.00
C11    C     0.74384   0.43672   0.57996   0.00000  Uiso   1.00
C12    C     0.78046   0.30326   0.62223   0.00000  Uiso   1.00
C13    C     0.78425   0.07589   0.62567   0.00000  Uiso   1.00
C14    C     0.09522   0.60141   0.99188   0.00000  Uiso   1.00
C15    C     0.97681   0.68390   0.89607   0.00000  Uiso   1.00
C16    C     0.99978   0.71716   0.95875   0.00000  Uiso   1.00
C17    C     0.87712   0.79339   0.85122   0.00000  Uiso   1.00
C18    C     0.13836   0.68684   0.00034   0.00000  Uiso   1.00
C19    C     0.29718   0.72255   0.15069   0.00000  Uiso   1.00
C20    C     0.31053   0.80123   0.13096   0.00000  Uiso   1.00
C21    C     0.99323   0.48575   0.87204   0.00000  Uiso   1.00
C22    C     0.03004   0.35240   0.91452   0.00000  Uiso   1.00
C23    C     0.92122   0.26178   0.78678   0.00000  Uiso   1.00
H24    H     0.72716   0.70987   0.56162   0.00000  Uiso   1.00
H25    H     0.60487   0.83352   0.49709   0.00000  Uiso   1.00
H26    H     0.90223   0.83889   0.68901   0.00000  Uiso   1.00
H27    H     0.63513   0.46880   0.45287   0.00000  Uiso   1.00
H28    H     0.53130   0.95239   0.49800   0.00000  Uiso   1.00
H29    H     0.15828   0.96368   0.90266   0.00000  Uiso   1.00
H30    H     0.59505   0.18326   0.40472   0.00000  Uiso   1.00
H31    H     0.20461   0.56918   0.11977   0.00000  Uiso   1.00
H32    H     0.10853   0.68511   0.08586   0.00000  Uiso   1.00
H33    H     0.40588   0.69049   0.27777   0.00000  Uiso   1.00
H34    H     0.13878   0.32040   0.04164   0.00000  Uiso   1.00
H35    H     0.94008   0.83194   0.97587   0.00000  Uiso   1.00
H36    H     0.56707   0.84323   0.38053   0.00000  Uiso   1.00
H37    H     0.00383   0.06282   0.88260   0.00000  Uiso   1.00
O38    O     0.66390   0.97101   0.70458   0.00000  Uiso   1.00
O39    O     0.48647   0.98579   0.23548   0.00000  Uiso   1.00
O40    O     0.74752   0.96191   0.58219   0.00000  Uiso   1.00
N41    N     0.64068   0.90811   0.61511   0.00000  Uiso   1.00
N42    N     0.22687   0.91868   0.99344   0.00000  Uiso   1.00
N43    N     0.70031   0.18906   0.52793   0.00000  Uiso   1.00
N44    N     0.86064   0.84330   0.87224   0.00000  Uiso   1.00
N45    N     0.44683   0.85387   0.25058   0.00000  Uiso   1.00
N46    N     0.92028   0.12425   0.78507   0.00000  Uiso   1.00
C47    C     0.16346   0.17763   0.81051   0.00000  Uiso   1.00
C48    C     0.16370   0.22530   0.76818   0.00000  Uiso   1.00
C49    C     0.28641   0.30149   0.87582   0.00000  Uiso   1.00
C50    C     0.26363   0.33487   0.81332   0.00000  Uiso   1.00
C51    C     0.28533   0.41523   0.77254   0.00000  Uiso   1.00
C52    C     0.00214   0.22823   0.66390   0.00000  Uiso   1.00
C53    C     0.98902   0.30688   0.68387   0.00000  Uiso   1.00
C54    C     0.83023   0.34271   0.53359   0.00000  Uiso   1.00
C55    C     0.60109   0.42754   0.33093   0.00000  Uiso   1.00
C56    C     0.14727   0.02715   0.79221   0.00000  Uiso   1.00
C57    C     0.25616   0.93672   0.92004   0.00000  Uiso   1.00
C58    C     0.21954   0.80326   0.87777   0.00000  Uiso   1.00
C59    C     0.21575   0.57589   0.87433   0.00000  Uiso   1.00
C60    C     0.90478   0.10141   0.50812   0.00000  Uiso   1.00
C61    C     0.02319   0.18390   0.60393   0.00000  Uiso   1.00
C62    C     0.00022   0.21716   0.54125   0.00000  Uiso   1.00
C63    C     0.12288   0.29339   0.64878   0.00000  Uiso   1.00
C64    C     0.86164   0.18684   0.49966   0.00000  Uiso   1.00
C65    C     0.70282   0.22255   0.34931   0.00000  Uiso   1.00
C66    C     0.68947   0.30123   0.36904   0.00000  Uiso   1.00
C67    C     0.00677   0.98575   0.62796   0.00000  Uiso   1.00
C68    C     0.96996   0.85240   0.58548   0.00000  Uiso   1.00
C69    C     0.07878   0.76178   0.71322   0.00000  Uiso   1.00
H70    H     0.27284   0.20987   0.93838   0.00000  Uiso   1.00
H71    H     0.39513   0.33352   0.00291   0.00000  Uiso   1.00
H72    H     0.09777   0.33889   0.81099   0.00000  Uiso   1.00
H73    H     0.36487   0.96880   0.04713   0.00000  Uiso   1.00
H74    H     0.46870   0.45239   0.00200   0.00000  Uiso   1.00
H75    H     0.84172   0.46368   0.59734   0.00000  Uiso   1.00
H76    H     0.40495   0.68326   0.09528   0.00000  Uiso   1.00
H77    H     0.79539   0.06918   0.38023   0.00000  Uiso   1.00
H78    H     0.89147   0.18511   0.41414   0.00000  Uiso   1.00
H79    H     0.59412   0.19049   0.22223   0.00000  Uiso   1.00
H80    H     0.86122   0.82040   0.45836   0.00000  Uiso   1.00
H81    H     0.05992   0.33194   0.52413   0.00000  Uiso   1.00
H82    H     0.43293   0.34323   0.11947   0.00000  Uiso   1.00
H83    H     0.99617   0.56282   0.61740   0.00000  Uiso   1.00
O84    O     0.33610   0.47101   0.79542   0.00000  Uiso   1.00
O85    O     0.51353   0.48579   0.26452   0.00000  Uiso   1.00
O86    O     0.25248   0.46191   0.91781   0.00000  Uiso   1.00
N87    N     0.35932   0.40811   0.88489   0.00000  Uiso   1.00
N88    N     0.77313   0.41868   0.50656   0.00000  Uiso   1.00
N89    N     0.29969   0.68906   0.97207   0.00000  Uiso   1.00
N90    N     0.13936   0.34330   0.62776   0.00000  Uiso   1.00
N91    N     0.55317   0.35387   0.24942   0.00000  Uiso   1.00
N92    N     0.07972   0.62425   0.71493   0.00000  Uiso   1.00
C93    C     0.16346   0.32237   0.31051   0.00000  Uiso   1.00
C94    C     0.16370   0.27470   0.26818   0.00000  Uiso   1.00
C95    C     0.28641   0.19851   0.37582   0.00000  Uiso   1.00
C96    C     0.26363   0.16513   0.31332   0.00000  Uiso   1.00
C97    C     0.28533   0.08477   0.27254   0.00000  Uiso   1.00
C98    C     0.00214   0.27177   0.16390   0.00000  Uiso   1.00
C99    C     0.98902   0.19312   0.18387   0.00000  Uiso   1.00
C100   C     0.83023   0.15729   0.03359   0.00000  Uiso   1.00
C101   C     0.60109   0.07246   0.83093   0.00000  Uiso   1.00
C102   C     0.14727   0.47285   0.29221   0.00000  Uiso   1.00
C103   C     0.25616   0.56328   0.42004   0.00000  Uiso   1.00
C104   C     0.21954   0.69674   0.37777   0.00000  Uiso   1.00
C105   C     0.21575   0.92411   0.37433   0.00000  Uiso   1.00
C106   C     0.90478   0.39859   0.00812   0.00000  Uiso   1.00
C107   C     0.02319   0.31610   0.10393   0.00000  Uiso   1.00
C108   C     0.00022   0.28284   0.04125   0.00000  Uiso   1.00
C109   C     0.12288   0.20661   0.14878   0.00000  Uiso   1.00
C110   C     0.86164   0.31316   0.99966   0.00000  Uiso   1.00
C111   C     0.70282   0.27745   0.84931   0.00000  Uiso   1.00
C112   C     0.68947   0.19877   0.86904   0.00000  Uiso   1.00
C113   C     0.00677   0.51425   0.12796   0.00000  Uiso   1.00
C114   C     0.96996   0.64760   0.08548   0.00000  Uiso   1.00
C115   C     0.07878   0.73822   0.21322   0.00000  Uiso   1.00
H116   H     0.27284   0.29013   0.43838   0.00000  Uiso   1.00
H117   H     0.39513   0.16648   0.50291   0.00000  Uiso   1.00
H118   H     0.09777   0.16111   0.31099   0.00000  Uiso   1.00
H119   H     0.36487   0.53120   0.54713   0.00000  Uiso   1.00
H120   H     0.46870   0.04761   0.50200   0.00000  Uiso   1.00
H121   H     0.84172   0.03632   0.09734   0.00000  Uiso   1.00
H122   H     0.40495   0.81674   0.59528   0.00000  Uiso   1.00
H123   H     0.79539   0.43082   0.88023   0.00000  Uiso   1.00
H124   H     0.89147   0.31489   0.91414   0.00000  Uiso   1.00
H125   H     0.59412   0.30951   0.72223   0.00000  Uiso   1.00
H126   H     0.86122   0.67960   0.95836   0.00000  Uiso   1.00
H127   H     0.05992   0.16806   0.02413   0.00000  Uiso   1.00
H128   H     0.43293   0.15677   0.61947   0.00000  Uiso   1.00
H129   H     0.99617   0.93718   0.11740   0.00000  Uiso   1.00
O130   O     0.33610   0.02899   0.29542   0.00000  Uiso   1.00
O131   O     0.51353   0.01421   0.76452   0.00000  Uiso   1.00
O132   O     0.25248   0.03809   0.41781   0.00000  Uiso   1.00
N133   N     0.35932   0.09189   0.38489   0.00000  Uiso   1.00
N134   N     0.77313   0.08132   0.00656   0.00000  Uiso   1.00
N135   N     0.29969   0.81094   0.47207   0.00000  Uiso   1.00
N136   N     0.13936   0.15670   0.12776   0.00000  Uiso   1.00
N137   N     0.55317   0.14613   0.74942   0.00000  Uiso   1.00
N138   N     0.07972   0.87575   0.21493   0.00000  Uiso   1.00
C139   C     0.83654   0.82237   0.18949   0.00000  Uiso   1.00
C140   C     0.83630   0.77470   0.23182   0.00000  Uiso   1.00
C141   C     0.71359   0.69851   0.12418   0.00000  Uiso   1.00
C142   C     0.73637   0.66513   0.18668   0.00000  Uiso   1.00
C143   C     0.71467   0.58477   0.22746   0.00000  Uiso   1.00
C144   C     0.99786   0.77177   0.33610   0.00000  Uiso   1.00
C145   C     0.01098   0.69312   0.31613   0.00000  Uiso   1.00
C146   C     0.16977   0.65729   0.46641   0.00000  Uiso   1.00
C147   C     0.39891   0.57246   0.66907   0.00000  Uiso   1.00
C148   C     0.85273   0.97285   0.20779   0.00000  Uiso   1.00
C149   C     0.74384   0.06328   0.07996   0.00000  Uiso   1.00
C150   C     0.78046   0.19674   0.12223   0.00000  Uiso   1.00
C151   C     0.78425   0.42411   0.12567   0.00000  Uiso   1.00
C152   C     0.09522   0.89859   0.49188   0.00000  Uiso   1.00
C153   C     0.97681   0.81610   0.39607   0.00000  Uiso   1.00
C154   C     0.99978   0.78284   0.45875   0.00000  Uiso   1.00
C155   C     0.87712   0.70661   0.35122   0.00000  Uiso   1.00
C156   C     0.13836   0.81316   0.50034   0.00000  Uiso   1.00
C157   C     0.29718   0.77745   0.65069   0.00000  Uiso   1.00
C158   C     0.31053   0.69877   0.63096   0.00000  Uiso   1.00
C159   C     0.99323   0.01425   0.37204   0.00000  Uiso   1.00
C160   C     0.03004   0.14760   0.41452   0.00000  Uiso   1.00
C161   C     0.92122   0.23822   0.28678   0.00000  Uiso   1.00
H162   H     0.72716   0.79013   0.06162   0.00000  Uiso   1.00
H163   H     0.60487   0.66648   0.99709   0.00000  Uiso   1.00
H164   H     0.90223   0.66111   0.18901   0.00000  Uiso   1.00
H165   H     0.63513   0.03120   0.95287   0.00000  Uiso   1.00
H166   H     0.53130   0.54761   0.99800   0.00000  Uiso   1.00
H167   H     0.15828   0.53632   0.40266   0.00000  Uiso   1.00
H168   H     0.59505   0.31674   0.90472   0.00000  Uiso   1.00
H169   H     0.20461   0.93082   0.61977   0.00000  Uiso   1.00
H170   H     0.10853   0.81489   0.58586   0.00000  Uiso   1.00
H171   H     0.40588   0.80951   0.77777   0.00000  Uiso   1.00
H172   H     0.13878   0.17960   0.54164   0.00000  Uiso   1.00
H173   H     0.94008   0.66806   0.47587   0.00000  Uiso   1.00
H174   H     0.56707   0.65677   0.88053   0.00000  Uiso   1.00
H175   H     0.00383   0.43718   0.38260   0.00000  Uiso   1.00
O176   O     0.66390   0.52899   0.20458   0.00000  Uiso   1.00
O177   O     0.48647   0.51421   0.73548   0.00000  Uiso   1.00
O178   O     0.74752   0.53809   0.08219   0.00000  Uiso   1.00
N179   N     0.64068   0.59189   0.11511   0.00000  Uiso   1.00
N180   N     0.22687   0.58132   0.49344   0.00000  Uiso   1.00
N181   N     0.70031   0.31094   0.02793   0.00000  Uiso   1.00
N182   N     0.86064   0.65670   0.37224   0.00000  Uiso   1.00
N183   N     0.44683   0.64613   0.75058   0.00000  Uiso   1.00
N184   N     0.92028   0.37575   0.28507   0.00000  Uiso   1.00
