data_job_00215
_audit_creation_date              2018-12-19
_audit_creation_method            'Materials Studio'
_symmetry_space_group_name_H-M    'P1'
_symmetry_Int_Tables_number       1
_symmetry_cell_setting            triclinic
loop_
_symmetry_equiv_pos_as_xyz
  x,y,z
_cell_length_a                    20.8993
_cell_length_b                    21.6204
_cell_length_c                    7.3058
_cell_angle_alpha                 90.0048
_cell_angle_beta                  89.9816
_cell_angle_gamma                 98.9920
loop_
_atom_site_label
_atom_site_type_symbol
_atom_site_fract_x
_atom_site_fract_y
_atom_site_fract_z
_atom_site_U_iso_or_equiv
_atom_site_adp_type
_atom_site_occupancy
C1     C     0.16782   0.22629   0.82326   0.00000  Uiso   1.00
C2     C     0.22834   0.26529   0.90396   0.00000  Uiso   1.00
C3     C     0.27927   0.29810   0.80465   0.00000  Uiso   1.00
C4     C     0.33022   0.33092   0.90392   0.00000  Uiso   1.00
C5     C     0.42422   0.39145   0.00007   0.00000  Uiso   1.00
C6     C     0.16463   0.16081   0.90379   0.00000  Uiso   1.00
C7     C     0.16197   0.10578   0.80434   0.00000  Uiso   1.00
C8     C     0.15928   0.05065   0.90349   0.00000  Uiso   1.00
C9     C     0.15431   0.94897   0.99938   0.00000  Uiso   1.00
C10    C     0.11045   0.25273   0.90386   0.00000  Uiso   1.00
C11    C     0.06222   0.27497   0.80448   0.00000  Uiso   1.00
C12    C     0.01390   0.29721   0.90369   0.00000  Uiso   1.00
C13    C     0.92480   0.33825   0.99969   0.00000  Uiso   1.00
C14    C     0.16775   0.22624   0.17617   0.00000  Uiso   1.00
C15    C     0.22830   0.26526   0.09565   0.00000  Uiso   1.00
C16    C     0.27919   0.29804   0.19510   0.00000  Uiso   1.00
C17    C     0.33018   0.33090   0.09596   0.00000  Uiso   1.00
C18    C     0.16459   0.16078   0.09547   0.00000  Uiso   1.00
C19    C     0.16189   0.10572   0.19479   0.00000  Uiso   1.00
C20    C     0.15924   0.05062   0.09552   0.00000  Uiso   1.00
C21    C     0.11040   0.25271   0.09555   0.00000  Uiso   1.00
C22    C     0.06214   0.27491   0.19493   0.00000  Uiso   1.00
C23    C     0.01386   0.29718   0.09572   0.00000  Uiso   1.00
H24    H     0.16785   0.22631   0.67402   0.00000  Uiso   1.00
H25    H     0.27929   0.29810   0.65630   0.00000  Uiso   1.00
H26    H     0.16200   0.10581   0.65600   0.00000  Uiso   1.00
H27    H     0.06227   0.27498   0.65614   0.00000  Uiso   1.00
H28    H     0.40282   0.37767   0.72119   0.00000  Uiso   1.00
H29    H     0.15550   0.97221   0.72056   0.00000  Uiso   1.00
H30    H     0.94519   0.32893   0.72085   0.00000  Uiso   1.00
H31    H     0.16771   0.22622   0.32541   0.00000  Uiso   1.00
H32    H     0.27914   0.29801   0.34344   0.00000  Uiso   1.00
H33    H     0.16186   0.10572   0.34313   0.00000  Uiso   1.00
H34    H     0.06212   0.27488   0.34327   0.00000  Uiso   1.00
H35    H     0.40271   0.37759   0.27890   0.00000  Uiso   1.00
H36    H     0.15538   0.97213   0.27826   0.00000  Uiso   1.00
H37    H     0.94507   0.32885   0.27855   0.00000  Uiso   1.00
O38    O     0.47608   0.42485   0.00015   0.00000  Uiso   1.00
O39    O     0.15158   0.89290   0.99931   0.00000  Uiso   1.00
O40    O     0.87567   0.36091   0.99969   0.00000  Uiso   1.00
N41    N     0.38750   0.36781   0.84998   0.00000  Uiso   1.00
N42    N     0.15628   0.98873   0.84938   0.00000  Uiso   1.00
N43    N     0.95965   0.32222   0.84965   0.00000  Uiso   1.00
N44    N     0.38743   0.36777   0.15007   0.00000  Uiso   1.00
N45    N     0.15621   0.98869   0.14947   0.00000  Uiso   1.00
N46    N     0.95958   0.32218   0.14974   0.00000  Uiso   1.00
C47    C     0.77406   0.37714   0.67681   0.00000  Uiso   1.00
C48    C     0.70899   0.38658   0.59613   0.00000  Uiso   1.00
C49    C     0.65425   0.39452   0.69545   0.00000  Uiso   1.00
C50    C     0.59948   0.40245   0.59619   0.00000  Uiso   1.00
C51    C     0.49843   0.41708   0.50007   0.00000  Uiso   1.00
C52    C     0.78912   0.31595   0.59626   0.00000  Uiso   1.00
C53    C     0.80176   0.26452   0.69570   0.00000  Uiso   1.00
C54    C     0.81445   0.21300   0.59654   0.00000  Uiso   1.00
C55    C     0.83786   0.11800   0.50063   0.00000  Uiso   1.00
C56    C     0.82411   0.42885   0.59620   0.00000  Uiso   1.00
C57    C     0.86617   0.47234   0.69558   0.00000  Uiso   1.00
C58    C     0.90832   0.51588   0.59637   0.00000  Uiso   1.00
C59    C     0.98605   0.59617   0.50036   0.00000  Uiso   1.00
C60    C     0.77413   0.37710   0.32390   0.00000  Uiso   1.00
C61    C     0.70904   0.38656   0.40444   0.00000  Uiso   1.00
C62    C     0.65433   0.39448   0.30500   0.00000  Uiso   1.00
C63    C     0.59952   0.40244   0.40416   0.00000  Uiso   1.00
C64    C     0.78916   0.31593   0.40458   0.00000  Uiso   1.00
C65    C     0.80184   0.26448   0.30525   0.00000  Uiso   1.00
C66    C     0.81449   0.21298   0.40451   0.00000  Uiso   1.00
C67    C     0.82415   0.42884   0.40451   0.00000  Uiso   1.00
C68    C     0.86625   0.47231   0.30512   0.00000  Uiso   1.00
C69    C     0.90837   0.51585   0.40433   0.00000  Uiso   1.00
H70    H     0.77403   0.37715   0.82604   0.00000  Uiso   1.00
H71    H     0.65424   0.39453   0.84380   0.00000  Uiso   1.00
H72    H     0.80173   0.26455   0.84404   0.00000  Uiso   1.00
H73    H     0.86613   0.47234   0.84391   0.00000  Uiso   1.00
H74    H     0.52144   0.41376   0.77894   0.00000  Uiso   1.00
H75    H     0.83246   0.13971   0.77946   0.00000  Uiso   1.00
H76    H     0.96825   0.57788   0.77920   0.00000  Uiso   1.00
H77    H     0.77417   0.37709   0.17466   0.00000  Uiso   1.00
H78    H     0.65438   0.39446   0.15666   0.00000  Uiso   1.00
H79    H     0.80187   0.26448   0.15691   0.00000  Uiso   1.00
H80    H     0.86627   0.47228   0.15679   0.00000  Uiso   1.00
H81    H     0.52155   0.41371   0.22124   0.00000  Uiso   1.00
H82    H     0.83258   0.13965   0.22176   0.00000  Uiso   1.00
H83    H     0.96836   0.57782   0.22150   0.00000  Uiso   1.00
O84    O     0.44268   0.42514   0.50001   0.00000  Uiso   1.00
O85    O     0.85075   0.06560   0.50069   0.00000  Uiso   1.00
O86    O     0.02890   0.64047   0.50035   0.00000  Uiso   1.00
N87    N     0.53791   0.41138   0.65016   0.00000  Uiso   1.00
N88    N     0.82869   0.15515   0.65064   0.00000  Uiso   1.00
N89    N     0.95565   0.56479   0.65040   0.00000  Uiso   1.00
N90    N     0.53797   0.41135   0.35006   0.00000  Uiso   1.00
N91    N     0.82875   0.15512   0.35054   0.00000  Uiso   1.00
N92    N     0.95571   0.56476   0.35030   0.00000  Uiso   1.00
C93    C     0.83218   0.77371   0.17674   0.00000  Uiso   1.00
C94    C     0.77166   0.73471   0.09604   0.00000  Uiso   1.00
C95    C     0.72073   0.70190   0.19535   0.00000  Uiso   1.00
C96    C     0.66978   0.66908   0.09608   0.00000  Uiso   1.00
C97    C     0.57578   0.60855   0.99993   0.00000  Uiso   1.00
C98    C     0.83537   0.83919   0.09621   0.00000  Uiso   1.00
C99    C     0.83803   0.89422   0.19566   0.00000  Uiso   1.00
C100   C     0.84072   0.94935   0.09651   0.00000  Uiso   1.00
C101   C     0.84569   0.05103   0.00062   0.00000  Uiso   1.00
C102   C     0.88955   0.74727   0.09614   0.00000  Uiso   1.00
C103   C     0.93778   0.72503   0.19552   0.00000  Uiso   1.00
C104   C     0.98610   0.70279   0.09631   0.00000  Uiso   1.00
C105   C     0.07520   0.66175   0.00031   0.00000  Uiso   1.00
C106   C     0.83225   0.77376   0.82383   0.00000  Uiso   1.00
C107   C     0.77170   0.73474   0.90435   0.00000  Uiso   1.00
C108   C     0.72081   0.70196   0.80490   0.00000  Uiso   1.00
C109   C     0.66982   0.66910   0.90404   0.00000  Uiso   1.00
C110   C     0.83541   0.83922   0.90453   0.00000  Uiso   1.00
C111   C     0.83811   0.89428   0.80521   0.00000  Uiso   1.00
C112   C     0.84076   0.94938   0.90448   0.00000  Uiso   1.00
C113   C     0.88960   0.74729   0.90445   0.00000  Uiso   1.00
C114   C     0.93786   0.72509   0.80507   0.00000  Uiso   1.00
C115   C     0.98614   0.70282   0.90428   0.00000  Uiso   1.00
H116   H     0.83215   0.77369   0.32598   0.00000  Uiso   1.00
H117   H     0.72071   0.70190   0.34370   0.00000  Uiso   1.00
H118   H     0.83800   0.89419   0.34400   0.00000  Uiso   1.00
H119   H     0.93773   0.72502   0.34386   0.00000  Uiso   1.00
H120   H     0.59718   0.62233   0.27881   0.00000  Uiso   1.00
H121   H     0.84450   0.02779   0.27944   0.00000  Uiso   1.00
H122   H     0.05481   0.67107   0.27915   0.00000  Uiso   1.00
H123   H     0.83229   0.77378   0.67459   0.00000  Uiso   1.00
H124   H     0.72086   0.70199   0.65656   0.00000  Uiso   1.00
H125   H     0.83814   0.89428   0.65687   0.00000  Uiso   1.00
H126   H     0.93788   0.72512   0.65673   0.00000  Uiso   1.00
H127   H     0.59729   0.62241   0.72110   0.00000  Uiso   1.00
H128   H     0.84462   0.02787   0.72174   0.00000  Uiso   1.00
H129   H     0.05493   0.67115   0.72145   0.00000  Uiso   1.00
O130   O     0.52392   0.57515   0.99985   0.00000  Uiso   1.00
O131   O     0.84842   0.10710   0.00069   0.00000  Uiso   1.00
O132   O     0.12433   0.63909   0.00031   0.00000  Uiso   1.00
N133   N     0.61250   0.63219   0.15002   0.00000  Uiso   1.00
N134   N     0.84372   0.01127   0.15062   0.00000  Uiso   1.00
N135   N     0.04035   0.67778   0.15035   0.00000  Uiso   1.00
N136   N     0.61257   0.63223   0.84993   0.00000  Uiso   1.00
N137   N     0.84379   0.01131   0.85053   0.00000  Uiso   1.00
N138   N     0.04042   0.67782   0.85026   0.00000  Uiso   1.00
C139   C     0.22594   0.62286   0.32319   0.00000  Uiso   1.00
C140   C     0.29101   0.61342   0.40387   0.00000  Uiso   1.00
C141   C     0.34575   0.60548   0.30455   0.00000  Uiso   1.00
C142   C     0.40052   0.59755   0.40381   0.00000  Uiso   1.00
C143   C     0.50157   0.58292   0.49993   0.00000  Uiso   1.00
C144   C     0.21088   0.68405   0.40374   0.00000  Uiso   1.00
C145   C     0.19824   0.73548   0.30430   0.00000  Uiso   1.00
C146   C     0.18555   0.78700   0.40346   0.00000  Uiso   1.00
C147   C     0.16214   0.88200   0.49937   0.00000  Uiso   1.00
C148   C     0.17589   0.57115   0.40380   0.00000  Uiso   1.00
C149   C     0.13383   0.52766   0.30442   0.00000  Uiso   1.00
C150   C     0.09168   0.48412   0.40363   0.00000  Uiso   1.00
C151   C     0.01395   0.40383   0.49964   0.00000  Uiso   1.00
C152   C     0.22587   0.62290   0.67610   0.00000  Uiso   1.00
C153   C     0.29096   0.61344   0.59556   0.00000  Uiso   1.00
C154   C     0.34567   0.60552   0.69500   0.00000  Uiso   1.00
C155   C     0.40048   0.59756   0.59584   0.00000  Uiso   1.00
C156   C     0.21084   0.68407   0.59542   0.00000  Uiso   1.00
C157   C     0.19816   0.73552   0.69475   0.00000  Uiso   1.00
C158   C     0.18551   0.78702   0.59549   0.00000  Uiso   1.00
C159   C     0.17585   0.57116   0.59549   0.00000  Uiso   1.00
C160   C     0.13375   0.52769   0.69488   0.00000  Uiso   1.00
C161   C     0.09163   0.48415   0.59567   0.00000  Uiso   1.00
H162   H     0.22597   0.62285   0.17396   0.00000  Uiso   1.00
H163   H     0.34576   0.60547   0.15620   0.00000  Uiso   1.00
H164   H     0.19827   0.73545   0.15596   0.00000  Uiso   1.00
H165   H     0.13387   0.52766   0.15609   0.00000  Uiso   1.00
H166   H     0.47856   0.58624   0.22106   0.00000  Uiso   1.00
H167   H     0.16754   0.86029   0.22054   0.00000  Uiso   1.00
H168   H     0.03175   0.42212   0.22080   0.00000  Uiso   1.00
H169   H     0.22583   0.62291   0.82534   0.00000  Uiso   1.00
H170   H     0.34562   0.60554   0.84334   0.00000  Uiso   1.00
H171   H     0.19813   0.73552   0.84309   0.00000  Uiso   1.00
H172   H     0.13373   0.52772   0.84321   0.00000  Uiso   1.00
H173   H     0.47845   0.58629   0.77876   0.00000  Uiso   1.00
H174   H     0.16742   0.86035   0.77824   0.00000  Uiso   1.00
H175   H     0.03164   0.42218   0.77850   0.00000  Uiso   1.00
O176   O     0.55732   0.57486   0.49999   0.00000  Uiso   1.00
O177   O     0.14925   0.93440   0.49931   0.00000  Uiso   1.00
O178   O     0.97110   0.35953   0.49965   0.00000  Uiso   1.00
N179   N     0.46209   0.58862   0.34984   0.00000  Uiso   1.00
N180   N     0.17131   0.84485   0.34936   0.00000  Uiso   1.00
N181   N     0.04435   0.43521   0.34960   0.00000  Uiso   1.00
N182   N     0.46203   0.58865   0.64994   0.00000  Uiso   1.00
N183   N     0.17125   0.84488   0.64946   0.00000  Uiso   1.00
N184   N     0.04429   0.43524   0.64970   0.00000  Uiso   1.00
