data_job_01244
_audit_creation_date              2018-12-19
_audit_creation_method            'Materials Studio'
_symmetry_space_group_name_H-M    'P1'
_symmetry_Int_Tables_number       1
_symmetry_cell_setting            triclinic
loop_
_symmetry_equiv_pos_as_xyz
  x,y,z
_cell_length_a                    12.5076
_cell_length_b                    10.2080
_cell_length_c                    19.4597
_cell_angle_alpha                 90.0000
_cell_angle_beta                  100.6210
_cell_angle_gamma                 90.0000
loop_
_atom_site_label
_atom_site_type_symbol
_atom_site_fract_x
_atom_site_fract_y
_atom_site_fract_z
_atom_site_U_iso_or_equiv
_atom_site_adp_type
_atom_site_occupancy
C1     C     0.84029   0.25673   0.66738   0.00000  Uiso   1.00
C2     C     0.72583   0.30685   0.63895   0.00000  Uiso   1.00
C3     C     0.67127   0.40271   0.66949   0.00000  Uiso   1.00
C4     C     0.56709   0.43481   0.63535   0.00000  Uiso   1.00
C5     C     0.39662   0.52196   0.60071   0.00000  Uiso   1.00
C6     C     0.82977   0.10894   0.67544   0.00000  Uiso   1.00
C7     C     0.86263   0.03841   0.73666   0.00000  Uiso   1.00
C8     C     0.84595   0.90391   0.73324   0.00000  Uiso   1.00
C9     C     0.83692   0.68380   0.75525   0.00000  Uiso   1.00
C10    C     0.90496   0.27665   0.60899   0.00000  Uiso   1.00
C11    C     0.00105   0.34709   0.61435   0.00000  Uiso   1.00
C12    C     0.04769   0.35376   0.55499   0.00000  Uiso   1.00
C13    C     0.15539   0.39403   0.47383   0.00000  Uiso   1.00
C14    C     0.75229   0.14329   0.55244   0.00000  Uiso   1.00
C15    C     0.67804   0.24522   0.57652   0.00000  Uiso   1.00
C16    C     0.57391   0.27720   0.54232   0.00000  Uiso   1.00
C17    C     0.51921   0.37309   0.57281   0.00000  Uiso   1.00
C18    C     0.78198   0.04732   0.61301   0.00000  Uiso   1.00
C19    C     0.76526   0.91290   0.60950   0.00000  Uiso   1.00
C20    C     0.79807   0.84218   0.67070   0.00000  Uiso   1.00
C21    C     0.85716   0.21503   0.54656   0.00000  Uiso   1.00
C22    C     0.90367   0.22158   0.48718   0.00000  Uiso   1.00
C23    C     0.99980   0.29203   0.49245   0.00000  Uiso   1.00
H24    H     0.87751   0.30469   0.71599   0.00000  Uiso   1.00
H25    H     0.70829   0.45036   0.71780   0.00000  Uiso   1.00
H26    H     0.89962   0.08612   0.78496   0.00000  Uiso   1.00
H27    H     0.03801   0.39476   0.66267   0.00000  Uiso   1.00
H28    H     0.49959   0.58465   0.69230   0.00000  Uiso   1.00
H29    H     0.90305   0.81662   0.83391   0.00000  Uiso   1.00
H30    H     0.19488   0.46744   0.57603   0.00000  Uiso   1.00
H31    H     0.71508   0.09531   0.50384   0.00000  Uiso   1.00
H32    H     0.53694   0.22949   0.49401   0.00000  Uiso   1.00
H33    H     0.72827   0.86525   0.56118   0.00000  Uiso   1.00
H34    H     0.86666   0.17389   0.43888   0.00000  Uiso   1.00
H35    H     0.36051   0.40538   0.51067   0.00000  Uiso   1.00
H36    H     0.76398   0.63735   0.65227   0.00000  Uiso   1.00
H37    H     0.05580   0.28818   0.39439   0.00000  Uiso   1.00
O38    O     0.31578   0.58703   0.59886   0.00000  Uiso   1.00
O39    O     0.84513   0.57941   0.78464   0.00000  Uiso   1.00
O40    O     0.22800   0.43328   0.44631   0.00000  Uiso   1.00
N41    N     0.49131   0.52407   0.65089   0.00000  Uiso   1.00
N42    N     0.86851   0.80601   0.78329   0.00000  Uiso   1.00
N43    N     0.14136   0.41444   0.54220   0.00000  Uiso   1.00
N44    N     0.41648   0.42760   0.55316   0.00000  Uiso   1.00
N45    N     0.79368   0.70955   0.68555   0.00000  Uiso   1.00
N46    N     0.06652   0.31798   0.44446   0.00000  Uiso   1.00
C47    C     0.15971   0.25673   0.83262   0.00000  Uiso   1.00
C48    C     0.27417   0.30685   0.86105   0.00000  Uiso   1.00
C49    C     0.32873   0.40271   0.83051   0.00000  Uiso   1.00
C50    C     0.43291   0.43481   0.86465   0.00000  Uiso   1.00
C51    C     0.60338   0.52196   0.89929   0.00000  Uiso   1.00
C52    C     0.17023   0.10894   0.82456   0.00000  Uiso   1.00
C53    C     0.13737   0.03841   0.76334   0.00000  Uiso   1.00
C54    C     0.15405   0.90391   0.76676   0.00000  Uiso   1.00
C55    C     0.16308   0.68380   0.74475   0.00000  Uiso   1.00
C56    C     0.09504   0.27665   0.89101   0.00000  Uiso   1.00
C57    C     0.99895   0.34709   0.88565   0.00000  Uiso   1.00
C58    C     0.95231   0.35376   0.94501   0.00000  Uiso   1.00
C59    C     0.84461   0.39403   0.02617   0.00000  Uiso   1.00
C60    C     0.24771   0.14329   0.94756   0.00000  Uiso   1.00
C61    C     0.32196   0.24522   0.92348   0.00000  Uiso   1.00
C62    C     0.42609   0.27720   0.95768   0.00000  Uiso   1.00
C63    C     0.48079   0.37309   0.92719   0.00000  Uiso   1.00
C64    C     0.21802   0.04732   0.88699   0.00000  Uiso   1.00
C65    C     0.23474   0.91290   0.89050   0.00000  Uiso   1.00
C66    C     0.20193   0.84218   0.82930   0.00000  Uiso   1.00
C67    C     0.14284   0.21503   0.95344   0.00000  Uiso   1.00
C68    C     0.09633   0.22158   0.01282   0.00000  Uiso   1.00
C69    C     0.00020   0.29203   0.00755   0.00000  Uiso   1.00
H70    H     0.12249   0.30469   0.78401   0.00000  Uiso   1.00
H71    H     0.29171   0.45036   0.78220   0.00000  Uiso   1.00
H72    H     0.10038   0.08612   0.71504   0.00000  Uiso   1.00
H73    H     0.96199   0.39476   0.83733   0.00000  Uiso   1.00
H74    H     0.50041   0.58465   0.80770   0.00000  Uiso   1.00
H75    H     0.09695   0.81662   0.66609   0.00000  Uiso   1.00
H76    H     0.80512   0.46744   0.92397   0.00000  Uiso   1.00
H77    H     0.28492   0.09531   0.99616   0.00000  Uiso   1.00
H78    H     0.46306   0.22949   0.00599   0.00000  Uiso   1.00
H79    H     0.27173   0.86525   0.93882   0.00000  Uiso   1.00
H80    H     0.13334   0.17389   0.06112   0.00000  Uiso   1.00
H81    H     0.63949   0.40538   0.98933   0.00000  Uiso   1.00
H82    H     0.23602   0.63735   0.84773   0.00000  Uiso   1.00
H83    H     0.94420   0.28818   0.10561   0.00000  Uiso   1.00
O84    O     0.68422   0.58703   0.90114   0.00000  Uiso   1.00
O85    O     0.15487   0.57941   0.71536   0.00000  Uiso   1.00
O86    O     0.77200   0.43328   0.05369   0.00000  Uiso   1.00
N87    N     0.50869   0.52407   0.84911   0.00000  Uiso   1.00
N88    N     0.13149   0.80601   0.71671   0.00000  Uiso   1.00
N89    N     0.85864   0.41444   0.95780   0.00000  Uiso   1.00
N90    N     0.58352   0.42760   0.94684   0.00000  Uiso   1.00
N91    N     0.20632   0.70955   0.81445   0.00000  Uiso   1.00
N92    N     0.93348   0.31798   0.05554   0.00000  Uiso   1.00
C93    C     0.15971   0.74327   0.33262   0.00000  Uiso   1.00
C94    C     0.27417   0.69315   0.36105   0.00000  Uiso   1.00
C95    C     0.32873   0.59729   0.33051   0.00000  Uiso   1.00
C96    C     0.43291   0.56519   0.36465   0.00000  Uiso   1.00
C97    C     0.60338   0.47804   0.39929   0.00000  Uiso   1.00
C98    C     0.17023   0.89106   0.32456   0.00000  Uiso   1.00
C99    C     0.13737   0.96159   0.26334   0.00000  Uiso   1.00
C100   C     0.15405   0.09609   0.26676   0.00000  Uiso   1.00
C101   C     0.16308   0.31620   0.24475   0.00000  Uiso   1.00
C102   C     0.09504   0.72335   0.39101   0.00000  Uiso   1.00
C103   C     0.99895   0.65291   0.38565   0.00000  Uiso   1.00
C104   C     0.95231   0.64624   0.44501   0.00000  Uiso   1.00
C105   C     0.84461   0.60597   0.52617   0.00000  Uiso   1.00
C106   C     0.24771   0.85671   0.44756   0.00000  Uiso   1.00
C107   C     0.32196   0.75478   0.42348   0.00000  Uiso   1.00
C108   C     0.42609   0.72280   0.45768   0.00000  Uiso   1.00
C109   C     0.48079   0.62691   0.42719   0.00000  Uiso   1.00
C110   C     0.21802   0.95268   0.38699   0.00000  Uiso   1.00
C111   C     0.23474   0.08710   0.39050   0.00000  Uiso   1.00
C112   C     0.20193   0.15782   0.32930   0.00000  Uiso   1.00
C113   C     0.14284   0.78497   0.45344   0.00000  Uiso   1.00
C114   C     0.09633   0.77842   0.51282   0.00000  Uiso   1.00
C115   C     0.00020   0.70797   0.50755   0.00000  Uiso   1.00
H116   H     0.12249   0.69531   0.28401   0.00000  Uiso   1.00
H117   H     0.29171   0.54964   0.28220   0.00000  Uiso   1.00
H118   H     0.10038   0.91388   0.21504   0.00000  Uiso   1.00
H119   H     0.96199   0.60524   0.33733   0.00000  Uiso   1.00
H120   H     0.50041   0.41535   0.30770   0.00000  Uiso   1.00
H121   H     0.09695   0.18338   0.16609   0.00000  Uiso   1.00
H122   H     0.80512   0.53256   0.42397   0.00000  Uiso   1.00
H123   H     0.28492   0.90469   0.49616   0.00000  Uiso   1.00
H124   H     0.46306   0.77051   0.50599   0.00000  Uiso   1.00
H125   H     0.27173   0.13475   0.43882   0.00000  Uiso   1.00
H126   H     0.13334   0.82611   0.56112   0.00000  Uiso   1.00
H127   H     0.63949   0.59462   0.48933   0.00000  Uiso   1.00
H128   H     0.23602   0.36265   0.34773   0.00000  Uiso   1.00
H129   H     0.94420   0.71182   0.60561   0.00000  Uiso   1.00
O130   O     0.68422   0.41297   0.40114   0.00000  Uiso   1.00
O131   O     0.15487   0.42059   0.21536   0.00000  Uiso   1.00
O132   O     0.77200   0.56672   0.55369   0.00000  Uiso   1.00
N133   N     0.50869   0.47593   0.34911   0.00000  Uiso   1.00
N134   N     0.13149   0.19399   0.21671   0.00000  Uiso   1.00
N135   N     0.85864   0.58556   0.45780   0.00000  Uiso   1.00
N136   N     0.58352   0.57240   0.44684   0.00000  Uiso   1.00
N137   N     0.20632   0.29045   0.31445   0.00000  Uiso   1.00
N138   N     0.93348   0.68202   0.55554   0.00000  Uiso   1.00
C139   C     0.84029   0.74327   0.16738   0.00000  Uiso   1.00
C140   C     0.72583   0.69315   0.13895   0.00000  Uiso   1.00
C141   C     0.67127   0.59729   0.16949   0.00000  Uiso   1.00
C142   C     0.56709   0.56519   0.13535   0.00000  Uiso   1.00
C143   C     0.39662   0.47804   0.10071   0.00000  Uiso   1.00
C144   C     0.82977   0.89106   0.17544   0.00000  Uiso   1.00
C145   C     0.86263   0.96159   0.23666   0.00000  Uiso   1.00
C146   C     0.84595   0.09609   0.23324   0.00000  Uiso   1.00
C147   C     0.83692   0.31620   0.25525   0.00000  Uiso   1.00
C148   C     0.90496   0.72335   0.10899   0.00000  Uiso   1.00
C149   C     0.00105   0.65291   0.11435   0.00000  Uiso   1.00
C150   C     0.04769   0.64624   0.05499   0.00000  Uiso   1.00
C151   C     0.15539   0.60597   0.97383   0.00000  Uiso   1.00
C152   C     0.75229   0.85671   0.05244   0.00000  Uiso   1.00
C153   C     0.67804   0.75478   0.07652   0.00000  Uiso   1.00
C154   C     0.57391   0.72280   0.04232   0.00000  Uiso   1.00
C155   C     0.51921   0.62691   0.07281   0.00000  Uiso   1.00
C156   C     0.78198   0.95268   0.11301   0.00000  Uiso   1.00
C157   C     0.76526   0.08710   0.10950   0.00000  Uiso   1.00
C158   C     0.79807   0.15782   0.17070   0.00000  Uiso   1.00
C159   C     0.85716   0.78497   0.04656   0.00000  Uiso   1.00
C160   C     0.90367   0.77842   0.98718   0.00000  Uiso   1.00
C161   C     0.99980   0.70797   0.99245   0.00000  Uiso   1.00
H162   H     0.87751   0.69531   0.21599   0.00000  Uiso   1.00
H163   H     0.70829   0.54964   0.21780   0.00000  Uiso   1.00
H164   H     0.89962   0.91388   0.28496   0.00000  Uiso   1.00
H165   H     0.03801   0.60524   0.16267   0.00000  Uiso   1.00
H166   H     0.49959   0.41535   0.19230   0.00000  Uiso   1.00
H167   H     0.90305   0.18338   0.33391   0.00000  Uiso   1.00
H168   H     0.19488   0.53256   0.07603   0.00000  Uiso   1.00
H169   H     0.71508   0.90469   0.00384   0.00000  Uiso   1.00
H170   H     0.53694   0.77051   0.99401   0.00000  Uiso   1.00
H171   H     0.72827   0.13475   0.06118   0.00000  Uiso   1.00
H172   H     0.86666   0.82611   0.93888   0.00000  Uiso   1.00
H173   H     0.36051   0.59462   0.01067   0.00000  Uiso   1.00
H174   H     0.76398   0.36265   0.15227   0.00000  Uiso   1.00
H175   H     0.05580   0.71182   0.89439   0.00000  Uiso   1.00
O176   O     0.31578   0.41297   0.09886   0.00000  Uiso   1.00
O177   O     0.84513   0.42059   0.28464   0.00000  Uiso   1.00
O178   O     0.22800   0.56672   0.94631   0.00000  Uiso   1.00
N179   N     0.49131   0.47593   0.15089   0.00000  Uiso   1.00
N180   N     0.86851   0.19399   0.28329   0.00000  Uiso   1.00
N181   N     0.14136   0.58556   0.04220   0.00000  Uiso   1.00
N182   N     0.41648   0.57240   0.05316   0.00000  Uiso   1.00
N183   N     0.79368   0.29045   0.18555   0.00000  Uiso   1.00
N184   N     0.06652   0.68202   0.94446   0.00000  Uiso   1.00
