data_job_03231
_audit_creation_date              2018-12-19
_audit_creation_method            'Materials Studio'
_symmetry_space_group_name_H-M    'P1'
_symmetry_Int_Tables_number       1
_symmetry_cell_setting            triclinic
loop_
_symmetry_equiv_pos_as_xyz
  x,y,z
_cell_length_a                    12.6827
_cell_length_b                    14.3963
_cell_length_c                    10.0674
_cell_angle_alpha                 90.0000
_cell_angle_beta                  67.0804
_cell_angle_gamma                 90.0000
loop_
_atom_site_label
_atom_site_type_symbol
_atom_site_fract_x
_atom_site_fract_y
_atom_site_fract_z
_atom_site_U_iso_or_equiv
_atom_site_adp_type
_atom_site_occupancy
C1     C     0.06752   0.23605   0.61558   0.00000  Uiso   1.00
C2     C     0.95418   0.18720   0.64343   0.00000  Uiso   1.00
C3     C     0.92284   0.14615   0.53950   0.00000  Uiso   1.00
C4     C     0.81542   0.10504   0.58681   0.00000  Uiso   1.00
C5     C     0.65058   0.02923   0.60784   0.00000  Uiso   1.00
C6     C     0.03667   0.33376   0.67699   0.00000  Uiso   1.00
C7     C     0.07470   0.41591   0.60129   0.00000  Uiso   1.00
C8     C     0.03674   0.49817   0.67686   0.00000  Uiso   1.00
C9     C     0.11916   0.18721   0.71055   0.00000  Uiso   1.00
C10    C     0.22656   0.14615   0.66307   0.00000  Uiso   1.00
C11    C     0.25805   0.10504   0.76691   0.00000  Uiso   1.00
H12    H     0.12462   0.23606   0.50190   0.00000  Uiso   1.00
H13    H     0.97963   0.14617   0.42651   0.00000  Uiso   1.00
H14    H     0.13146   0.41589   0.48829   0.00000  Uiso   1.00
H15    H     0.28330   0.14617   0.55007   0.00000  Uiso   1.00
H16    H     0.78652   0.04653   0.40731   0.00000  Uiso   1.00
H17    H     0.10670   0.61527   0.53759   0.00000  Uiso   1.00
H18    H     0.42689   0.04653   0.66786   0.00000  Uiso   1.00
O19    O     0.57992   0.98741   0.57909   0.00000  Uiso   1.00
N20    N     0.75806   0.05886   0.51391   0.00000  Uiso   1.00
N21    N     0.05741   0.59058   0.63570   0.00000  Uiso   1.00
N22    N     0.35676   0.05886   0.75749   0.00000  Uiso   1.00
C23    C     0.93248   0.23605   0.88442   0.00000  Uiso   1.00
C24    C     0.04582   0.18720   0.85657   0.00000  Uiso   1.00
C25    C     0.07716   0.14615   0.96050   0.00000  Uiso   1.00
C26    C     0.18458   0.10504   0.91319   0.00000  Uiso   1.00
C27    C     0.34942   0.02923   0.89216   0.00000  Uiso   1.00
C28    C     0.96333   0.33376   0.82301   0.00000  Uiso   1.00
C29    C     0.92530   0.41591   0.89871   0.00000  Uiso   1.00
C30    C     0.96326   0.49817   0.82314   0.00000  Uiso   1.00
C31    C     0.88084   0.18721   0.78945   0.00000  Uiso   1.00
C32    C     0.77344   0.14615   0.83693   0.00000  Uiso   1.00
C33    C     0.74195   0.10504   0.73309   0.00000  Uiso   1.00
H34    H     0.87538   0.23606   0.99810   0.00000  Uiso   1.00
H35    H     0.02037   0.14617   0.07349   0.00000  Uiso   1.00
H36    H     0.86854   0.41589   0.01171   0.00000  Uiso   1.00
H37    H     0.71670   0.14617   0.94993   0.00000  Uiso   1.00
H38    H     0.21348   0.04653   0.09269   0.00000  Uiso   1.00
H39    H     0.89330   0.61527   0.96241   0.00000  Uiso   1.00
H40    H     0.57311   0.04653   0.83214   0.00000  Uiso   1.00
O41    O     0.42008   0.98741   0.92091   0.00000  Uiso   1.00
N42    N     0.24194   0.05886   0.98609   0.00000  Uiso   1.00
N43    N     0.94259   0.59058   0.86430   0.00000  Uiso   1.00
N44    N     0.64324   0.05886   0.74251   0.00000  Uiso   1.00
C45    C     0.93248   0.76395   0.38442   0.00000  Uiso   1.00
C46    C     0.04582   0.81280   0.35657   0.00000  Uiso   1.00
C47    C     0.07716   0.85385   0.46050   0.00000  Uiso   1.00
C48    C     0.18458   0.89496   0.41319   0.00000  Uiso   1.00
C49    C     0.34942   0.97077   0.39216   0.00000  Uiso   1.00
C50    C     0.96333   0.66624   0.32301   0.00000  Uiso   1.00
C51    C     0.92530   0.58409   0.39871   0.00000  Uiso   1.00
C52    C     0.96326   0.50183   0.32314   0.00000  Uiso   1.00
C53    C     0.88084   0.81279   0.28945   0.00000  Uiso   1.00
C54    C     0.77344   0.85385   0.33693   0.00000  Uiso   1.00
C55    C     0.74195   0.89496   0.23309   0.00000  Uiso   1.00
H56    H     0.87538   0.76394   0.49810   0.00000  Uiso   1.00
H57    H     0.02037   0.85383   0.57349   0.00000  Uiso   1.00
H58    H     0.86854   0.58411   0.51171   0.00000  Uiso   1.00
H59    H     0.71670   0.85383   0.44993   0.00000  Uiso   1.00
H60    H     0.21348   0.95347   0.59269   0.00000  Uiso   1.00
H61    H     0.89330   0.38473   0.46241   0.00000  Uiso   1.00
H62    H     0.57311   0.95347   0.33214   0.00000  Uiso   1.00
O63    O     0.42008   0.01259   0.42091   0.00000  Uiso   1.00
N64    N     0.24194   0.94114   0.48609   0.00000  Uiso   1.00
N65    N     0.94259   0.40942   0.36430   0.00000  Uiso   1.00
N66    N     0.64324   0.94114   0.24251   0.00000  Uiso   1.00
C67    C     0.06752   0.76395   0.11558   0.00000  Uiso   1.00
C68    C     0.95418   0.81280   0.14343   0.00000  Uiso   1.00
C69    C     0.92284   0.85385   0.03950   0.00000  Uiso   1.00
C70    C     0.81542   0.89496   0.08681   0.00000  Uiso   1.00
C71    C     0.65058   0.97077   0.10784   0.00000  Uiso   1.00
C72    C     0.03667   0.66624   0.17699   0.00000  Uiso   1.00
C73    C     0.07470   0.58409   0.10129   0.00000  Uiso   1.00
C74    C     0.03674   0.50183   0.17686   0.00000  Uiso   1.00
C75    C     0.11916   0.81279   0.21055   0.00000  Uiso   1.00
C76    C     0.22656   0.85385   0.16307   0.00000  Uiso   1.00
C77    C     0.25805   0.89496   0.26691   0.00000  Uiso   1.00
H78    H     0.12462   0.76394   0.00190   0.00000  Uiso   1.00
H79    H     0.97963   0.85383   0.92651   0.00000  Uiso   1.00
H80    H     0.13146   0.58411   0.98829   0.00000  Uiso   1.00
H81    H     0.28330   0.85383   0.05007   0.00000  Uiso   1.00
H82    H     0.78652   0.95347   0.90731   0.00000  Uiso   1.00
H83    H     0.10670   0.38473   0.03759   0.00000  Uiso   1.00
H84    H     0.42689   0.95347   0.16786   0.00000  Uiso   1.00
O85    O     0.57992   0.01259   0.07909   0.00000  Uiso   1.00
N86    N     0.75806   0.94114   0.01391   0.00000  Uiso   1.00
N87    N     0.05741   0.40942   0.13570   0.00000  Uiso   1.00
N88    N     0.35676   0.94114   0.25749   0.00000  Uiso   1.00
C89    C     0.00000   0.64989   0.75000   0.00000  Uiso   1.00
O90    O     0.00000   0.73357   0.75000   0.00000  Uiso   1.00
C91    C     0.00000   0.35011   0.25000   0.00000  Uiso   1.00
O92    O     0.00000   0.26643   0.25000   0.00000  Uiso   1.00
