data_job_03003
_audit_creation_date              2018-12-19
_audit_creation_method            'Materials Studio'
_symmetry_space_group_name_H-M    'P1'
_symmetry_Int_Tables_number       1
_symmetry_cell_setting            triclinic
loop_
_symmetry_equiv_pos_as_xyz
  x,y,z
_cell_length_a                    15.6579
_cell_length_b                    18.7284
_cell_length_c                    22.1587
_cell_angle_alpha                 90.0000
_cell_angle_beta                  65.0929
_cell_angle_gamma                 90.0000
loop_
_atom_site_label
_atom_site_type_symbol
_atom_site_fract_x
_atom_site_fract_y
_atom_site_fract_z
_atom_site_U_iso_or_equiv
_atom_site_adp_type
_atom_site_occupancy
C1     C     0.40849   0.79697   0.66832   0.00000  Uiso   1.00
C2     C     0.33362   0.80027   0.73985   0.00000  Uiso   1.00
C3     C     0.34497   0.77789   0.79573   0.00000  Uiso   1.00
C4     C     0.26803   0.78540   0.85676   0.00000  Uiso   1.00
C5     C     0.16475   0.78616   0.96709   0.00000  Uiso   1.00
C6     C     0.41907   0.87304   0.64158   0.00000  Uiso   1.00
C7     C     0.50227   0.91185   0.61483   0.00000  Uiso   1.00
C8     C     0.49725   0.98061   0.59312   0.00000  Uiso   1.00
C9     C     0.52665   0.09433   0.55084   0.00000  Uiso   1.00
C10    C     0.36529   0.75401   0.62969   0.00000  Uiso   1.00
C11    C     0.40328   0.69274   0.59292   0.00000  Uiso   1.00
C12    C     0.35299   0.66129   0.56118   0.00000  Uiso   1.00
C13    C     0.29889   0.59020   0.50044   0.00000  Uiso   1.00
C14    C     0.25165   0.85008   0.67732   0.00000  Uiso   1.00
C15    C     0.24844   0.82912   0.74474   0.00000  Uiso   1.00
C16    C     0.17145   0.83665   0.80569   0.00000  Uiso   1.00
C17    C     0.18268   0.81429   0.86166   0.00000  Uiso   1.00
C18    C     0.33389   0.90189   0.64647   0.00000  Uiso   1.00
C19    C     0.32874   0.97061   0.62479   0.00000  Uiso   1.00
C20    C     0.41191   0.00951   0.59802   0.00000  Uiso   1.00
C21    C     0.28010   0.78285   0.63458   0.00000  Uiso   1.00
C22    C     0.22975   0.75150   0.60288   0.00000  Uiso   1.00
C23    C     0.26765   0.69019   0.56608   0.00000  Uiso   1.00
H24    H     0.47482   0.77452   0.66451   0.00000  Uiso   1.00
H25    H     0.41092   0.75558   0.79193   0.00000  Uiso   1.00
H26    H     0.56819   0.88951   0.61104   0.00000  Uiso   1.00
H27    H     0.46921   0.67043   0.58915   0.00000  Uiso   1.00
H28    H     0.30252   0.74732   0.93536   0.00000  Uiso   1.00
H29    H     0.63413   0.02971   0.55393   0.00000  Uiso   1.00
H30    H     0.42542   0.56775   0.50776   0.00000  Uiso   1.00
H31    H     0.18532   0.87254   0.68112   0.00000  Uiso   1.00
H32    H     0.10553   0.85898   0.80946   0.00000  Uiso   1.00
H33    H     0.26280   0.99291   0.62858   0.00000  Uiso   1.00
H34    H     0.16382   0.77384   0.60668   0.00000  Uiso   1.00
H35    H     0.05465   0.83125   0.94959   0.00000  Uiso   1.00
H36    H     0.38627   0.11364   0.56816   0.00000  Uiso   1.00
H37    H     0.17756   0.65168   0.52199   0.00000  Uiso   1.00
O38    O     0.13133   0.77862   0.02660   0.00000  Uiso   1.00
O39    O     0.56640   0.14909   0.52617   0.00000  Uiso   1.00
O40    O     0.29257   0.54302   0.46559   0.00000  Uiso   1.00
N41    N     0.25512   0.76893   0.92109   0.00000  Uiso   1.00
N42    N     0.56517   0.03295   0.56449   0.00000  Uiso   1.00
N43    N     0.37005   0.60106   0.52131   0.00000  Uiso   1.00
N44    N     0.12175   0.81409   0.92875   0.00000  Uiso   1.00
N45    N     0.43179   0.07811   0.57215   0.00000  Uiso   1.00
N46    N     0.23667   0.64622   0.52896   0.00000  Uiso   1.00
C47    C     0.90849   0.29697   0.66832   0.00000  Uiso   1.00
C48    C     0.83362   0.30027   0.73985   0.00000  Uiso   1.00
C49    C     0.84497   0.27789   0.79573   0.00000  Uiso   1.00
C50    C     0.76803   0.28540   0.85676   0.00000  Uiso   1.00
C51    C     0.66475   0.28616   0.96709   0.00000  Uiso   1.00
C52    C     0.91907   0.37304   0.64158   0.00000  Uiso   1.00
C53    C     0.00227   0.41185   0.61483   0.00000  Uiso   1.00
C54    C     0.99725   0.48061   0.59312   0.00000  Uiso   1.00
C55    C     0.02665   0.59433   0.55084   0.00000  Uiso   1.00
C56    C     0.86529   0.25401   0.62969   0.00000  Uiso   1.00
C57    C     0.90328   0.19274   0.59292   0.00000  Uiso   1.00
C58    C     0.85299   0.16129   0.56118   0.00000  Uiso   1.00
C59    C     0.79889   0.09020   0.50044   0.00000  Uiso   1.00
C60    C     0.75165   0.35008   0.67732   0.00000  Uiso   1.00
C61    C     0.74844   0.32912   0.74474   0.00000  Uiso   1.00
C62    C     0.67145   0.33665   0.80569   0.00000  Uiso   1.00
C63    C     0.68268   0.31429   0.86166   0.00000  Uiso   1.00
C64    C     0.83389   0.40189   0.64647   0.00000  Uiso   1.00
C65    C     0.82874   0.47061   0.62479   0.00000  Uiso   1.00
C66    C     0.91191   0.50951   0.59802   0.00000  Uiso   1.00
C67    C     0.78010   0.28285   0.63458   0.00000  Uiso   1.00
C68    C     0.72975   0.25150   0.60288   0.00000  Uiso   1.00
C69    C     0.76765   0.19019   0.56608   0.00000  Uiso   1.00
H70    H     0.97482   0.27452   0.66451   0.00000  Uiso   1.00
H71    H     0.91092   0.25558   0.79193   0.00000  Uiso   1.00
H72    H     0.06819   0.38951   0.61104   0.00000  Uiso   1.00
H73    H     0.96921   0.17043   0.58915   0.00000  Uiso   1.00
H74    H     0.80252   0.24732   0.93536   0.00000  Uiso   1.00
H75    H     0.13413   0.52971   0.55393   0.00000  Uiso   1.00
H76    H     0.92542   0.06775   0.50776   0.00000  Uiso   1.00
H77    H     0.68532   0.37254   0.68112   0.00000  Uiso   1.00
H78    H     0.60553   0.35898   0.80946   0.00000  Uiso   1.00
H79    H     0.76280   0.49291   0.62858   0.00000  Uiso   1.00
H80    H     0.66382   0.27384   0.60668   0.00000  Uiso   1.00
H81    H     0.55465   0.33125   0.94959   0.00000  Uiso   1.00
H82    H     0.88627   0.61364   0.56816   0.00000  Uiso   1.00
H83    H     0.67756   0.15168   0.52199   0.00000  Uiso   1.00
O84    O     0.63133   0.27862   0.02660   0.00000  Uiso   1.00
O85    O     0.06640   0.64909   0.52617   0.00000  Uiso   1.00
O86    O     0.79257   0.04302   0.46559   0.00000  Uiso   1.00
N87    N     0.75512   0.26893   0.92109   0.00000  Uiso   1.00
N88    N     0.06517   0.53295   0.56449   0.00000  Uiso   1.00
N89    N     0.87005   0.10106   0.52131   0.00000  Uiso   1.00
N90    N     0.62175   0.31409   0.92875   0.00000  Uiso   1.00
N91    N     0.93179   0.57811   0.57215   0.00000  Uiso   1.00
N92    N     0.73667   0.14622   0.52896   0.00000  Uiso   1.00
C93    C     0.59151   0.79697   0.83168   0.00000  Uiso   1.00
C94    C     0.66638   0.80027   0.76015   0.00000  Uiso   1.00
C95    C     0.65503   0.77789   0.70427   0.00000  Uiso   1.00
C96    C     0.73197   0.78540   0.64324   0.00000  Uiso   1.00
C97    C     0.83525   0.78616   0.53291   0.00000  Uiso   1.00
C98    C     0.58093   0.87304   0.85842   0.00000  Uiso   1.00
C99    C     0.49773   0.91185   0.88517   0.00000  Uiso   1.00
C100   C     0.50275   0.98061   0.90688   0.00000  Uiso   1.00
C101   C     0.47335   0.09433   0.94916   0.00000  Uiso   1.00
C102   C     0.63471   0.75401   0.87031   0.00000  Uiso   1.00
C103   C     0.59672   0.69274   0.90708   0.00000  Uiso   1.00
C104   C     0.64701   0.66129   0.93882   0.00000  Uiso   1.00
C105   C     0.70111   0.59020   0.99956   0.00000  Uiso   1.00
C106   C     0.74835   0.85008   0.82268   0.00000  Uiso   1.00
C107   C     0.75156   0.82912   0.75526   0.00000  Uiso   1.00
C108   C     0.82855   0.83665   0.69431   0.00000  Uiso   1.00
C109   C     0.81732   0.81429   0.63834   0.00000  Uiso   1.00
C110   C     0.66611   0.90189   0.85353   0.00000  Uiso   1.00
C111   C     0.67126   0.97061   0.87521   0.00000  Uiso   1.00
C112   C     0.58809   0.00951   0.90198   0.00000  Uiso   1.00
C113   C     0.71990   0.78285   0.86542   0.00000  Uiso   1.00
C114   C     0.77025   0.75150   0.89712   0.00000  Uiso   1.00
C115   C     0.73235   0.69019   0.93392   0.00000  Uiso   1.00
H116   H     0.52518   0.77452   0.83549   0.00000  Uiso   1.00
H117   H     0.58908   0.75558   0.70807   0.00000  Uiso   1.00
H118   H     0.43181   0.88951   0.88896   0.00000  Uiso   1.00
H119   H     0.53079   0.67043   0.91085   0.00000  Uiso   1.00
H120   H     0.69748   0.74732   0.56464   0.00000  Uiso   1.00
H121   H     0.36587   0.02971   0.94607   0.00000  Uiso   1.00
H122   H     0.57458   0.56775   0.99224   0.00000  Uiso   1.00
H123   H     0.81468   0.87254   0.81888   0.00000  Uiso   1.00
H124   H     0.89447   0.85898   0.69054   0.00000  Uiso   1.00
H125   H     0.73720   0.99291   0.87142   0.00000  Uiso   1.00
H126   H     0.83618   0.77384   0.89332   0.00000  Uiso   1.00
H127   H     0.94535   0.83125   0.55041   0.00000  Uiso   1.00
H128   H     0.61373   0.11364   0.93184   0.00000  Uiso   1.00
H129   H     0.82244   0.65168   0.97801   0.00000  Uiso   1.00
O130   O     0.86867   0.77862   0.47340   0.00000  Uiso   1.00
O131   O     0.43360   0.14909   0.97383   0.00000  Uiso   1.00
O132   O     0.70743   0.54302   0.03441   0.00000  Uiso   1.00
N133   N     0.74488   0.76893   0.57891   0.00000  Uiso   1.00
N134   N     0.43483   0.03295   0.93551   0.00000  Uiso   1.00
N135   N     0.62995   0.60106   0.97869   0.00000  Uiso   1.00
N136   N     0.87825   0.81409   0.57125   0.00000  Uiso   1.00
N137   N     0.56821   0.07811   0.92785   0.00000  Uiso   1.00
N138   N     0.76333   0.64622   0.97104   0.00000  Uiso   1.00
C139   C     0.09151   0.29697   0.83168   0.00000  Uiso   1.00
C140   C     0.16638   0.30027   0.76015   0.00000  Uiso   1.00
C141   C     0.15503   0.27789   0.70427   0.00000  Uiso   1.00
C142   C     0.23197   0.28540   0.64324   0.00000  Uiso   1.00
C143   C     0.33525   0.28616   0.53291   0.00000  Uiso   1.00
C144   C     0.08093   0.37304   0.85842   0.00000  Uiso   1.00
C145   C     0.99773   0.41185   0.88517   0.00000  Uiso   1.00
C146   C     0.00275   0.48061   0.90688   0.00000  Uiso   1.00
C147   C     0.97335   0.59433   0.94916   0.00000  Uiso   1.00
C148   C     0.13471   0.25401   0.87031   0.00000  Uiso   1.00
C149   C     0.09672   0.19274   0.90708   0.00000  Uiso   1.00
C150   C     0.14701   0.16129   0.93882   0.00000  Uiso   1.00
C151   C     0.20111   0.09020   0.99956   0.00000  Uiso   1.00
C152   C     0.24835   0.35008   0.82268   0.00000  Uiso   1.00
C153   C     0.25156   0.32912   0.75526   0.00000  Uiso   1.00
C154   C     0.32855   0.33665   0.69431   0.00000  Uiso   1.00
C155   C     0.31732   0.31429   0.63834   0.00000  Uiso   1.00
C156   C     0.16611   0.40189   0.85353   0.00000  Uiso   1.00
C157   C     0.17126   0.47061   0.87521   0.00000  Uiso   1.00
C158   C     0.08809   0.50951   0.90198   0.00000  Uiso   1.00
C159   C     0.21990   0.28285   0.86542   0.00000  Uiso   1.00
C160   C     0.27025   0.25150   0.89712   0.00000  Uiso   1.00
C161   C     0.23235   0.19019   0.93392   0.00000  Uiso   1.00
H162   H     0.02518   0.27452   0.83549   0.00000  Uiso   1.00
H163   H     0.08908   0.25558   0.70807   0.00000  Uiso   1.00
H164   H     0.93181   0.38951   0.88896   0.00000  Uiso   1.00
H165   H     0.03079   0.17043   0.91085   0.00000  Uiso   1.00
H166   H     0.19748   0.24732   0.56464   0.00000  Uiso   1.00
H167   H     0.86587   0.52971   0.94607   0.00000  Uiso   1.00
H168   H     0.07458   0.06775   0.99224   0.00000  Uiso   1.00
H169   H     0.31468   0.37254   0.81888   0.00000  Uiso   1.00
H170   H     0.39447   0.35898   0.69054   0.00000  Uiso   1.00
H171   H     0.23720   0.49291   0.87142   0.00000  Uiso   1.00
H172   H     0.33618   0.27384   0.89332   0.00000  Uiso   1.00
H173   H     0.44535   0.33125   0.55041   0.00000  Uiso   1.00
H174   H     0.11373   0.61364   0.93184   0.00000  Uiso   1.00
H175   H     0.32244   0.15168   0.97801   0.00000  Uiso   1.00
O176   O     0.36867   0.27862   0.47340   0.00000  Uiso   1.00
O177   O     0.93360   0.64909   0.97383   0.00000  Uiso   1.00
O178   O     0.20743   0.04302   0.03441   0.00000  Uiso   1.00
N179   N     0.24488   0.26893   0.57891   0.00000  Uiso   1.00
N180   N     0.93483   0.53295   0.93551   0.00000  Uiso   1.00
N181   N     0.12995   0.10106   0.97869   0.00000  Uiso   1.00
N182   N     0.37825   0.31409   0.57125   0.00000  Uiso   1.00
N183   N     0.06821   0.57811   0.92785   0.00000  Uiso   1.00
N184   N     0.26333   0.14622   0.97104   0.00000  Uiso   1.00
C185   C     0.59151   0.20303   0.33168   0.00000  Uiso   1.00
C186   C     0.66638   0.19973   0.26015   0.00000  Uiso   1.00
C187   C     0.65503   0.22211   0.20427   0.00000  Uiso   1.00
C188   C     0.73197   0.21460   0.14324   0.00000  Uiso   1.00
C189   C     0.83525   0.21384   0.03291   0.00000  Uiso   1.00
C190   C     0.58093   0.12696   0.35842   0.00000  Uiso   1.00
C191   C     0.49773   0.08815   0.38517   0.00000  Uiso   1.00
C192   C     0.50275   0.01939   0.40688   0.00000  Uiso   1.00
C193   C     0.47335   0.90567   0.44916   0.00000  Uiso   1.00
C194   C     0.63471   0.24599   0.37031   0.00000  Uiso   1.00
C195   C     0.59672   0.30726   0.40708   0.00000  Uiso   1.00
C196   C     0.64701   0.33871   0.43882   0.00000  Uiso   1.00
C197   C     0.70111   0.40980   0.49956   0.00000  Uiso   1.00
C198   C     0.74835   0.14992   0.32268   0.00000  Uiso   1.00
C199   C     0.75156   0.17088   0.25526   0.00000  Uiso   1.00
C200   C     0.82855   0.16335   0.19431   0.00000  Uiso   1.00
C201   C     0.81732   0.18571   0.13834   0.00000  Uiso   1.00
C202   C     0.66611   0.09811   0.35353   0.00000  Uiso   1.00
C203   C     0.67126   0.02939   0.37521   0.00000  Uiso   1.00
C204   C     0.58809   0.99049   0.40198   0.00000  Uiso   1.00
C205   C     0.71990   0.21715   0.36542   0.00000  Uiso   1.00
C206   C     0.77025   0.24850   0.39712   0.00000  Uiso   1.00
C207   C     0.73235   0.30981   0.43392   0.00000  Uiso   1.00
H208   H     0.52518   0.22548   0.33549   0.00000  Uiso   1.00
H209   H     0.58908   0.24442   0.20807   0.00000  Uiso   1.00
H210   H     0.43181   0.11049   0.38896   0.00000  Uiso   1.00
H211   H     0.53079   0.32957   0.41085   0.00000  Uiso   1.00
H212   H     0.69748   0.25268   0.06464   0.00000  Uiso   1.00
H213   H     0.36587   0.97029   0.44607   0.00000  Uiso   1.00
H214   H     0.57458   0.43225   0.49224   0.00000  Uiso   1.00
H215   H     0.81468   0.12746   0.31888   0.00000  Uiso   1.00
H216   H     0.89447   0.14102   0.19054   0.00000  Uiso   1.00
H217   H     0.73720   0.00709   0.37142   0.00000  Uiso   1.00
H218   H     0.83618   0.22616   0.39332   0.00000  Uiso   1.00
H219   H     0.94535   0.16875   0.05041   0.00000  Uiso   1.00
H220   H     0.61373   0.88636   0.43184   0.00000  Uiso   1.00
H221   H     0.82244   0.34832   0.47801   0.00000  Uiso   1.00
O222   O     0.86867   0.22138   0.97340   0.00000  Uiso   1.00
O223   O     0.43360   0.85091   0.47383   0.00000  Uiso   1.00
O224   O     0.70743   0.45698   0.53441   0.00000  Uiso   1.00
N225   N     0.74488   0.23107   0.07891   0.00000  Uiso   1.00
N226   N     0.43483   0.96705   0.43551   0.00000  Uiso   1.00
N227   N     0.62995   0.39894   0.47869   0.00000  Uiso   1.00
N228   N     0.87825   0.18591   0.07125   0.00000  Uiso   1.00
N229   N     0.56821   0.92189   0.42785   0.00000  Uiso   1.00
N230   N     0.76333   0.35378   0.47104   0.00000  Uiso   1.00
C231   C     0.09151   0.70303   0.33168   0.00000  Uiso   1.00
C232   C     0.16638   0.69973   0.26015   0.00000  Uiso   1.00
C233   C     0.15503   0.72211   0.20427   0.00000  Uiso   1.00
C234   C     0.23197   0.71460   0.14324   0.00000  Uiso   1.00
C235   C     0.33525   0.71384   0.03291   0.00000  Uiso   1.00
C236   C     0.08093   0.62696   0.35842   0.00000  Uiso   1.00
C237   C     0.99773   0.58815   0.38517   0.00000  Uiso   1.00
C238   C     0.00275   0.51939   0.40688   0.00000  Uiso   1.00
C239   C     0.97335   0.40567   0.44916   0.00000  Uiso   1.00
C240   C     0.13471   0.74599   0.37031   0.00000  Uiso   1.00
C241   C     0.09672   0.80726   0.40708   0.00000  Uiso   1.00
C242   C     0.14701   0.83871   0.43882   0.00000  Uiso   1.00
C243   C     0.20111   0.90980   0.49956   0.00000  Uiso   1.00
C244   C     0.24835   0.64992   0.32268   0.00000  Uiso   1.00
C245   C     0.25156   0.67088   0.25526   0.00000  Uiso   1.00
C246   C     0.32855   0.66335   0.19431   0.00000  Uiso   1.00
C247   C     0.31732   0.68571   0.13834   0.00000  Uiso   1.00
C248   C     0.16611   0.59811   0.35353   0.00000  Uiso   1.00
C249   C     0.17126   0.52939   0.37521   0.00000  Uiso   1.00
C250   C     0.08809   0.49049   0.40198   0.00000  Uiso   1.00
C251   C     0.21990   0.71715   0.36542   0.00000  Uiso   1.00
C252   C     0.27025   0.74850   0.39712   0.00000  Uiso   1.00
C253   C     0.23235   0.80981   0.43392   0.00000  Uiso   1.00
H254   H     0.02518   0.72548   0.33549   0.00000  Uiso   1.00
H255   H     0.08908   0.74442   0.20807   0.00000  Uiso   1.00
H256   H     0.93181   0.61049   0.38896   0.00000  Uiso   1.00
H257   H     0.03079   0.82957   0.41085   0.00000  Uiso   1.00
H258   H     0.19748   0.75268   0.06464   0.00000  Uiso   1.00
H259   H     0.86587   0.47029   0.44607   0.00000  Uiso   1.00
H260   H     0.07458   0.93225   0.49224   0.00000  Uiso   1.00
H261   H     0.31468   0.62746   0.31888   0.00000  Uiso   1.00
H262   H     0.39447   0.64102   0.19054   0.00000  Uiso   1.00
H263   H     0.23720   0.50709   0.37142   0.00000  Uiso   1.00
H264   H     0.33618   0.72616   0.39332   0.00000  Uiso   1.00
H265   H     0.44535   0.66875   0.05041   0.00000  Uiso   1.00
H266   H     0.11373   0.38636   0.43184   0.00000  Uiso   1.00
H267   H     0.32244   0.84832   0.47801   0.00000  Uiso   1.00
O268   O     0.36867   0.72138   0.97340   0.00000  Uiso   1.00
O269   O     0.93360   0.35091   0.47383   0.00000  Uiso   1.00
O270   O     0.20743   0.95698   0.53441   0.00000  Uiso   1.00
N271   N     0.24488   0.73107   0.07891   0.00000  Uiso   1.00
N272   N     0.93483   0.46705   0.43551   0.00000  Uiso   1.00
N273   N     0.12995   0.89894   0.47869   0.00000  Uiso   1.00
N274   N     0.37825   0.68591   0.07125   0.00000  Uiso   1.00
N275   N     0.06821   0.42189   0.42785   0.00000  Uiso   1.00
N276   N     0.26333   0.85378   0.47104   0.00000  Uiso   1.00
C277   C     0.40849   0.20303   0.16832   0.00000  Uiso   1.00
C278   C     0.33362   0.19973   0.23985   0.00000  Uiso   1.00
C279   C     0.34497   0.22211   0.29573   0.00000  Uiso   1.00
C280   C     0.26803   0.21460   0.35676   0.00000  Uiso   1.00
C281   C     0.16475   0.21384   0.46709   0.00000  Uiso   1.00
C282   C     0.41907   0.12696   0.14158   0.00000  Uiso   1.00
C283   C     0.50227   0.08815   0.11483   0.00000  Uiso   1.00
C284   C     0.49725   0.01939   0.09312   0.00000  Uiso   1.00
C285   C     0.52665   0.90567   0.05084   0.00000  Uiso   1.00
C286   C     0.36529   0.24599   0.12969   0.00000  Uiso   1.00
C287   C     0.40328   0.30726   0.09292   0.00000  Uiso   1.00
C288   C     0.35299   0.33871   0.06118   0.00000  Uiso   1.00
C289   C     0.29889   0.40980   0.00044   0.00000  Uiso   1.00
C290   C     0.25165   0.14992   0.17732   0.00000  Uiso   1.00
C291   C     0.24844   0.17088   0.24474   0.00000  Uiso   1.00
C292   C     0.17145   0.16335   0.30569   0.00000  Uiso   1.00
C293   C     0.18268   0.18571   0.36166   0.00000  Uiso   1.00
C294   C     0.33389   0.09811   0.14647   0.00000  Uiso   1.00
C295   C     0.32874   0.02939   0.12479   0.00000  Uiso   1.00
C296   C     0.41191   0.99049   0.09802   0.00000  Uiso   1.00
C297   C     0.28010   0.21715   0.13458   0.00000  Uiso   1.00
C298   C     0.22975   0.24850   0.10288   0.00000  Uiso   1.00
C299   C     0.26765   0.30981   0.06608   0.00000  Uiso   1.00
H300   H     0.47482   0.22548   0.16451   0.00000  Uiso   1.00
H301   H     0.41092   0.24442   0.29193   0.00000  Uiso   1.00
H302   H     0.56819   0.11049   0.11104   0.00000  Uiso   1.00
H303   H     0.46921   0.32957   0.08915   0.00000  Uiso   1.00
H304   H     0.30252   0.25268   0.43536   0.00000  Uiso   1.00
H305   H     0.63413   0.97029   0.05393   0.00000  Uiso   1.00
H306   H     0.42542   0.43225   0.00776   0.00000  Uiso   1.00
H307   H     0.18532   0.12746   0.18112   0.00000  Uiso   1.00
H308   H     0.10553   0.14102   0.30946   0.00000  Uiso   1.00
H309   H     0.26280   0.00709   0.12858   0.00000  Uiso   1.00
H310   H     0.16382   0.22616   0.10668   0.00000  Uiso   1.00
H311   H     0.05465   0.16875   0.44959   0.00000  Uiso   1.00
H312   H     0.38627   0.88636   0.06816   0.00000  Uiso   1.00
H313   H     0.17756   0.34832   0.02199   0.00000  Uiso   1.00
O314   O     0.13133   0.22138   0.52660   0.00000  Uiso   1.00
O315   O     0.56640   0.85091   0.02617   0.00000  Uiso   1.00
O316   O     0.29257   0.45698   0.96559   0.00000  Uiso   1.00
N317   N     0.25512   0.23107   0.42109   0.00000  Uiso   1.00
N318   N     0.56517   0.96705   0.06449   0.00000  Uiso   1.00
N319   N     0.37005   0.39894   0.02131   0.00000  Uiso   1.00
N320   N     0.12175   0.18591   0.42875   0.00000  Uiso   1.00
N321   N     0.43179   0.92189   0.07215   0.00000  Uiso   1.00
N322   N     0.23667   0.35378   0.02896   0.00000  Uiso   1.00
C323   C     0.90849   0.70303   0.16832   0.00000  Uiso   1.00
C324   C     0.83362   0.69973   0.23985   0.00000  Uiso   1.00
C325   C     0.84497   0.72211   0.29573   0.00000  Uiso   1.00
C326   C     0.76803   0.71460   0.35676   0.00000  Uiso   1.00
C327   C     0.66475   0.71384   0.46709   0.00000  Uiso   1.00
C328   C     0.91907   0.62696   0.14158   0.00000  Uiso   1.00
C329   C     0.00227   0.58815   0.11483   0.00000  Uiso   1.00
C330   C     0.99725   0.51939   0.09312   0.00000  Uiso   1.00
C331   C     0.02665   0.40567   0.05084   0.00000  Uiso   1.00
C332   C     0.86529   0.74599   0.12969   0.00000  Uiso   1.00
C333   C     0.90328   0.80726   0.09292   0.00000  Uiso   1.00
C334   C     0.85299   0.83871   0.06118   0.00000  Uiso   1.00
C335   C     0.79889   0.90980   0.00044   0.00000  Uiso   1.00
C336   C     0.75165   0.64992   0.17732   0.00000  Uiso   1.00
C337   C     0.74844   0.67088   0.24474   0.00000  Uiso   1.00
C338   C     0.67145   0.66335   0.30569   0.00000  Uiso   1.00
C339   C     0.68268   0.68571   0.36166   0.00000  Uiso   1.00
C340   C     0.83389   0.59811   0.14647   0.00000  Uiso   1.00
C341   C     0.82874   0.52939   0.12479   0.00000  Uiso   1.00
C342   C     0.91191   0.49049   0.09802   0.00000  Uiso   1.00
C343   C     0.78010   0.71715   0.13458   0.00000  Uiso   1.00
C344   C     0.72975   0.74850   0.10288   0.00000  Uiso   1.00
C345   C     0.76765   0.80981   0.06608   0.00000  Uiso   1.00
H346   H     0.97482   0.72548   0.16451   0.00000  Uiso   1.00
H347   H     0.91092   0.74442   0.29193   0.00000  Uiso   1.00
H348   H     0.06819   0.61049   0.11104   0.00000  Uiso   1.00
H349   H     0.96921   0.82957   0.08915   0.00000  Uiso   1.00
H350   H     0.80252   0.75268   0.43536   0.00000  Uiso   1.00
H351   H     0.13413   0.47029   0.05393   0.00000  Uiso   1.00
H352   H     0.92542   0.93225   0.00776   0.00000  Uiso   1.00
H353   H     0.68532   0.62746   0.18112   0.00000  Uiso   1.00
H354   H     0.60553   0.64102   0.30946   0.00000  Uiso   1.00
H355   H     0.76280   0.50709   0.12858   0.00000  Uiso   1.00
H356   H     0.66382   0.72616   0.10668   0.00000  Uiso   1.00
H357   H     0.55465   0.66875   0.44959   0.00000  Uiso   1.00
H358   H     0.88627   0.38636   0.06816   0.00000  Uiso   1.00
H359   H     0.67756   0.84832   0.02199   0.00000  Uiso   1.00
O360   O     0.63133   0.72138   0.52660   0.00000  Uiso   1.00
O361   O     0.06640   0.35091   0.02617   0.00000  Uiso   1.00
O362   O     0.79257   0.95698   0.96559   0.00000  Uiso   1.00
N363   N     0.75512   0.73107   0.42109   0.00000  Uiso   1.00
N364   N     0.06517   0.46705   0.06449   0.00000  Uiso   1.00
N365   N     0.87005   0.89894   0.02131   0.00000  Uiso   1.00
N366   N     0.62175   0.68591   0.42875   0.00000  Uiso   1.00
N367   N     0.93179   0.42189   0.07215   0.00000  Uiso   1.00
N368   N     0.73667   0.85378   0.02896   0.00000  Uiso   1.00
