data_job_06570
_audit_creation_date              2018-12-19
_audit_creation_method            'Materials Studio'
_symmetry_space_group_name_H-M    'P1'
_symmetry_Int_Tables_number       1
_symmetry_cell_setting            triclinic
loop_
_symmetry_equiv_pos_as_xyz
  x,y,z
_cell_length_a                    19.3783
_cell_length_b                    20.4790
_cell_length_c                    24.7502
_cell_angle_alpha                 100.6247
_cell_angle_beta                  111.0422
_cell_angle_gamma                 71.9330
loop_
_atom_site_label
_atom_site_type_symbol
_atom_site_fract_x
_atom_site_fract_y
_atom_site_fract_z
_atom_site_U_iso_or_equiv
_atom_site_adp_type
_atom_site_occupancy
C1     C     0.68083   0.40753   0.34204   0.00000  Uiso   1.00
C2     C     0.69489   0.44898   0.40099   0.00000  Uiso   1.00
C3     C     0.73120   0.50164   0.41813   0.00000  Uiso   1.00
C4     C     0.73846   0.53320   0.47385   0.00000  Uiso   1.00
C5     C     0.76459   0.60065   0.55975   0.00000  Uiso   1.00
C6     C     0.71760   0.33211   0.35463   0.00000  Uiso   1.00
C7     C     0.77300   0.28651   0.33277   0.00000  Uiso   1.00
C8     C     0.79937   0.21968   0.34946   0.00000  Uiso   1.00
C9     C     0.86073   0.10568   0.36333   0.00000  Uiso   1.00
C10    C     0.59459   0.41571   0.31742   0.00000  Uiso   1.00
C11    C     0.54655   0.44037   0.26427   0.00000  Uiso   1.00
C12    C     0.46935   0.44391   0.24961   0.00000  Uiso   1.00
C13    C     0.33971   0.45970   0.20571   0.00000  Uiso   1.00
C14    C     0.62914   0.36992   0.41051   0.00000  Uiso   1.00
C15    C     0.66681   0.42855   0.43819   0.00000  Uiso   1.00
C16    C     0.67401   0.46004   0.49389   0.00000  Uiso   1.00
C17    C     0.71033   0.51274   0.51111   0.00000  Uiso   1.00
C18    C     0.68953   0.31169   0.39182   0.00000  Uiso   1.00
C19    C     0.71581   0.24491   0.40853   0.00000  Uiso   1.00
C20    C     0.77124   0.19922   0.38671   0.00000  Uiso   1.00
C21    C     0.56650   0.39528   0.35461   0.00000  Uiso   1.00
C22    C     0.48936   0.39877   0.34003   0.00000  Uiso   1.00
C23    C     0.44122   0.42345   0.28687   0.00000  Uiso   1.00
H24    H     0.70269   0.42342   0.31308   0.00000  Uiso   1.00
H25    H     0.75293   0.51743   0.38934   0.00000  Uiso   1.00
H26    H     0.79472   0.30233   0.30399   0.00000  Uiso   1.00
H27    H     0.56830   0.45618   0.23550   0.00000  Uiso   1.00
H28    H     0.79627   0.61263   0.49030   0.00000  Uiso   1.00
H29    H     0.88436   0.15908   0.31031   0.00000  Uiso   1.00
H30    H     0.40692   0.48348   0.16588   0.00000  Uiso   1.00
H31    H     0.60728   0.35401   0.43947   0.00000  Uiso   1.00
H32    H     0.65228   0.44422   0.52266   0.00000  Uiso   1.00
H33    H     0.69407   0.22912   0.43731   0.00000  Uiso   1.00
H34    H     0.46765   0.38296   0.36882   0.00000  Uiso   1.00
H35    H     0.71458   0.55321   0.59851   0.00000  Uiso   1.00
H36    H     0.80267   0.09965   0.41852   0.00000  Uiso   1.00
H37    H     0.32523   0.42406   0.27409   0.00000  Uiso   1.00
O38    O     0.78677   0.64350   0.59686   0.00000  Uiso   1.00
O39    O     0.90233   0.04845   0.36072   0.00000  Uiso   1.00
O40    O     0.27595   0.47406   0.17123   0.00000  Uiso   1.00
N41    N     0.77085   0.58628   0.50434   0.00000  Uiso   1.00
N42    N     0.85323   0.16223   0.33608   0.00000  Uiso   1.00
N43    N     0.40686   0.46551   0.20104   0.00000  Uiso   1.00
N44    N     0.72689   0.55430   0.56257   0.00000  Uiso   1.00
N45    N     0.80927   0.13026   0.39430   0.00000  Uiso   1.00
N46    N     0.36291   0.43353   0.25927   0.00000  Uiso   1.00
C47    C     0.30506   0.27565   0.64250   0.00000  Uiso   1.00
C48    C     0.23242   0.33403   0.63906   0.00000  Uiso   1.00
C49    C     0.15895   0.33290   0.60291   0.00000  Uiso   1.00
C50    C     0.10012   0.39145   0.60624   0.00000  Uiso   1.00
C51    C     0.98517   0.47334   0.59507   0.00000  Uiso   1.00
C52    C     0.36001   0.30642   0.63065   0.00000  Uiso   1.00
C53    C     0.39383   0.28207   0.58744   0.00000  Uiso   1.00
C54    C     0.44242   0.31739   0.58370   0.00000  Uiso   1.00
C55    C     0.52560   0.35639   0.55951   0.00000  Uiso   1.00
C56    C     0.34067   0.25917   0.70589   0.00000  Uiso   1.00
C57    C     0.35826   0.19508   0.72594   0.00000  Uiso   1.00
C58    C     0.39059   0.19061   0.78555   0.00000  Uiso   1.00
C59    C     0.44375   0.15624   0.87818   0.00000  Uiso   1.00
C60    C     0.33122   0.38166   0.71270   0.00000  Uiso   1.00
C61    C     0.24663   0.39160   0.67719   0.00000  Uiso   1.00
C62    C     0.18789   0.45018   0.68058   0.00000  Uiso   1.00
C63    C     0.11435   0.44913   0.64444   0.00000  Uiso   1.00
C64    C     0.37422   0.36400   0.66878   0.00000  Uiso   1.00
C65    C     0.42277   0.39935   0.66511   0.00000  Uiso   1.00
C66    C     0.45665   0.37507   0.62190   0.00000  Uiso   1.00
C67    C     0.35488   0.31674   0.74402   0.00000  Uiso   1.00
C68    C     0.38720   0.31237   0.80361   0.00000  Uiso   1.00
C69    C     0.40482   0.24829   0.82375   0.00000  Uiso   1.00
H70    H     0.29400   0.23083   0.61281   0.00000  Uiso   1.00
H71    H     0.14798   0.28833   0.57340   0.00000  Uiso   1.00
H72    H     0.38283   0.23751   0.55794   0.00000  Uiso   1.00
H73    H     0.34726   0.15054   0.69642   0.00000  Uiso   1.00
H74    H     0.99236   0.37748   0.54651   0.00000  Uiso   1.00
H75    H     0.48757   0.27031   0.51392   0.00000  Uiso   1.00
H76    H     0.41257   0.08691   0.80594   0.00000  Uiso   1.00
H77    H     0.34228   0.42649   0.74239   0.00000  Uiso   1.00
H78    H     0.19890   0.49473   0.71009   0.00000  Uiso   1.00
H79    H     0.43376   0.44391   0.69462   0.00000  Uiso   1.00
H80    H     0.39818   0.35693   0.83311   0.00000  Uiso   1.00
H81    H     0.03369   0.54500   0.65744   0.00000  Uiso   1.00
H82    H     0.52891   0.43783   0.62486   0.00000  Uiso   1.00
H83    H     0.45390   0.25443   0.91687   0.00000  Uiso   1.00
O84    O     0.91784   0.50261   0.57837   0.00000  Uiso   1.00
O85    O     0.56755   0.36200   0.53563   0.00000  Uiso   1.00
O86    O     0.46914   0.12138   0.91874   0.00000  Uiso   1.00
N87    N     0.02176   0.40754   0.57706   0.00000  Uiso   1.00
N88    N     0.48475   0.30735   0.54658   0.00000  Uiso   1.00
N89    N     0.41464   0.13587   0.81959   0.00000  Uiso   1.00
N90    N     0.04400   0.49768   0.63675   0.00000  Uiso   1.00
N91    N     0.50699   0.39749   0.60628   0.00000  Uiso   1.00
N92    N     0.43688   0.22602   0.87929   0.00000  Uiso   1.00
C93    C     0.07454   0.73564   0.42454   0.00000  Uiso   1.00
C94    C     0.05473   0.72739   0.47679   0.00000  Uiso   1.00
C95    C     0.09616   0.67767   0.51611   0.00000  Uiso   1.00
C96    C     0.06858   0.67873   0.56095   0.00000  Uiso   1.00
C97    C     0.04793   0.65844   0.64126   0.00000  Uiso   1.00
C98    C     0.00403   0.73205   0.37172   0.00000  Uiso   1.00
C99    C     0.00285   0.68625   0.32270   0.00000  Uiso   1.00
C100   C     0.93260   0.69125   0.27909   0.00000  Uiso   1.00
C101   C     0.83326   0.67822   0.19626   0.00000  Uiso   1.00
C102   C     0.08080   0.80938   0.43177   0.00000  Uiso   1.00
C103   C     0.14415   0.82859   0.43323   0.00000  Uiso   1.00
C104   C     0.13853   0.89870   0.44017   0.00000  Uiso   1.00
C105   C     0.15838   0.00573   0.45057   0.00000  Uiso   1.00
C106   C     0.95189   0.82597   0.43426   0.00000  Uiso   1.00
C107   C     0.98811   0.77645   0.48207   0.00000  Uiso   1.00
C108   C     0.96046   0.77760   0.52686   0.00000  Uiso   1.00
C109   C     0.00185   0.72788   0.56624   0.00000  Uiso   1.00
C110   C     0.93742   0.78111   0.37700   0.00000  Uiso   1.00
C111   C     0.86715   0.78618   0.33345   0.00000  Uiso   1.00
C112   C     0.86586   0.74040   0.28438   0.00000  Uiso   1.00
C113   C     0.01419   0.85844   0.43705   0.00000  Uiso   1.00
C114   C     0.00846   0.92852   0.44398   0.00000  Uiso   1.00
C115   C     0.07179   0.94784   0.44545   0.00000  Uiso   1.00
H116   H     0.12640   0.69745   0.42043   0.00000  Uiso   1.00
H117   H     0.14771   0.63971   0.51200   0.00000  Uiso   1.00
H118   H     0.05441   0.64830   0.31862   0.00000  Uiso   1.00
H119   H     0.19570   0.79062   0.42914   0.00000  Uiso   1.00
H120   H     0.14193   0.59731   0.61585   0.00000  Uiso   1.00
H121   H     0.94522   0.61543   0.20809   0.00000  Uiso   1.00
H122   H     0.24315   0.91554   0.44113   0.00000  Uiso   1.00
H123   H     0.90003   0.86416   0.43837   0.00000  Uiso   1.00
H124   H     0.90891   0.81557   0.53094   0.00000  Uiso   1.00
H125   H     0.81561   0.82415   0.33755   0.00000  Uiso   1.00
H126   H     0.95690   0.96647   0.44807   0.00000  Uiso   1.00
H127   H     0.94812   0.74004   0.63122   0.00000  Uiso   1.00
H128   H     0.75140   0.75817   0.22345   0.00000  Uiso   1.00
H129   H     0.04933   0.05828   0.45649   0.00000  Uiso   1.00
O130   O     0.05494   0.63369   0.68409   0.00000  Uiso   1.00
O131   O     0.79687   0.65747   0.14911   0.00000  Uiso   1.00
O132   O     0.18774   0.05121   0.45486   0.00000  Uiso   1.00
N133   N     0.09511   0.63758   0.60677   0.00000  Uiso   1.00
N134   N     0.91119   0.65452   0.22554   0.00000  Uiso   1.00
N135   N     0.18972   0.93509   0.44340   0.00000  Uiso   1.00
N136   N     0.99082   0.71438   0.61504   0.00000  Uiso   1.00
N137   N     0.80690   0.73132   0.23380   0.00000  Uiso   1.00
N138   N     0.08543   0.01190   0.45166   0.00000  Uiso   1.00
C139   C     0.41805   0.95233   0.25184   0.00000  Uiso   1.00
C140   C     0.35545   0.99201   0.27834   0.00000  Uiso   1.00
C141   C     0.29378   0.04655   0.25488   0.00000  Uiso   1.00
C142   C     0.24276   0.07598   0.28576   0.00000  Uiso   1.00
C143   C     0.14396   0.14127   0.31891   0.00000  Uiso   1.00
C144   C     0.41797   0.87682   0.24513   0.00000  Uiso   1.00
C145   C     0.40886   0.83451   0.19375   0.00000  Uiso   1.00
C146   C     0.41048   0.76697   0.19668   0.00000  Uiso   1.00
C147   C     0.40879   0.65341   0.17828   0.00000  Uiso   1.00
C148   C     0.49381   0.95750   0.29821   0.00000  Uiso   1.00
C149   C     0.54849   0.98301   0.29146   0.00000  Uiso   1.00
C150   C     0.61397   0.98338   0.33907   0.00000  Uiso   1.00
C151   C     0.73004   0.99509   0.40309   0.00000  Uiso   1.00
C152   C     0.43713   0.90761   0.34838   0.00000  Uiso   1.00
C153   C     0.36582   0.96772   0.33077   0.00000  Uiso   1.00
C154   C     0.31489   0.99707   0.36170   0.00000  Uiso   1.00
C155   C     0.25314   0.05165   0.33829   0.00000  Uiso   1.00
C156   C     0.42833   0.85253   0.29756   0.00000  Uiso   1.00
C157   C     0.42997   0.78503   0.30057   0.00000  Uiso   1.00
C158   C     0.42087   0.74263   0.24921   0.00000  Uiso   1.00
C159   C     0.50418   0.93321   0.35065   0.00000  Uiso   1.00
C160   C     0.56959   0.93353   0.39827   0.00000  Uiso   1.00
C161   C     0.62436   0.95904   0.39160   0.00000  Uiso   1.00
H162   H     0.40999   0.97124   0.21101   0.00000  Uiso   1.00
H163   H     0.28577   0.06533   0.21429   0.00000  Uiso   1.00
H164   H     0.40085   0.85332   0.15318   0.00000  Uiso   1.00
H165   H     0.54045   0.00180   0.25087   0.00000  Uiso   1.00
H166   H     0.15261   0.15893   0.24105   0.00000  Uiso   1.00
H167   H     0.39529   0.71189   0.11219   0.00000  Uiso   1.00
H168   H     0.68966   0.02498   0.31819   0.00000  Uiso   1.00
H169   H     0.44520   0.88869   0.38921   0.00000  Uiso   1.00
H170   H     0.32292   0.97827   0.40227   0.00000  Uiso   1.00
H171   H     0.43800   0.76625   0.34115   0.00000  Uiso   1.00
H172   H     0.57760   0.91473   0.43885   0.00000  Uiso   1.00
H173   H     0.18276   0.08826   0.39362   0.00000  Uiso   1.00
H174   H     0.42544   0.64121   0.26476   0.00000  Uiso   1.00
H175   H     0.71981   0.95431   0.47076   0.00000  Uiso   1.00
O176   O     0.08660   0.18399   0.32271   0.00000  Uiso   1.00
O177   O     0.40499   0.59749   0.15364   0.00000  Uiso   1.00
O178   O     0.79120   0.00827   0.42392   0.00000  Uiso   1.00
N179   N     0.17650   0.13001   0.27517   0.00000  Uiso   1.00
N180   N     0.40337   0.71206   0.15469   0.00000  Uiso   1.00
N181   N     0.67860   0.00476   0.34728   0.00000  Uiso   1.00
N182   N     0.19272   0.09199   0.35727   0.00000  Uiso   1.00
N183   N     0.41959   0.67403   0.23679   0.00000  Uiso   1.00
N184   N     0.69482   0.96673   0.42938   0.00000  Uiso   1.00
C185   C     0.74811   0.71685   0.83474   0.00000  Uiso   1.00
C186   C     0.80372   0.76167   0.86259   0.00000  Uiso   1.00
C187   C     0.88302   0.73878   0.87784   0.00000  Uiso   1.00
C188   C     0.92373   0.78787   0.90280   0.00000  Uiso   1.00
C189   C     0.01575   0.84690   0.94459   0.00000  Uiso   1.00
C190   C     0.69302   0.74864   0.77871   0.00000  Uiso   1.00
C191   C     0.67925   0.71477   0.72344   0.00000  Uiso   1.00
C192   C     0.62677   0.75289   0.67779   0.00000  Uiso   1.00
C193   C     0.54689   0.79167   0.58936   0.00000  Uiso   1.00
C194   C     0.70049   0.72790   0.87472   0.00000  Uiso   1.00
C195   C     0.69299   0.67660   0.90017   0.00000  Uiso   1.00
C196   C     0.64678   0.69726   0.93535   0.00000  Uiso   1.00
C197   C     0.57850   0.70384   0.99599   0.00000  Uiso   1.00
C198   C     0.67938   0.84475   0.85195   0.00000  Uiso   1.00
C199   C     0.76638   0.83114   0.87193   0.00000  Uiso   1.00
C200   C     0.80698   0.88028   0.89688   0.00000  Uiso   1.00
C201   C     0.88633   0.85746   0.91217   0.00000  Uiso   1.00
C202   C     0.65569   0.81810   0.78805   0.00000  Uiso   1.00
C203   C     0.60321   0.85628   0.74248   0.00000  Uiso   1.00
C204   C     0.58937   0.82248   0.68715   0.00000  Uiso   1.00
C205   C     0.66316   0.79737   0.88407   0.00000  Uiso   1.00
C206   C     0.61695   0.81811   0.91921   0.00000  Uiso   1.00
C207   C     0.60938   0.76685   0.94471   0.00000  Uiso   1.00
H208   H     0.77717   0.66277   0.82747   0.00000  Uiso   1.00
H209   H     0.91189   0.68502   0.87060   0.00000  Uiso   1.00
H210   H     0.70814   0.66101   0.71622   0.00000  Uiso   1.00
H211   H     0.72189   0.62285   0.89293   0.00000  Uiso   1.00
H212   H     0.04479   0.74032   0.92252   0.00000  Uiso   1.00
H213   H     0.61516   0.68970   0.59701   0.00000  Uiso   1.00
H214   H     0.64413   0.60922   0.96963   0.00000  Uiso   1.00
H215   H     0.65031   0.89884   0.85922   0.00000  Uiso   1.00
H216   H     0.77807   0.93404   0.90410   0.00000  Uiso   1.00
H217   H     0.57433   0.91003   0.74972   0.00000  Uiso   1.00
H218   H     0.58807   0.87187   0.92643   0.00000  Uiso   1.00
H219   H     0.93618   0.94243   0.94971   0.00000  Uiso   1.00
H220   H     0.50654   0.89181   0.62420   0.00000  Uiso   1.00
H221   H     0.53552   0.81134   0.99682   0.00000  Uiso   1.00
O222   O     0.07682   0.86028   0.96504   0.00000  Uiso   1.00
O223   O     0.51315   0.79386   0.53800   0.00000  Uiso   1.00
O224   O     0.55116   0.68828   0.02686   0.00000  Uiso   1.00
N225   N     0.00169   0.78305   0.92277   0.00000  Uiso   1.00
N226   N     0.60003   0.73573   0.61844   0.00000  Uiso   1.00
N227   N     0.62709   0.66049   0.96679   0.00000  Uiso   1.00
N228   N     0.94325   0.89181   0.93740   0.00000  Uiso   1.00
N229   N     0.54158   0.84449   0.63307   0.00000  Uiso   1.00
N230   N     0.56865   0.76925   0.98143   0.00000  Uiso   1.00
C231   C     0.89527   0.17627   0.73350   0.00000  Uiso   1.00
C232   C     0.87609   0.16004   0.78331   0.00000  Uiso   1.00
C233   C     0.83004   0.11777   0.77858   0.00000  Uiso   1.00
C234   C     0.81951   0.10946   0.82926   0.00000  Uiso   1.00
C235   C     0.78454   0.07923   0.89848   0.00000  Uiso   1.00
C236   C     0.98258   0.15558   0.75116   0.00000  Uiso   1.00
C237   C     0.02606   0.10957   0.71939   0.00000  Uiso   1.00
C238   C     0.10517   0.09751   0.74299   0.00000  Uiso   1.00
C239   C     0.23551   0.06040   0.76227   0.00000  Uiso   1.00
C240   C     0.87046   0.25458   0.73347   0.00000  Uiso   1.00
C241   C     0.81968   0.29183   0.68682   0.00000  Uiso   1.00
C242   C     0.80441   0.36313   0.69553   0.00000  Uiso   1.00
C243   C     0.76067   0.47974   0.68735   0.00000  Uiso   1.00
C244   C     0.95845   0.23667   0.83190   0.00000  Uiso   1.00
C245   C     0.91041   0.19284   0.83676   0.00000  Uiso   1.00
C246   C     0.89994   0.18460   0.88745   0.00000  Uiso   1.00
C247   C     0.85389   0.14232   0.88280   0.00000  Uiso   1.00
C248   C     0.01689   0.18838   0.80460   0.00000  Uiso   1.00
C249   C     0.09596   0.17640   0.82826   0.00000  Uiso   1.00
C250   C     0.13955   0.13038   0.79654   0.00000  Uiso   1.00
C251   C     0.90477   0.28739   0.78692   0.00000  Uiso   1.00
C252   C     0.88958   0.35865   0.79570   0.00000  Uiso   1.00
C253   C     0.83879   0.39599   0.74908   0.00000  Uiso   1.00
H254   H     0.86856   0.15073   0.69189   0.00000  Uiso   1.00
H255   H     0.80350   0.09238   0.73721   0.00000  Uiso   1.00
H256   H     0.99948   0.08419   0.67803   0.00000  Uiso   1.00
H257   H     0.79314   0.26642   0.64547   0.00000  Uiso   1.00
H258   H     0.74653   0.04215   0.81104   0.00000  Uiso   1.00
H259   H     0.15977   0.02489   0.68623   0.00000  Uiso   1.00
H260   H     0.72465   0.40915   0.61758   0.00000  Uiso   1.00
H261   H     0.98517   0.26222   0.87352   0.00000  Uiso   1.00
H262   H     0.92651   0.20999   0.92881   0.00000  Uiso   1.00
H263   H     0.12249   0.20180   0.86962   0.00000  Uiso   1.00
H264   H     0.91615   0.38402   0.83706   0.00000  Uiso   1.00
H265   H     0.84637   0.13760   0.96654   0.00000  Uiso   1.00
H266   H     0.25961   0.12034   0.84173   0.00000  Uiso   1.00
H267   H     0.82449   0.50461   0.77308   0.00000  Uiso   1.00
O268   O     0.75578   0.05349   0.92189   0.00000  Uiso   1.00
O269   O     0.29793   0.03086   0.75814   0.00000  Uiso   1.00
O270   O     0.72706   0.53500   0.66807   0.00000  Uiso   1.00
N271   N     0.77806   0.07179   0.84005   0.00000  Uiso   1.00
N272   N     0.16442   0.05565   0.72336   0.00000  Uiso   1.00
N273   N     0.75763   0.41490   0.65917   0.00000  Uiso   1.00
N274   N     0.83179   0.12315   0.92372   0.00000  Uiso   1.00
N275   N     0.21814   0.10701   0.80704   0.00000  Uiso   1.00
N276   N     0.81136   0.46626   0.74285   0.00000  Uiso   1.00
C277   C     0.31917   0.59247   0.65796   0.00000  Uiso   1.00
C278   C     0.30511   0.55102   0.59901   0.00000  Uiso   1.00
C279   C     0.26880   0.49836   0.58187   0.00000  Uiso   1.00
C280   C     0.26154   0.46680   0.52615   0.00000  Uiso   1.00
C281   C     0.23541   0.39935   0.44025   0.00000  Uiso   1.00
C282   C     0.28240   0.66789   0.64537   0.00000  Uiso   1.00
C283   C     0.22700   0.71349   0.66723   0.00000  Uiso   1.00
C284   C     0.20063   0.78032   0.65054   0.00000  Uiso   1.00
C285   C     0.13927   0.89432   0.63667   0.00000  Uiso   1.00
C286   C     0.40541   0.58429   0.68258   0.00000  Uiso   1.00
C287   C     0.45345   0.55963   0.73573   0.00000  Uiso   1.00
C288   C     0.53065   0.55609   0.75039   0.00000  Uiso   1.00
C289   C     0.66029   0.54030   0.79429   0.00000  Uiso   1.00
C290   C     0.37086   0.63008   0.58949   0.00000  Uiso   1.00
C291   C     0.33319   0.57145   0.56181   0.00000  Uiso   1.00
C292   C     0.32599   0.53996   0.50611   0.00000  Uiso   1.00
C293   C     0.28967   0.48726   0.48889   0.00000  Uiso   1.00
C294   C     0.31047   0.68831   0.60818   0.00000  Uiso   1.00
C295   C     0.28419   0.75509   0.59147   0.00000  Uiso   1.00
C296   C     0.22876   0.80078   0.61329   0.00000  Uiso   1.00
C297   C     0.43350   0.60472   0.64539   0.00000  Uiso   1.00
C298   C     0.51064   0.60123   0.65997   0.00000  Uiso   1.00
C299   C     0.55878   0.57655   0.71313   0.00000  Uiso   1.00
H300   H     0.29731   0.57658   0.68692   0.00000  Uiso   1.00
H301   H     0.24707   0.48257   0.61066   0.00000  Uiso   1.00
H302   H     0.20528   0.69767   0.69601   0.00000  Uiso   1.00
H303   H     0.43170   0.54382   0.76450   0.00000  Uiso   1.00
H304   H     0.20373   0.38737   0.50970   0.00000  Uiso   1.00
H305   H     0.11564   0.84092   0.68969   0.00000  Uiso   1.00
H306   H     0.59308   0.51652   0.83412   0.00000  Uiso   1.00
H307   H     0.39272   0.64599   0.56053   0.00000  Uiso   1.00
H308   H     0.34772   0.55578   0.47734   0.00000  Uiso   1.00
H309   H     0.30593   0.77088   0.56269   0.00000  Uiso   1.00
H310   H     0.53235   0.61704   0.63118   0.00000  Uiso   1.00
H311   H     0.28542   0.44679   0.40149   0.00000  Uiso   1.00
H312   H     0.19733   0.90035   0.58148   0.00000  Uiso   1.00
H313   H     0.67477   0.57594   0.72591   0.00000  Uiso   1.00
O314   O     0.21323   0.35650   0.40314   0.00000  Uiso   1.00
O315   O     0.09767   0.95155   0.63928   0.00000  Uiso   1.00
O316   O     0.72405   0.52594   0.82877   0.00000  Uiso   1.00
N317   N     0.22915   0.41372   0.49566   0.00000  Uiso   1.00
N318   N     0.14677   0.83777   0.66392   0.00000  Uiso   1.00
N319   N     0.59314   0.53449   0.79896   0.00000  Uiso   1.00
N320   N     0.27311   0.44570   0.43743   0.00000  Uiso   1.00
N321   N     0.19073   0.86974   0.60570   0.00000  Uiso   1.00
N322   N     0.63709   0.56647   0.74073   0.00000  Uiso   1.00
C323   C     0.69494   0.72435   0.35750   0.00000  Uiso   1.00
C324   C     0.76758   0.66597   0.36094   0.00000  Uiso   1.00
C325   C     0.84105   0.66710   0.39709   0.00000  Uiso   1.00
C326   C     0.89988   0.60855   0.39376   0.00000  Uiso   1.00
C327   C     0.01483   0.52666   0.40493   0.00000  Uiso   1.00
C328   C     0.63999   0.69358   0.36935   0.00000  Uiso   1.00
C329   C     0.60617   0.71793   0.41256   0.00000  Uiso   1.00
C330   C     0.55758   0.68261   0.41630   0.00000  Uiso   1.00
C331   C     0.47440   0.64361   0.44049   0.00000  Uiso   1.00
C332   C     0.65933   0.74083   0.29411   0.00000  Uiso   1.00
C333   C     0.64174   0.80492   0.27406   0.00000  Uiso   1.00
C334   C     0.60941   0.80939   0.21445   0.00000  Uiso   1.00
C335   C     0.55625   0.84376   0.12182   0.00000  Uiso   1.00
C336   C     0.66878   0.61834   0.28730   0.00000  Uiso   1.00
C337   C     0.75337   0.60840   0.32281   0.00000  Uiso   1.00
C338   C     0.81211   0.54982   0.31942   0.00000  Uiso   1.00
C339   C     0.88565   0.55087   0.35556   0.00000  Uiso   1.00
C340   C     0.62578   0.63600   0.33122   0.00000  Uiso   1.00
C341   C     0.57723   0.60065   0.33489   0.00000  Uiso   1.00
C342   C     0.54335   0.62493   0.37810   0.00000  Uiso   1.00
C343   C     0.64512   0.68326   0.25598   0.00000  Uiso   1.00
C344   C     0.61280   0.68763   0.19639   0.00000  Uiso   1.00
C345   C     0.59518   0.75171   0.17625   0.00000  Uiso   1.00
H346   H     0.70600   0.76917   0.38719   0.00000  Uiso   1.00
H347   H     0.85202   0.71167   0.42660   0.00000  Uiso   1.00
H348   H     0.61717   0.76249   0.44206   0.00000  Uiso   1.00
H349   H     0.65274   0.84946   0.30358   0.00000  Uiso   1.00
H350   H     0.00764   0.62252   0.45349   0.00000  Uiso   1.00
H351   H     0.51243   0.72969   0.48608   0.00000  Uiso   1.00
H352   H     0.58743   0.91309   0.19406   0.00000  Uiso   1.00
H353   H     0.65772   0.57351   0.25761   0.00000  Uiso   1.00
H354   H     0.80110   0.50527   0.28991   0.00000  Uiso   1.00
H355   H     0.56624   0.55609   0.30538   0.00000  Uiso   1.00
H356   H     0.60182   0.64307   0.16689   0.00000  Uiso   1.00
H357   H     0.96631   0.45500   0.34256   0.00000  Uiso   1.00
H358   H     0.47109   0.56217   0.37514   0.00000  Uiso   1.00
H359   H     0.54610   0.74557   0.08313   0.00000  Uiso   1.00
O360   O     0.08216   0.49739   0.42163   0.00000  Uiso   1.00
O361   O     0.43245   0.63800   0.46437   0.00000  Uiso   1.00
O362   O     0.53086   0.87862   0.08126   0.00000  Uiso   1.00
N363   N     0.97824   0.59246   0.42294   0.00000  Uiso   1.00
N364   N     0.51525   0.69265   0.45342   0.00000  Uiso   1.00
N365   N     0.58536   0.86413   0.18041   0.00000  Uiso   1.00
N366   N     0.95600   0.50232   0.36325   0.00000  Uiso   1.00
N367   N     0.49301   0.60251   0.39372   0.00000  Uiso   1.00
N368   N     0.56312   0.77398   0.12071   0.00000  Uiso   1.00
C369   C     0.92546   0.26436   0.57546   0.00000  Uiso   1.00
C370   C     0.94527   0.27261   0.52321   0.00000  Uiso   1.00
C371   C     0.90384   0.32233   0.48389   0.00000  Uiso   1.00
C372   C     0.93142   0.32127   0.43905   0.00000  Uiso   1.00
C373   C     0.95207   0.34156   0.35874   0.00000  Uiso   1.00
C374   C     0.99597   0.26795   0.62828   0.00000  Uiso   1.00
C375   C     0.99715   0.31375   0.67730   0.00000  Uiso   1.00
C376   C     0.06740   0.30875   0.72091   0.00000  Uiso   1.00
C377   C     0.16674   0.32178   0.80374   0.00000  Uiso   1.00
C378   C     0.91920   0.19062   0.56823   0.00000  Uiso   1.00
C379   C     0.85585   0.17141   0.56677   0.00000  Uiso   1.00
C380   C     0.86147   0.10130   0.55983   0.00000  Uiso   1.00
C381   C     0.84162   0.99427   0.54943   0.00000  Uiso   1.00
C382   C     0.04811   0.17403   0.56574   0.00000  Uiso   1.00
C383   C     0.01189   0.22355   0.51793   0.00000  Uiso   1.00
C384   C     0.03954   0.22240   0.47314   0.00000  Uiso   1.00
C385   C     0.99815   0.27212   0.43376   0.00000  Uiso   1.00
C386   C     0.06258   0.21889   0.62300   0.00000  Uiso   1.00
C387   C     0.13285   0.21382   0.66655   0.00000  Uiso   1.00
C388   C     0.13414   0.25960   0.71562   0.00000  Uiso   1.00
C389   C     0.98581   0.14156   0.56295   0.00000  Uiso   1.00
C390   C     0.99154   0.07148   0.55602   0.00000  Uiso   1.00
C391   C     0.92821   0.05216   0.55455   0.00000  Uiso   1.00
H392   H     0.87360   0.30255   0.57957   0.00000  Uiso   1.00
H393   H     0.85229   0.36029   0.48800   0.00000  Uiso   1.00
H394   H     0.94559   0.35170   0.68138   0.00000  Uiso   1.00
H395   H     0.80430   0.20938   0.57086   0.00000  Uiso   1.00
H396   H     0.85807   0.40269   0.38415   0.00000  Uiso   1.00
H397   H     0.05478   0.38457   0.79191   0.00000  Uiso   1.00
H398   H     0.75685   0.08446   0.55887   0.00000  Uiso   1.00
H399   H     0.09997   0.13584   0.56163   0.00000  Uiso   1.00
H400   H     0.09109   0.18443   0.46906   0.00000  Uiso   1.00
H401   H     0.18439   0.17585   0.66245   0.00000  Uiso   1.00
H402   H     0.04310   0.03353   0.55193   0.00000  Uiso   1.00
H403   H     0.05188   0.25996   0.36878   0.00000  Uiso   1.00
H404   H     0.24860   0.24183   0.77655   0.00000  Uiso   1.00
H405   H     0.95067   0.94172   0.54351   0.00000  Uiso   1.00
O406   O     0.94506   0.36631   0.31591   0.00000  Uiso   1.00
O407   O     0.20313   0.34253   0.85089   0.00000  Uiso   1.00
O408   O     0.81226   0.94879   0.54514   0.00000  Uiso   1.00
N409   N     0.90489   0.36242   0.39323   0.00000  Uiso   1.00
N410   N     0.08881   0.34548   0.77446   0.00000  Uiso   1.00
N411   N     0.81028   0.06491   0.55660   0.00000  Uiso   1.00
N412   N     0.00918   0.28562   0.38496   0.00000  Uiso   1.00
N413   N     0.19310   0.26868   0.76620   0.00000  Uiso   1.00
N414   N     0.91457   0.98810   0.54834   0.00000  Uiso   1.00
C415   C     0.58195   0.04767   0.74816   0.00000  Uiso   1.00
C416   C     0.64455   0.00799   0.72166   0.00000  Uiso   1.00
C417   C     0.70622   0.95345   0.74512   0.00000  Uiso   1.00
C418   C     0.75724   0.92402   0.71424   0.00000  Uiso   1.00
C419   C     0.85604   0.85873   0.68109   0.00000  Uiso   1.00
C420   C     0.58203   0.12318   0.75487   0.00000  Uiso   1.00
C421   C     0.59114   0.16549   0.80625   0.00000  Uiso   1.00
C422   C     0.58952   0.23303   0.80332   0.00000  Uiso   1.00
C423   C     0.59121   0.34659   0.82172   0.00000  Uiso   1.00
C424   C     0.50619   0.04250   0.70179   0.00000  Uiso   1.00
C425   C     0.45151   0.01699   0.70854   0.00000  Uiso   1.00
C426   C     0.38603   0.01662   0.66093   0.00000  Uiso   1.00
C427   C     0.26996   0.00491   0.59691   0.00000  Uiso   1.00
C428   C     0.56287   0.09239   0.65162   0.00000  Uiso   1.00
C429   C     0.63418   0.03228   0.66923   0.00000  Uiso   1.00
C430   C     0.68511   0.00293   0.63830   0.00000  Uiso   1.00
C431   C     0.74686   0.94835   0.66171   0.00000  Uiso   1.00
C432   C     0.57167   0.14747   0.70244   0.00000  Uiso   1.00
C433   C     0.57003   0.21497   0.69943   0.00000  Uiso   1.00
C434   C     0.57913   0.25737   0.75079   0.00000  Uiso   1.00
C435   C     0.49582   0.06679   0.64935   0.00000  Uiso   1.00
C436   C     0.43041   0.06647   0.60173   0.00000  Uiso   1.00
C437   C     0.37564   0.04096   0.60840   0.00000  Uiso   1.00
H438   H     0.59001   0.02876   0.78899   0.00000  Uiso   1.00
H439   H     0.71423   0.93467   0.78571   0.00000  Uiso   1.00
H440   H     0.59915   0.14668   0.84682   0.00000  Uiso   1.00
H441   H     0.45955   0.99820   0.74913   0.00000  Uiso   1.00
H442   H     0.84739   0.84107   0.75895   0.00000  Uiso   1.00
H443   H     0.60471   0.28811   0.88781   0.00000  Uiso   1.00
H444   H     0.31034   0.97502   0.68181   0.00000  Uiso   1.00
H445   H     0.55480   0.11131   0.61079   0.00000  Uiso   1.00
H446   H     0.67708   0.02173   0.59773   0.00000  Uiso   1.00
H447   H     0.56200   0.23375   0.65885   0.00000  Uiso   1.00
H448   H     0.42240   0.08527   0.56115   0.00000  Uiso   1.00
H449   H     0.81724   0.91174   0.60638   0.00000  Uiso   1.00
H450   H     0.57456   0.35879   0.73524   0.00000  Uiso   1.00
H451   H     0.28019   0.04569   0.52924   0.00000  Uiso   1.00
O452   O     0.91340   0.81601   0.67729   0.00000  Uiso   1.00
O453   O     0.59501   0.40251   0.84636   0.00000  Uiso   1.00
O454   O     0.20880   0.99173   0.57608   0.00000  Uiso   1.00
N455   N     0.82350   0.86999   0.72483   0.00000  Uiso   1.00
N456   N     0.59663   0.28794   0.84531   0.00000  Uiso   1.00
N457   N     0.32140   0.99524   0.65272   0.00000  Uiso   1.00
N458   N     0.80728   0.90801   0.64273   0.00000  Uiso   1.00
N459   N     0.58041   0.32597   0.76321   0.00000  Uiso   1.00
N460   N     0.30518   0.03327   0.57062   0.00000  Uiso   1.00
C461   C     0.25189   0.28315   0.16526   0.00000  Uiso   1.00
C462   C     0.19628   0.23833   0.13741   0.00000  Uiso   1.00
C463   C     0.11698   0.26122   0.12216   0.00000  Uiso   1.00
C464   C     0.07627   0.21213   0.09720   0.00000  Uiso   1.00
C465   C     0.98425   0.15310   0.05541   0.00000  Uiso   1.00
C466   C     0.30698   0.25136   0.22129   0.00000  Uiso   1.00
C467   C     0.32075   0.28523   0.27656   0.00000  Uiso   1.00
C468   C     0.37323   0.24711   0.32221   0.00000  Uiso   1.00
C469   C     0.45311   0.20833   0.41064   0.00000  Uiso   1.00
C470   C     0.29951   0.27210   0.12528   0.00000  Uiso   1.00
C471   C     0.30701   0.32340   0.09983   0.00000  Uiso   1.00
C472   C     0.35322   0.30274   0.06465   0.00000  Uiso   1.00
C473   C     0.42150   0.29616   0.00401   0.00000  Uiso   1.00
C474   C     0.32062   0.15525   0.14805   0.00000  Uiso   1.00
C475   C     0.23362   0.16886   0.12807   0.00000  Uiso   1.00
C476   C     0.19302   0.11972   0.10312   0.00000  Uiso   1.00
C477   C     0.11367   0.14254   0.08783   0.00000  Uiso   1.00
C478   C     0.34431   0.18190   0.21195   0.00000  Uiso   1.00
C479   C     0.39679   0.14372   0.25752   0.00000  Uiso   1.00
C480   C     0.41063   0.17752   0.31285   0.00000  Uiso   1.00
C481   C     0.33684   0.20263   0.11593   0.00000  Uiso   1.00
C482   C     0.38305   0.18189   0.08079   0.00000  Uiso   1.00
C483   C     0.39062   0.23315   0.05529   0.00000  Uiso   1.00
H484   H     0.22283   0.33723   0.17253   0.00000  Uiso   1.00
H485   H     0.08811   0.31498   0.12940   0.00000  Uiso   1.00
H486   H     0.29186   0.33899   0.28378   0.00000  Uiso   1.00
H487   H     0.27811   0.37715   0.10707   0.00000  Uiso   1.00
H488   H     0.95521   0.25968   0.07748   0.00000  Uiso   1.00
H489   H     0.38484   0.31030   0.40299   0.00000  Uiso   1.00
H490   H     0.35587   0.39078   0.03037   0.00000  Uiso   1.00
H491   H     0.34969   0.10116   0.14078   0.00000  Uiso   1.00
H492   H     0.22193   0.06596   0.09590   0.00000  Uiso   1.00
H493   H     0.42567   0.08997   0.25028   0.00000  Uiso   1.00
H494   H     0.41193   0.12813   0.07357   0.00000  Uiso   1.00
H495   H     0.06382   0.05757   0.05029   0.00000  Uiso   1.00
H496   H     0.49346   0.10819   0.37580   0.00000  Uiso   1.00
H497   H     0.46448   0.18866   0.00318   0.00000  Uiso   1.00
O498   O     0.92318   0.13972   0.03496   0.00000  Uiso   1.00
O499   O     0.48685   0.20614   0.46200   0.00000  Uiso   1.00
O500   O     0.44884   0.31172   0.97314   0.00000  Uiso   1.00
N501   N     0.99831   0.21695   0.07723   0.00000  Uiso   1.00
N502   N     0.39997   0.26427   0.38156   0.00000  Uiso   1.00
N503   N     0.37291   0.33951   0.03321   0.00000  Uiso   1.00
N504   N     0.05675   0.10819   0.06260   0.00000  Uiso   1.00
N505   N     0.45842   0.15551   0.36693   0.00000  Uiso   1.00
N506   N     0.43135   0.23075   0.01857   0.00000  Uiso   1.00
C507   C     0.10473   0.82373   0.26650   0.00000  Uiso   1.00
C508   C     0.12391   0.83996   0.21669   0.00000  Uiso   1.00
C509   C     0.16996   0.88223   0.22142   0.00000  Uiso   1.00
C510   C     0.18049   0.89054   0.17074   0.00000  Uiso   1.00
C511   C     0.21546   0.92077   0.10152   0.00000  Uiso   1.00
C512   C     0.01742   0.84442   0.24884   0.00000  Uiso   1.00
C513   C     0.97394   0.89043   0.28061   0.00000  Uiso   1.00
C514   C     0.89483   0.90249   0.25701   0.00000  Uiso   1.00
C515   C     0.76449   0.93960   0.23773   0.00000  Uiso   1.00
C516   C     0.12954   0.74542   0.26653   0.00000  Uiso   1.00
C517   C     0.18032   0.70817   0.31318   0.00000  Uiso   1.00
C518   C     0.19559   0.63687   0.30447   0.00000  Uiso   1.00
C519   C     0.23933   0.52026   0.31265   0.00000  Uiso   1.00
C520   C     0.04155   0.76333   0.16810   0.00000  Uiso   1.00
C521   C     0.08959   0.80716   0.16324   0.00000  Uiso   1.00
C522   C     0.10006   0.81540   0.11255   0.00000  Uiso   1.00
C523   C     0.14611   0.85768   0.11720   0.00000  Uiso   1.00
C524   C     0.98311   0.81162   0.19540   0.00000  Uiso   1.00
C525   C     0.90404   0.82360   0.17174   0.00000  Uiso   1.00
C526   C     0.86045   0.86962   0.20346   0.00000  Uiso   1.00
C527   C     0.09523   0.71261   0.21308   0.00000  Uiso   1.00
C528   C     0.11042   0.64135   0.20430   0.00000  Uiso   1.00
C529   C     0.16121   0.60401   0.25092   0.00000  Uiso   1.00
H530   H     0.13144   0.84927   0.30811   0.00000  Uiso   1.00
H531   H     0.19650   0.90762   0.26279   0.00000  Uiso   1.00
H532   H     0.00052   0.91581   0.32197   0.00000  Uiso   1.00
H533   H     0.20686   0.73358   0.35453   0.00000  Uiso   1.00
H534   H     0.25347   0.95785   0.18896   0.00000  Uiso   1.00
H535   H     0.84023   0.97511   0.31377   0.00000  Uiso   1.00
H536   H     0.27535   0.59085   0.38242   0.00000  Uiso   1.00
H537   H     0.01483   0.73778   0.12648   0.00000  Uiso   1.00
H538   H     0.07349   0.79001   0.07119   0.00000  Uiso   1.00
H539   H     0.87751   0.79820   0.13038   0.00000  Uiso   1.00
H540   H     0.08385   0.61598   0.16294   0.00000  Uiso   1.00
H541   H     0.15363   0.86240   0.03346   0.00000  Uiso   1.00
H542   H     0.74039   0.87966   0.15827   0.00000  Uiso   1.00
H543   H     0.17551   0.49539   0.22692   0.00000  Uiso   1.00
O544   O     0.24422   0.94651   0.07811   0.00000  Uiso   1.00
O545   O     0.70207   0.96914   0.24186   0.00000  Uiso   1.00
O546   O     0.27294   0.46500   0.33193   0.00000  Uiso   1.00
N547   N     0.22194   0.92821   0.15995   0.00000  Uiso   1.00
N548   N     0.83558   0.94435   0.27664   0.00000  Uiso   1.00
N549   N     0.24237   0.58510   0.34083   0.00000  Uiso   1.00
N550   N     0.16821   0.87685   0.07628   0.00000  Uiso   1.00
N551   N     0.78186   0.89299   0.19296   0.00000  Uiso   1.00
N552   N     0.18864   0.53374   0.25715   0.00000  Uiso   1.00
