data_job_06905
_audit_creation_date              2018-12-19
_audit_creation_method            'Materials Studio'
_symmetry_space_group_name_H-M    'P1'
_symmetry_Int_Tables_number       1
_symmetry_cell_setting            triclinic
loop_
_symmetry_equiv_pos_as_xyz
  x,y,z
_cell_length_a                    22.4706
_cell_length_b                    22.5946
_cell_length_c                    18.5820
_cell_angle_alpha                 71.9112
_cell_angle_beta                  79.1735
_cell_angle_gamma                 64.6102
loop_
_atom_site_label
_atom_site_type_symbol
_atom_site_fract_x
_atom_site_fract_y
_atom_site_fract_z
_atom_site_U_iso_or_equiv
_atom_site_adp_type
_atom_site_occupancy
C1     C     0.36296   0.85873   0.19118   0.00000  Uiso   1.00
C2     C     0.30846   0.92822   0.19212   0.00000  Uiso   1.00
C3     C     0.31467   0.98989   0.16248   0.00000  Uiso   1.00
C4     C     0.25904   0.04779   0.16899   0.00000  Uiso   1.00
C5     C     0.18350   0.15626   0.16516   0.00000  Uiso   1.00
C6     C     0.36910   0.81711   0.27366   0.00000  Uiso   1.00
C7     C     0.42631   0.78535   0.31258   0.00000  Uiso   1.00
C8     C     0.42172   0.74970   0.38772   0.00000  Uiso   1.00
C9     C     0.44035   0.68562   0.51048   0.00000  Uiso   1.00
C10    C     0.33604   0.82616   0.15180   0.00000  Uiso   1.00
C11    C     0.36545   0.80200   0.08828   0.00000  Uiso   1.00
C12    C     0.33303   0.77395   0.06084   0.00000  Uiso   1.00
C13    C     0.30032   0.72393   0.99439   0.00000  Uiso   1.00
C14    C     0.25311   0.85188   0.25543   0.00000  Uiso   1.00
C15    C     0.24880   0.92450   0.22701   0.00000  Uiso   1.00
C16    C     0.19314   0.98232   0.23356   0.00000  Uiso   1.00
C17    C     0.19927   0.04406   0.20394   0.00000  Uiso   1.00
C18    C     0.30944   0.81339   0.30856   0.00000  Uiso   1.00
C19    C     0.30477   0.77777   0.38366   0.00000  Uiso   1.00
C20    C     0.36195   0.74597   0.42268   0.00000  Uiso   1.00
C21    C     0.27637   0.82244   0.18670   0.00000  Uiso   1.00
C22    C     0.24391   0.79442   0.15935   0.00000  Uiso   1.00
C23    C     0.27326   0.77023   0.09580   0.00000  Uiso   1.00
H24    H     0.40941   0.86162   0.16402   0.00000  Uiso   1.00
H25    H     0.36086   0.99275   0.13549   0.00000  Uiso   1.00
H26    H     0.47247   0.78823   0.28556   0.00000  Uiso   1.00
H27    H     0.41162   0.80488   0.06129   0.00000  Uiso   1.00
H28    H     0.28072   0.13649   0.11927   0.00000  Uiso   1.00
H29    H     0.51607   0.70524   0.43569   0.00000  Uiso   1.00
H30    H     0.38775   0.74034   0.96278   0.00000  Uiso   1.00
H31    H     0.20666   0.84898   0.28260   0.00000  Uiso   1.00
H32    H     0.14697   0.97942   0.26057   0.00000  Uiso   1.00
H33    H     0.25859   0.77490   0.41064   0.00000  Uiso   1.00
H34    H     0.19774   0.79155   0.18637   0.00000  Uiso   1.00
H35    H     0.10712   0.12567   0.22079   0.00000  Uiso   1.00
H36    H     0.34248   0.69441   0.53721   0.00000  Uiso   1.00
H37    H     0.21416   0.72952   0.06430   0.00000  Uiso   1.00
O38    O     0.15832   0.21711   0.15342   0.00000  Uiso   1.00
O39    O     0.46710   0.65131   0.56855   0.00000  Uiso   1.00
O40    O     0.29875   0.69738   0.94810   0.00000  Uiso   1.00
N41    N     0.24805   0.11604   0.14617   0.00000  Uiso   1.00
N42    N     0.46809   0.71285   0.44201   0.00000  Uiso   1.00
N43    N     0.34813   0.74566   0.99989   0.00000  Uiso   1.00
N44    N     0.15464   0.11022   0.20080   0.00000  Uiso   1.00
N45    N     0.37468   0.70703   0.49664   0.00000  Uiso   1.00
N46    N     0.25472   0.73984   0.05452   0.00000  Uiso   1.00
C47    C     0.17026   0.27436   0.89444   0.00000  Uiso   1.00
C48    C     0.17425   0.20389   0.90050   0.00000  Uiso   1.00
C49    C     0.20302   0.14585   0.95746   0.00000  Uiso   1.00
C50    C     0.20163   0.08630   0.95284   0.00000  Uiso   1.00
C51    C     0.21229   0.97709   0.97128   0.00000  Uiso   1.00
C52    C     0.20257   0.29631   0.81680   0.00000  Uiso   1.00
C53    C     0.25514   0.31599   0.80338   0.00000  Uiso   1.00
C54    C     0.27758   0.33424   0.72829   0.00000  Uiso   1.00
C55    C     0.33218   0.36856   0.61679   0.00000  Uiso   1.00
C56    C     0.09721   0.32112   0.89097   0.00000  Uiso   1.00
C57    C     0.06119   0.36167   0.93990   0.00000  Uiso   1.00
C58    C     0.99492   0.40082   0.92725   0.00000  Uiso   1.00
C59    C     0.88592   0.47366   0.93091   0.00000  Uiso   1.00
C60    C     0.11663   0.27181   0.78495   0.00000  Uiso   1.00
C61    C     0.14512   0.20251   0.84103   0.00000  Uiso   1.00
C62    C     0.14369   0.14303   0.83633   0.00000  Uiso   1.00
C63    C     0.17245   0.08491   0.89327   0.00000  Uiso   1.00
C64    C     0.17344   0.29493   0.75733   0.00000  Uiso   1.00
C65    C     0.19581   0.31316   0.68225   0.00000  Uiso   1.00
C66    C     0.24840   0.33286   0.66872   0.00000  Uiso   1.00
C67    C     0.06807   0.31973   0.83151   0.00000  Uiso   1.00
C68    C     0.00185   0.35884   0.81877   0.00000  Uiso   1.00
C69    C     0.96574   0.39944   0.86768   0.00000  Uiso   1.00
H70    H     0.19294   0.27544   0.94073   0.00000  Uiso   1.00
H71    H     0.22557   0.14694   0.00346   0.00000  Uiso   1.00
H72    H     0.27767   0.31706   0.84941   0.00000  Uiso   1.00
H73    H     0.08375   0.36273   0.98591   0.00000  Uiso   1.00
H74    H     0.24891   0.00387   0.04678   0.00000  Uiso   1.00
H75    H     0.35877   0.36258   0.72194   0.00000  Uiso   1.00
H76    H     0.94984   0.45889   0.00979   0.00000  Uiso   1.00
H77    H     0.09395   0.27073   0.73865   0.00000  Uiso   1.00
H78    H     0.12114   0.14197   0.79030   0.00000  Uiso   1.00
H79    H     0.17325   0.31209   0.63625   0.00000  Uiso   1.00
H80    H     0.97933   0.35776   0.77275   0.00000  Uiso   1.00
H81    H     0.16416   0.99983   0.87377   0.00000  Uiso   1.00
H82    H     0.27402   0.35856   0.54893   0.00000  Uiso   1.00
H83    H     0.86509   0.45486   0.83678   0.00000  Uiso   1.00
O84    O     0.22623   0.91723   0.99788   0.00000  Uiso   1.00
O85    O     0.37035   0.38787   0.57171   0.00000  Uiso   1.00
O86    O     0.83384   0.51421   0.94936   0.00000  Uiso   1.00
N87    N     0.22522   0.02059   0.99898   0.00000  Uiso   1.00
N88    N     0.32794   0.35596   0.69528   0.00000  Uiso   1.00
N89    N     0.94563   0.44601   0.96438   0.00000  Uiso   1.00
N90    N     0.17962   0.01842   0.90588   0.00000  Uiso   1.00
N91    N     0.28233   0.35379   0.60218   0.00000  Uiso   1.00
N92    N     0.90002   0.44384   0.87128   0.00000  Uiso   1.00
C93    C     0.83870   0.25093   0.31925   0.00000  Uiso   1.00
C94    C     0.87244   0.22655   0.24846   0.00000  Uiso   1.00
C95    C     0.92456   0.23990   0.20421   0.00000  Uiso   1.00
C96    C     0.94851   0.21304   0.14175   0.00000  Uiso   1.00
C97    C     0.00502   0.18112   0.03448   0.00000  Uiso   1.00
C98    C     0.76563   0.28993   0.30451   0.00000  Uiso   1.00
C99    C     0.72795   0.35656   0.30740   0.00000  Uiso   1.00
C100   C     0.66199   0.38305   0.29213   0.00000  Uiso   1.00
C101   C     0.55267   0.44951   0.27195   0.00000  Uiso   1.00
C102   C     0.84365   0.18737   0.38267   0.00000  Uiso   1.00
C103   C     0.87154   0.16777   0.45128   0.00000  Uiso   1.00
C104   C     0.87124   0.10792   0.50183   0.00000  Uiso   1.00
C105   C     0.88305   0.01513   0.60298   0.00000  Uiso   1.00
C106   C     0.78854   0.17950   0.28702   0.00000  Uiso   1.00
C107   C     0.84519   0.18776   0.23096   0.00000  Uiso   1.00
C108   C     0.86907   0.16087   0.16855   0.00000  Uiso   1.00
C109   C     0.92122   0.17417   0.12421   0.00000  Uiso   1.00
C110   C     0.73839   0.25114   0.28701   0.00000  Uiso   1.00
C111   C     0.67246   0.27753   0.27174   0.00000  Uiso   1.00
C112   C     0.63469   0.34418   0.27460   0.00000  Uiso   1.00
C113   C     0.81640   0.14857   0.36517   0.00000  Uiso   1.00
C114   C     0.81605   0.08874   0.41562   0.00000  Uiso   1.00
C115   C     0.84395   0.06905   0.48429   0.00000  Uiso   1.00
H116   H     0.85991   0.28114   0.33287   0.00000  Uiso   1.00
H117   H     0.94563   0.26993   0.21777   0.00000  Uiso   1.00
H118   H     0.74905   0.38657   0.32096   0.00000  Uiso   1.00
H119   H     0.89262   0.19781   0.46481   0.00000  Uiso   1.00
H120   H     0.02864   0.24041   0.08242   0.00000  Uiso   1.00
H121   H     0.61414   0.48635   0.30002   0.00000  Uiso   1.00
H122   H     0.91688   0.08830   0.60336   0.00000  Uiso   1.00
H123   H     0.76733   0.14930   0.27339   0.00000  Uiso   1.00
H124   H     0.84797   0.13085   0.15502   0.00000  Uiso   1.00
H125   H     0.65139   0.24749   0.25820   0.00000  Uiso   1.00
H126   H     0.79496   0.05873   0.40205   0.00000  Uiso   1.00
H127   H     0.94937   0.12753   0.03148   0.00000  Uiso   1.00
H128   H     0.53487   0.37347   0.24908   0.00000  Uiso   1.00
H129   H     0.83762   0.97542   0.55242   0.00000  Uiso   1.00
O130   O     0.04371   0.17424   0.98014   0.00000  Uiso   1.00
O131   O     0.49990   0.49688   0.26564   0.00000  Uiso   1.00
O132   O     0.89710   0.97466   0.66361   0.00000  Uiso   1.00
N133   N     0.99892   0.21637   0.08668   0.00000  Uiso   1.00
N134   N     0.61139   0.44630   0.29011   0.00000  Uiso   1.00
N135   N     0.89442   0.07417   0.57372   0.00000  Uiso   1.00
N136   N     0.95627   0.15563   0.05928   0.00000  Uiso   1.00
N137   N     0.56874   0.38556   0.26271   0.00000  Uiso   1.00
N138   N     0.85177   0.01343   0.54631   0.00000  Uiso   1.00
C139   C     0.72788   0.78445   0.43140   0.00000  Uiso   1.00
C140   C     0.65373   0.81467   0.42275   0.00000  Uiso   1.00
C141   C     0.60689   0.86679   0.45260   0.00000  Uiso   1.00
C142   C     0.54156   0.88723   0.43834   0.00000  Uiso   1.00
C143   C     0.42912   0.93883   0.43136   0.00000  Uiso   1.00
C144   C     0.76022   0.79143   0.35107   0.00000  Uiso   1.00
C145   C     0.80293   0.82401   0.32067   0.00000  Uiso   1.00
C146   C     0.82725   0.82487   0.24608   0.00000  Uiso   1.00
C147   C     0.88019   0.84035   0.12784   0.00000  Uiso   1.00
C148   C     0.74726   0.70861   0.46664   0.00000  Uiso   1.00
C149   C     0.77908   0.67155   0.53340   0.00000  Uiso   1.00
C150   C     0.79250   0.60269   0.55610   0.00000  Uiso   1.00
C151   C     0.82530   0.48958   0.61730   0.00000  Uiso   1.00
C152   C     0.69513   0.72805   0.35300   0.00000  Uiso   1.00
C153   C     0.63594   0.78403   0.38016   0.00000  Uiso   1.00
C154   C     0.57066   0.80439   0.36586   0.00000  Uiso   1.00
C155   C     0.52373   0.85654   0.39569   0.00000  Uiso   1.00
C156   C     0.74244   0.76079   0.30849   0.00000  Uiso   1.00
C157   C     0.76670   0.76160   0.23393   0.00000  Uiso   1.00
C158   C     0.80943   0.79418   0.20342   0.00000  Uiso   1.00
C159   C     0.72947   0.67797   0.42406   0.00000  Uiso   1.00
C160   C     0.74284   0.60915   0.44666   0.00000  Uiso   1.00
C161   C     0.77468   0.57200   0.51344   0.00000  Uiso   1.00
H162   H     0.74173   0.80830   0.46454   0.00000  Uiso   1.00
H163   H     0.62068   0.89049   0.48554   0.00000  Uiso   1.00
H164   H     0.81670   0.84771   0.35364   0.00000  Uiso   1.00
H165   H     0.79284   0.69528   0.56633   0.00000  Uiso   1.00
H166   H     0.47863   0.96812   0.49002   0.00000  Uiso   1.00
H167   H     0.89195   0.87788   0.21190   0.00000  Uiso   1.00
H168   H     0.84165   0.55646   0.66041   0.00000  Uiso   1.00
H169   H     0.68128   0.70419   0.31985   0.00000  Uiso   1.00
H170   H     0.55691   0.78067   0.33291   0.00000  Uiso   1.00
H171   H     0.75292   0.73789   0.20100   0.00000  Uiso   1.00
H172   H     0.72907   0.58546   0.41370   0.00000  Uiso   1.00
H173   H     0.42687   0.87899   0.36614   0.00000  Uiso   1.00
H174   H     0.84020   0.78875   0.08801   0.00000  Uiso   1.00
H175   H     0.78989   0.46733   0.53652   0.00000  Uiso   1.00
O176   O     0.37202   0.97576   0.43926   0.00000  Uiso   1.00
O177   O     0.91430   0.85736   0.07438   0.00000  Uiso   1.00
O178   O     0.84830   0.43566   0.66282   0.00000  Uiso   1.00
N179   N     0.48351   0.93664   0.45909   0.00000  Uiso   1.00
N180   N     0.86994   0.85228   0.19905   0.00000  Uiso   1.00
N181   N     0.82293   0.55177   0.61836   0.00000  Uiso   1.00
N182   N     0.45566   0.88868   0.39242   0.00000  Uiso   1.00
N183   N     0.84209   0.80432   0.13239   0.00000  Uiso   1.00
N184   N     0.79508   0.50381   0.55170   0.00000  Uiso   1.00
C185   C     0.62487   0.38372   0.78216   0.00000  Uiso   1.00
C186   C     0.63245   0.39643   0.69606   0.00000  Uiso   1.00
C187   C     0.63731   0.45394   0.64460   0.00000  Uiso   1.00
C188   C     0.64399   0.45586   0.56819   0.00000  Uiso   1.00
C189   C     0.65553   0.48375   0.43815   0.00000  Uiso   1.00
C190   C     0.68199   0.31700   0.81270   0.00000  Uiso   1.00
C191   C     0.72851   0.30772   0.85931   0.00000  Uiso   1.00
C192   C     0.77689   0.24277   0.88109   0.00000  Uiso   1.00
C193   C     0.86532   0.14733   0.93218   0.00000  Uiso   1.00
C194   C     0.56237   0.36998   0.80745   0.00000  Uiso   1.00
C195   C     0.50830   0.40524   0.84966   0.00000  Uiso   1.00
C196   C     0.45596   0.38488   0.86705   0.00000  Uiso   1.00
C197   C     0.35865   0.37170   0.90998   0.00000  Uiso   1.00
C198   C     0.62807   0.28486   0.73798   0.00000  Uiso   1.00
C199   C     0.63419   0.34273   0.67207   0.00000  Uiso   1.00
C200   C     0.64086   0.34456   0.59572   0.00000  Uiso   1.00
C201   C     0.64573   0.40206   0.54415   0.00000  Uiso   1.00
C202   C     0.68374   0.26330   0.78870   0.00000  Uiso   1.00
C203   C     0.73205   0.19834   0.81043   0.00000  Uiso   1.00
C204   C     0.77863   0.18897   0.85705   0.00000  Uiso   1.00
C205   C     0.56410   0.31628   0.78345   0.00000  Uiso   1.00
C206   C     0.51184   0.29586   0.80078   0.00000  Uiso   1.00
C207   C     0.45771   0.33108   0.84301   0.00000  Uiso   1.00
H208   H     0.62352   0.42552   0.80084   0.00000  Uiso   1.00
H209   H     0.63597   0.49548   0.66319   0.00000  Uiso   1.00
H210   H     0.72715   0.34929   0.87787   0.00000  Uiso   1.00
H211   H     0.50697   0.44679   0.86822   0.00000  Uiso   1.00
H212   H     0.65057   0.54936   0.49999   0.00000  Uiso   1.00
H213   H     0.84281   0.24109   0.95268   0.00000  Uiso   1.00
H214   H     0.37852   0.44669   0.93234   0.00000  Uiso   1.00
H215   H     0.62943   0.24305   0.71930   0.00000  Uiso   1.00
H216   H     0.64220   0.30300   0.57716   0.00000  Uiso   1.00
H217   H     0.73338   0.15680   0.79185   0.00000  Uiso   1.00
H218   H     0.51321   0.25430   0.78220   0.00000  Uiso   1.00
H219   H     0.65563   0.39312   0.43017   0.00000  Uiso   1.00
H220   H     0.84787   0.08486   0.88287   0.00000  Uiso   1.00
H221   H     0.38359   0.29046   0.86252   0.00000  Uiso   1.00
O222   O     0.66142   0.51396   0.37305   0.00000  Uiso   1.00
O223   O     0.91362   0.10952   0.96698   0.00000  Uiso   1.00
O224   O     0.30449   0.37927   0.94029   0.00000  Uiso   1.00
N225   N     0.65000   0.50437   0.50306   0.00000  Uiso   1.00
N226   N     0.82973   0.21616   0.92629   0.00000  Uiso   1.00
N227   N     0.39567   0.40837   0.90729   0.00000  Uiso   1.00
N228   N     0.65272   0.42030   0.46549   0.00000  Uiso   1.00
N229   N     0.83246   0.13209   0.88872   0.00000  Uiso   1.00
N230   N     0.39839   0.32430   0.86972   0.00000  Uiso   1.00
C231   C     0.20951   0.80213   0.73027   0.00000  Uiso   1.00
C232   C     0.22545   0.72866   0.73340   0.00000  Uiso   1.00
C233   C     0.28826   0.67832   0.72973   0.00000  Uiso   1.00
C234   C     0.29242   0.61432   0.73355   0.00000  Uiso   1.00
C235   C     0.32579   0.50223   0.73734   0.00000  Uiso   1.00
C236   C     0.16642   0.81562   0.80209   0.00000  Uiso   1.00
C237   C     0.17960   0.83839   0.85617   0.00000  Uiso   1.00
C238   C     0.13406   0.84760   0.91782   0.00000  Uiso   1.00
C239   C     0.07576   0.87055   0.02823   0.00000  Uiso   1.00
C240   C     0.16517   0.84558   0.66446   0.00000  Uiso   1.00
C241   C     0.17729   0.89356   0.60283   0.00000  Uiso   1.00
C242   C     0.13069   0.92800   0.54861   0.00000  Uiso   1.00
C243   C     0.07045   0.99747   0.44533   0.00000  Uiso   1.00
C244   C     0.10519   0.77800   0.74359   0.00000  Uiso   1.00
C245   C     0.16879   0.71555   0.74063   0.00000  Uiso   1.00
C246   C     0.17285   0.65162   0.74446   0.00000  Uiso   1.00
C247   C     0.23566   0.60119   0.74080   0.00000  Uiso   1.00
C248   C     0.10976   0.80251   0.80933   0.00000  Uiso   1.00
C249   C     0.06419   0.81169   0.87091   0.00000  Uiso   1.00
C250   C     0.07730   0.83447   0.92507   0.00000  Uiso   1.00
C251   C     0.10851   0.83247   0.67169   0.00000  Uiso   1.00
C252   C     0.06188   0.86685   0.61756   0.00000  Uiso   1.00
C253   C     0.07392   0.91487   0.55586   0.00000  Uiso   1.00
H254   H     0.25362   0.81234   0.72465   0.00000  Uiso   1.00
H255   H     0.33210   0.68848   0.72414   0.00000  Uiso   1.00
H256   H     0.22345   0.84854   0.85056   0.00000  Uiso   1.00
H257   H     0.22114   0.90369   0.59726   0.00000  Uiso   1.00
H258   H     0.39412   0.54538   0.72679   0.00000  Uiso   1.00
H259   H     0.16502   0.88289   0.99334   0.00000  Uiso   1.00
H260   H     0.16015   0.99919   0.45920   0.00000  Uiso   1.00
H261   H     0.06108   0.76779   0.74922   0.00000  Uiso   1.00
H262   H     0.12900   0.64149   0.75006   0.00000  Uiso   1.00
H263   H     0.02035   0.80154   0.87648   0.00000  Uiso   1.00
H264   H     0.01804   0.85669   0.62318   0.00000  Uiso   1.00
H265   H     0.22928   0.50723   0.74783   0.00000  Uiso   1.00
H266   H     0.00017   0.84475   0.01438   0.00000  Uiso   1.00
H267   H     0.99530   0.96104   0.48025   0.00000  Uiso   1.00
O268   O     0.35985   0.44402   0.73745   0.00000  Uiso   1.00
O269   O     0.05927   0.88683   0.08714   0.00000  Uiso   1.00
O270   O     0.05288   0.03940   0.38636   0.00000  Uiso   1.00
N271   N     0.34601   0.55374   0.73161   0.00000  Uiso   1.00
N272   N     0.13181   0.86928   0.98083   0.00000  Uiso   1.00
N273   N     0.12725   0.97802   0.48146   0.00000  Uiso   1.00
N274   N     0.25730   0.53321   0.74293   0.00000  Uiso   1.00
N275   N     0.04311   0.84875   0.99215   0.00000  Uiso   1.00
N276   N     0.03855   0.95749   0.49279   0.00000  Uiso   1.00
C277   C     0.52079   0.07008   0.66844   0.00000  Uiso   1.00
C278   C     0.59503   0.02873   0.67144   0.00000  Uiso   1.00
C279   C     0.62887   0.96575   0.65615   0.00000  Uiso   1.00
C280   C     0.69674   0.93624   0.66201   0.00000  Uiso   1.00
C281   C     0.80704   0.86714   0.66353   0.00000  Uiso   1.00
C282   C     0.51213   0.13874   0.61320   0.00000  Uiso   1.00
C283   C     0.47625   0.16825   0.54896   0.00000  Uiso   1.00
C284   C     0.47433   0.23134   0.50580   0.00000  Uiso   1.00
C285   C     0.45589   0.33304   0.41694   0.00000  Uiso   1.00
C286   C     0.49656   0.08360   0.74641   0.00000  Uiso   1.00
C287   C     0.44758   0.06677   0.79417   0.00000  Uiso   1.00
C288   C     0.43254   0.08346   0.86316   0.00000  Uiso   1.00
C289   C     0.38993   0.09955   0.98112   0.00000  Uiso   1.00
C290   C     0.58116   0.12967   0.70603   0.00000  Uiso   1.00
C291   C     0.62783   0.06110   0.69186   0.00000  Uiso   1.00
C292   C     0.69566   0.03168   0.69774   0.00000  Uiso   1.00
C293   C     0.72959   0.96866   0.68246   0.00000  Uiso   1.00
C294   C     0.54492   0.17110   0.63362   0.00000  Uiso   1.00
C295   C     0.54305   0.23417   0.59055   0.00000  Uiso   1.00
C296   C     0.50718   0.26377   0.52625   0.00000  Uiso   1.00
C297   C     0.52936   0.11596   0.76683   0.00000  Uiso   1.00
C298   C     0.51438   0.13269   0.83576   0.00000  Uiso   1.00
C299   C     0.46539   0.11588   0.88361   0.00000  Uiso   1.00
H300   H     0.49525   0.04488   0.65254   0.00000  Uiso   1.00
H301   H     0.60347   0.94072   0.64035   0.00000  Uiso   1.00
H302   H     0.45087   0.14319   0.53318   0.00000  Uiso   1.00
H303   H     0.42221   0.04172   0.77835   0.00000  Uiso   1.00
H304   H     0.73791   0.83953   0.63581   0.00000  Uiso   1.00
H305   H     0.41614   0.26645   0.40985   0.00000  Uiso   1.00
H306   H     0.35570   0.05248   0.92684   0.00000  Uiso   1.00
H307   H     0.60669   0.15487   0.72192   0.00000  Uiso   1.00
H308   H     0.72103   0.05674   0.71354   0.00000  Uiso   1.00
H309   H     0.56843   0.25921   0.60636   0.00000  Uiso   1.00
H310   H     0.53977   0.15774   0.85154   0.00000  Uiso   1.00
H311   H     0.83333   0.93369   0.69521   0.00000  Uiso   1.00
H312   H     0.51155   0.36062   0.46925   0.00000  Uiso   1.00
H313   H     0.45112   0.14665   0.98624   0.00000  Uiso   1.00
O314   O     0.85883   0.82009   0.65872   0.00000  Uiso   1.00
O315   O     0.43666   0.38019   0.36227   0.00000  Uiso   1.00
O316   O     0.35737   0.09947   0.04056   0.00000  Uiso   1.00
N317   N     0.74468   0.87515   0.65095   0.00000  Uiso   1.00
N318   N     0.44385   0.27429   0.43969   0.00000  Uiso   1.00
N319   N     0.38733   0.07427   0.92302   0.00000  Uiso   1.00
N320   N     0.79602   0.92582   0.68292   0.00000  Uiso   1.00
N321   N     0.49519   0.32496   0.47165   0.00000  Uiso   1.00
N322   N     0.43867   0.12494   0.95499   0.00000  Uiso   1.00
C323   C     0.61618   0.63323   0.04745   0.00000  Uiso   1.00
C324   C     0.61234   0.70526   0.03027   0.00000  Uiso   1.00
C325   C     0.61718   0.74687   0.95857   0.00000  Uiso   1.00
C326   C     0.61242   0.81107   0.95483   0.00000  Uiso   1.00
C327   C     0.60783   0.91962   0.91816   0.00000  Uiso   1.00
C328   C     0.55267   0.63315   0.09415   0.00000  Uiso   1.00
C329   C     0.50735   0.61413   0.07617   0.00000  Uiso   1.00
C330   C     0.45236   0.61762   0.12621   0.00000  Uiso   1.00
C331   C     0.35516   0.61418   0.18874   0.00000  Uiso   1.00
C332   C     0.67184   0.58870   0.10076   0.00000  Uiso   1.00
C333   C     0.72671   0.53228   0.08836   0.00000  Uiso   1.00
C334   C     0.77205   0.49833   0.14398   0.00000  Uiso   1.00
C335   C     0.85988   0.42587   0.21678   0.00000  Uiso   1.00
C336   C     0.59913   0.67325   0.16830   0.00000  Uiso   1.00
C337   C     0.60308   0.72699   0.09591   0.00000  Uiso   1.00
C338   C     0.59832   0.79115   0.09227   0.00000  Uiso   1.00
C339   C     0.60315   0.83285   0.02059   0.00000  Uiso   1.00
C340   C     0.54341   0.65489   0.15978   0.00000  Uiso   1.00
C341   C     0.48849   0.65841   0.20987   0.00000  Uiso   1.00
C342   C     0.44309   0.63940   0.19197   0.00000  Uiso   1.00
C343   C     0.66258   0.61043   0.16640   0.00000  Uiso   1.00
C344   C     0.70785   0.57656   0.22206   0.00000  Uiso   1.00
C345   C     0.76277   0.52011   0.20974   0.00000  Uiso   1.00
H346   H     0.62339   0.61630   0.99635   0.00000  Uiso   1.00
H347   H     0.62434   0.73003   0.90779   0.00000  Uiso   1.00
H348   H     0.51453   0.59730   0.02537   0.00000  Uiso   1.00
H349   H     0.73386   0.51547   0.03756   0.00000  Uiso   1.00
H350   H     0.62128   0.86571   0.83855   0.00000  Uiso   1.00
H351   H     0.38976   0.58583   0.08649   0.00000  Uiso   1.00
H352   H     0.85226   0.41327   0.11218   0.00000  Uiso   1.00
H353   H     0.59192   0.69017   0.21940   0.00000  Uiso   1.00
H354   H     0.59115   0.80796   0.14308   0.00000  Uiso   1.00
H355   H     0.48134   0.67523   0.26066   0.00000  Uiso   1.00
H356   H     0.70067   0.59340   0.27284   0.00000  Uiso   1.00
H357   H     0.59434   0.92896   0.02951   0.00000  Uiso   1.00
H358   H     0.36282   0.64908   0.27746   0.00000  Uiso   1.00
H359   H     0.82531   0.47652   0.30315   0.00000  Uiso   1.00
O360   O     0.60785   0.97349   0.87979   0.00000  Uiso   1.00
O361   O     0.30410   0.60629   0.20509   0.00000  Uiso   1.00
O362   O     0.91089   0.37990   0.23880   0.00000  Uiso   1.00
N363   N     0.61506   0.86443   0.89397   0.00000  Uiso   1.00
N364   N     0.39859   0.60277   0.12577   0.00000  Uiso   1.00
N365   N     0.83098   0.44143   0.14980   0.00000  Uiso   1.00
N366   N     0.60057   0.89846   0.99672   0.00000  Uiso   1.00
N367   N     0.38410   0.63680   0.22853   0.00000  Uiso   1.00
N368   N     0.81649   0.47546   0.25256   0.00000  Uiso   1.00
C369   C     0.13383   0.64903   0.40454   0.00000  Uiso   1.00
C370   C     0.09024   0.63766   0.47654   0.00000  Uiso   1.00
C371   C     0.04853   0.60407   0.48916   0.00000  Uiso   1.00
C372   C     0.01279   0.59899   0.55877   0.00000  Uiso   1.00
C373   C     0.94425   0.57712   0.66222   0.00000  Uiso   1.00
C374   C     0.20401   0.61872   0.42963   0.00000  Uiso   1.00
C375   C     0.25797   0.56921   0.40280   0.00000  Uiso   1.00
C376   C     0.31801   0.54819   0.43291   0.00000  Uiso   1.00
C377   C     0.42612   0.49694   0.46349   0.00000  Uiso   1.00
C378   C     0.11456   0.72546   0.37679   0.00000  Uiso   1.00
C379   C     0.09332   0.76571   0.30551   0.00000  Uiso   1.00
C380   C     0.07805   0.83456   0.29112   0.00000  Uiso   1.00
C381   C     0.04727   0.94904   0.23966   0.00000  Uiso   1.00
C382   C     0.14451   0.69974   0.50571   0.00000  Uiso   1.00
C383   C     0.09604   0.66521   0.53149   0.00000  Uiso   1.00
C384   C     0.06035   0.66018   0.60109   0.00000  Uiso   1.00
C385   C     0.01860   0.62659   0.61381   0.00000  Uiso   1.00
C386   C     0.20982   0.64626   0.48458   0.00000  Uiso   1.00
C387   C     0.26979   0.62532   0.51473   0.00000  Uiso   1.00
C388   C     0.32382   0.57579   0.48796   0.00000  Uiso   1.00
C389   C     0.12036   0.75301   0.43174   0.00000  Uiso   1.00
C390   C     0.10513   0.82181   0.41745   0.00000  Uiso   1.00
C391   C     0.08387   0.86215   0.34617   0.00000  Uiso   1.00
H392   H     0.12931   0.62759   0.36176   0.00000  Uiso   1.00
H393   H     0.04406   0.58276   0.44662   0.00000  Uiso   1.00
H394   H     0.25347   0.54791   0.36027   0.00000  Uiso   1.00
H395   H     0.08883   0.74437   0.26301   0.00000  Uiso   1.00
H396   H     0.95212   0.54519   0.56496   0.00000  Uiso   1.00
H397   H     0.39367   0.47172   0.38286   0.00000  Uiso   1.00
H398   H     0.04651   0.88600   0.17775   0.00000  Uiso   1.00
H399   H     0.14903   0.72119   0.54849   0.00000  Uiso   1.00
H400   H     0.06485   0.68150   0.64361   0.00000  Uiso   1.00
H401   H     0.27426   0.64665   0.55725   0.00000  Uiso   1.00
H402   H     0.10963   0.84311   0.45999   0.00000  Uiso   1.00
H403   H     0.96900   0.62532   0.72484   0.00000  Uiso   1.00
H404   H     0.41055   0.55186   0.54273   0.00000  Uiso   1.00
H405   H     0.06339   0.96614   0.33763   0.00000  Uiso   1.00
O406   O     0.90485   0.55744   0.70410   0.00000  Uiso   1.00
O407   O     0.48414   0.46106   0.46518   0.00000  Uiso   1.00
O408   O     0.02868   0.00458   0.19609   0.00000  Uiso   1.00
N409   N     0.96763   0.56951   0.58952   0.00000  Uiso   1.00
N410   N     0.38045   0.50081   0.41928   0.00000  Uiso   1.00
N411   N     0.05591   0.88812   0.22751   0.00000  Uiso   1.00
N412   N     0.97672   0.61263   0.67555   0.00000  Uiso   1.00
N413   N     0.38954   0.54393   0.50531   0.00000  Uiso   1.00
N414   N     0.06499   0.93124   0.31354   0.00000  Uiso   1.00
C415   C     0.06970   0.11973   0.56543   0.00000  Uiso   1.00
C416   C     0.13786   0.11385   0.57609   0.00000  Uiso   1.00
C417   C     0.19665   0.07904   0.53965   0.00000  Uiso   1.00
C418   C     0.25376   0.07967   0.55714   0.00000  Uiso   1.00
C419   C     0.35985   0.06530   0.56579   0.00000  Uiso   1.00
C420   C     0.04202   0.09306   0.64423   0.00000  Uiso   1.00
C421   C     0.02023   0.04078   0.66508   0.00000  Uiso   1.00
C422   C     0.99665   0.02392   0.73993   0.00000  Uiso   1.00
C423   C     0.95391   0.97730   0.85436   0.00000  Uiso   1.00
C424   C     0.02708   0.19548   0.54168   0.00000  Uiso   1.00
C425   C     0.99270   0.22931   0.47631   0.00000  Uiso   1.00
C426   C     0.95653   0.29868   0.46482   0.00000  Uiso   1.00
C427   C     0.89058   0.41109   0.42002   0.00000  Uiso   1.00
C428   C     0.06657   0.18276   0.66129   0.00000  Uiso   1.00
C429   C     0.13616   0.14808   0.62815   0.00000  Uiso   1.00
C430   C     0.19319   0.14877   0.64570   0.00000  Uiso   1.00
C431   C     0.25205   0.11397   0.60930   0.00000  Uiso   1.00
C432   C     0.04032   0.12729   0.69630   0.00000  Uiso   1.00
C433   C     0.01676   0.11051   0.77113   0.00000  Uiso   1.00
C434   C     0.99494   0.05821   0.79209   0.00000  Uiso   1.00
C435   C     0.02538   0.22971   0.59374   0.00000  Uiso   1.00
C436   C     0.98924   0.29904   0.58236   0.00000  Uiso   1.00
C437   C     0.95482   0.33298   0.51699   0.00000  Uiso   1.00
H438   H     0.07103   0.09308   0.52490   0.00000  Uiso   1.00
H439   H     0.19795   0.05255   0.49936   0.00000  Uiso   1.00
H440   H     0.02154   0.01430   0.62477   0.00000  Uiso   1.00
H441   H     0.99403   0.20281   0.43603   0.00000  Uiso   1.00
H442   H     0.33792   0.02269   0.49404   0.00000  Uiso   1.00
H443   H     0.96594   0.94205   0.75846   0.00000  Uiso   1.00
H444   H     0.90792   0.33955   0.36046   0.00000  Uiso   1.00
H445   H     0.06525   0.20941   0.70183   0.00000  Uiso   1.00
H446   H     0.19186   0.17526   0.68600   0.00000  Uiso   1.00
H447   H     0.01545   0.13701   0.81141   0.00000  Uiso   1.00
H448   H     0.98794   0.32552   0.62266   0.00000  Uiso   1.00
H449   H     0.33298   0.12228   0.64552   0.00000  Uiso   1.00
H450   H     0.96099   0.04165   0.90994   0.00000  Uiso   1.00
H451   H     0.90297   0.43915   0.51194   0.00000  Uiso   1.00
O452   O     0.41884   0.04790   0.55619   0.00000  Uiso   1.00
O453   O     0.93081   0.94212   0.90310   0.00000  Uiso   1.00
O454   O     0.85469   0.46363   0.38093   0.00000  Uiso   1.00
N455   N     0.31938   0.05082   0.53185   0.00000  Uiso   1.00
N456   N     0.97161   0.97543   0.77907   0.00000  Uiso   1.00
N457   N     0.91735   0.34706   0.40698   0.00000  Uiso   1.00
N458   N     0.31672   0.10442   0.61336   0.00000  Uiso   1.00
N459   N     0.96895   0.02902   0.86058   0.00000  Uiso   1.00
N460   N     0.91469   0.40065   0.48849   0.00000  Uiso   1.00
C461   C     0.00588   0.56840   0.06561   0.00000  Uiso   1.00
C462   C     0.98921   0.58127   0.14426   0.00000  Uiso   1.00
C463   C     0.97774   0.53694   0.21064   0.00000  Uiso   1.00
C464   C     0.96322   0.55812   0.27680   0.00000  Uiso   1.00
C465   C     0.93775   0.56849   0.39896   0.00000  Uiso   1.00
C466   C     0.95379   0.62736   0.01507   0.00000  Uiso   1.00
C467   C     0.91255   0.62177   0.97282   0.00000  Uiso   1.00
C468   C     0.86822   0.68175   0.93022   0.00000  Uiso   1.00
C469   C     0.78780   0.76367   0.85176   0.00000  Uiso   1.00
C470   C     0.07093   0.57638   0.03714   0.00000  Uiso   1.00
C471   C     0.12817   0.52793   0.01342   0.00000  Uiso   1.00
C472   C     0.18246   0.54500   0.98938   0.00000  Uiso   1.00
C473   C     0.28391   0.54776   0.94519   0.00000  Uiso   1.00
C474   C     0.00049   0.68484   0.06507   0.00000  Uiso   1.00
C475   C     0.98628   0.64452   0.14396   0.00000  Uiso   1.00
C476   C     0.97177   0.66577   0.21004   0.00000  Uiso   1.00
C477   C     0.96029   0.62148   0.27651   0.00000  Uiso   1.00
C478   C     0.95086   0.69060   0.01477   0.00000  Uiso   1.00
C479   C     0.90659   0.75060   0.97222   0.00000  Uiso   1.00
C480   C     0.86529   0.74511   0.92992   0.00000  Uiso   1.00
C481   C     0.06800   0.63962   0.03684   0.00000  Uiso   1.00
C482   C     0.12221   0.65677   0.01283   0.00000  Uiso   1.00
C483   C     0.17953   0.60836   0.98909   0.00000  Uiso   1.00
H484   H     0.00815   0.51916   0.06584   0.00000  Uiso   1.00
H485   H     0.98000   0.48800   0.21084   0.00000  Uiso   1.00
H486   H     0.91483   0.57282   0.97305   0.00000  Uiso   1.00
H487   H     0.13042   0.47900   0.01366   0.00000  Uiso   1.00
H488   H     0.94748   0.48135   0.37147   0.00000  Uiso   1.00
H489   H     0.81008   0.66020   0.87006   0.00000  Uiso   1.00
H490   H     0.26469   0.46235   0.95568   0.00000  Uiso   1.00
H491   H     0.99820   0.73409   0.06484   0.00000  Uiso   1.00
H492   H     0.96951   0.71472   0.20979   0.00000  Uiso   1.00
H493   H     0.90434   0.79954   0.97200   0.00000  Uiso   1.00
H494   H     0.11992   0.70571   0.01261   0.00000  Uiso   1.00
H495   H     0.93896   0.66537   0.37062   0.00000  Uiso   1.00
H496   H     0.80156   0.84421   0.86921   0.00000  Uiso   1.00
H497   H     0.25617   0.64637   0.95483   0.00000  Uiso   1.00
O498   O     0.92450   0.55675   0.46641   0.00000  Uiso   1.00
O499   O     0.74425   0.79139   0.80857   0.00000  Uiso   1.00
O500   O     0.34068   0.53182   0.92091   0.00000  Uiso   1.00
N501   N     0.94942   0.52731   0.35138   0.00000  Uiso   1.00
N502   N     0.82096   0.69452   0.88260   0.00000  Uiso   1.00
N503   N     0.24597   0.50956   0.96263   0.00000  Uiso   1.00
N504   N     0.94484   0.62633   0.35092   0.00000  Uiso   1.00
N505   N     0.81637   0.79354   0.88214   0.00000  Uiso   1.00
N506   N     0.24139   0.60858   0.96217   0.00000  Uiso   1.00
C507   C     0.59553   0.16102   0.09330   0.00000  Uiso   1.00
C508   C     0.61452   0.22141   0.07640   0.00000  Uiso   1.00
C509   C     0.57520   0.28837   0.04348   0.00000  Uiso   1.00
C510   C     0.60155   0.33618   0.03275   0.00000  Uiso   1.00
C511   C     0.62140   0.43277   0.00322   0.00000  Uiso   1.00
C512   C     0.64906   0.11081   0.05264   0.00000  Uiso   1.00
C513   C     0.63879   0.08478   0.99974   0.00000  Uiso   1.00
C514   C     0.69422   0.03947   0.96902   0.00000  Uiso   1.00
C515   C     0.76770   0.96432   0.90263   0.00000  Uiso   1.00
C516   C     0.60300   0.12741   0.17791   0.00000  Uiso   1.00
C517   C     0.55400   0.11532   0.23035   0.00000  Uiso   1.00
C518   C     0.57066   0.08398   0.30510   0.00000  Uiso   1.00
C519   C     0.57262   0.03460   0.43321   0.00000  Uiso   1.00
C520   C     0.71225   0.12684   0.13279   0.00000  Uiso   1.00
C521   C     0.67792   0.20285   0.09785   0.00000  Uiso   1.00
C522   C     0.70433   0.25056   0.08717   0.00000  Uiso   1.00
C523   C     0.66506   0.31759   0.05424   0.00000  Uiso   1.00
C524   C     0.71246   0.09225   0.07408   0.00000  Uiso   1.00
C525   C     0.76792   0.04697   0.04343   0.00000  Uiso   1.00
C526   C     0.75773   0.02088   0.99050   0.00000  Uiso   1.00
C527   C     0.66640   0.10885   0.19936   0.00000  Uiso   1.00
C528   C     0.68314   0.07752   0.27404   0.00000  Uiso   1.00
C529   C     0.63417   0.06538   0.32658   0.00000  Uiso   1.00
H530   H     0.54618   0.17547   0.07660   0.00000  Uiso   1.00
H531   H     0.52614   0.30272   0.02688   0.00000  Uiso   1.00
H532   H     0.58972   0.09914   0.98316   0.00000  Uiso   1.00
H533   H     0.50495   0.12969   0.21373   0.00000  Uiso   1.00
H534   H     0.53190   0.43561   0.98120   0.00000  Uiso   1.00
H535   H     0.66595   0.00635   0.88903   0.00000  Uiso   1.00
H536   H     0.48719   0.07076   0.37523   0.00000  Uiso   1.00
H537   H     0.76161   0.11239   0.14948   0.00000  Uiso   1.00
H538   H     0.75339   0.23619   0.10377   0.00000  Uiso   1.00
H539   H     0.81697   0.03261   0.06005   0.00000  Uiso   1.00
H540   H     0.73220   0.06316   0.29062   0.00000  Uiso   1.00
H541   H     0.71635   0.38161   0.04360   0.00000  Uiso   1.00
H542   H     0.85040   0.95235   0.95143   0.00000  Uiso   1.00
H543   H     0.67164   0.01676   0.43763   0.00000  Uiso   1.00
O544   O     0.61484   0.49118   0.98099   0.00000  Uiso   1.00
O545   O     0.79071   0.92800   0.86007   0.00000  Uiso   1.00
O546   O     0.55618   0.01251   0.49796   0.00000  Uiso   1.00
N547   N     0.57643   0.40591   0.00217   0.00000  Uiso   1.00
N548   N     0.70176   0.00459   0.91599   0.00000  Uiso   1.00
N549   N     0.53464   0.06479   0.37054   0.00000  Uiso   1.00
N550   N     0.67568   0.37686   0.03575   0.00000  Uiso   1.00
N551   N     0.80101   0.97553   0.94957   0.00000  Uiso   1.00
N552   N     0.63389   0.03573   0.40412   0.00000  Uiso   1.00
