data_job_01388
_audit_creation_date              2018-12-19
_audit_creation_method            'Materials Studio'
_symmetry_space_group_name_H-M    'P1'
_symmetry_Int_Tables_number       1
_symmetry_cell_setting            triclinic
loop_
_symmetry_equiv_pos_as_xyz
  x,y,z
_cell_length_a                    12.9433
_cell_length_b                    31.4245
_cell_length_c                    11.9466
_cell_angle_alpha                 90.0000
_cell_angle_beta                  90.5771
_cell_angle_gamma                 90.0000
loop_
_atom_site_label
_atom_site_type_symbol
_atom_site_fract_x
_atom_site_fract_y
_atom_site_fract_z
_atom_site_U_iso_or_equiv
_atom_site_adp_type
_atom_site_occupancy
C1     C     0.34503   0.39355   0.52789   0.00000  Uiso   1.00
C2     C     0.44725   0.40901   0.48027   0.00000  Uiso   1.00
C3     C     0.46563   0.44910   0.43604   0.00000  Uiso   1.00
C4     C     0.56435   0.45704   0.39671   0.00000  Uiso   1.00
C5     C     0.71127   0.48576   0.32199   0.00000  Uiso   1.00
C6     C     0.31672   0.35350   0.46234   0.00000  Uiso   1.00
C7     C     0.22535   0.34693   0.40306   0.00000  Uiso   1.00
C8     C     0.21419   0.30813   0.34865   0.00000  Uiso   1.00
C9     C     0.15843   0.25067   0.24616   0.00000  Uiso   1.00
C10    C     0.36886   0.37892   0.64709   0.00000  Uiso   1.00
C11    C     0.32131   0.39371   0.74315   0.00000  Uiso   1.00
C12    C     0.35403   0.37632   0.84429   0.00000  Uiso   1.00
C13    C     0.37922   0.35833   0.02865   0.00000  Uiso   1.00
C14    C     0.48767   0.33633   0.53669   0.00000  Uiso   1.00
C15    C     0.52472   0.37793   0.48505   0.00000  Uiso   1.00
C16    C     0.62344   0.38581   0.44578   0.00000  Uiso   1.00
C17    C     0.64197   0.42591   0.40151   0.00000  Uiso   1.00
C18    C     0.39419   0.32242   0.46712   0.00000  Uiso   1.00
C19    C     0.38316   0.28363   0.41279   0.00000  Uiso   1.00
C20    C     0.29180   0.27700   0.35344   0.00000  Uiso   1.00
C21    C     0.44634   0.34785   0.65187   0.00000  Uiso   1.00
C22    C     0.47913   0.33042   0.75288   0.00000  Uiso   1.00
C23    C     0.43164   0.34518   0.84908   0.00000  Uiso   1.00
H24    H     0.28471   0.41774   0.52417   0.00000  Uiso   1.00
H25    H     0.40565   0.47314   0.43235   0.00000  Uiso   1.00
H26    H     0.16541   0.37098   0.39938   0.00000  Uiso   1.00
H27    H     0.26136   0.41776   0.73942   0.00000  Uiso   1.00
H28    H     0.57390   0.52086   0.33262   0.00000  Uiso   1.00
H29    H     0.06731   0.30544   0.26314   0.00000  Uiso   1.00
H30    H     0.26964   0.40409   0.98017   0.00000  Uiso   1.00
H31    H     0.54798   0.31214   0.54041   0.00000  Uiso   1.00
H32    H     0.68338   0.36175   0.44949   0.00000  Uiso   1.00
H33    H     0.44313   0.25959   0.41652   0.00000  Uiso   1.00
H34    H     0.53908   0.30637   0.75655   0.00000  Uiso   1.00
H35    H     0.79931   0.43045   0.34653   0.00000  Uiso   1.00
H36    H     0.29271   0.21503   0.27704   0.00000  Uiso   1.00
H37    H     0.49505   0.31368   0.99407   0.00000  Uiso   1.00
O38    O     0.77091   0.51019   0.27943   0.00000  Uiso   1.00
O39    O     0.10627   0.22756   0.18829   0.00000  Uiso   1.00
O40    O     0.37173   0.35700   0.12902   0.00000  Uiso   1.00
N41    N     0.60837   0.49278   0.34839   0.00000  Uiso   1.00
N42    N     0.13474   0.29137   0.28341   0.00000  Uiso   1.00
N43    N     0.32389   0.38359   0.95378   0.00000  Uiso   1.00
N44    N     0.72966   0.44413   0.35588   0.00000  Uiso   1.00
N45    N     0.25604   0.24272   0.29090   0.00000  Uiso   1.00
N46    N     0.44518   0.33495   0.96126   0.00000  Uiso   1.00
C47    C     0.15218   0.59844   0.93235   0.00000  Uiso   1.00
C48    C     0.05084   0.58270   0.88100   0.00000  Uiso   1.00
C49    C     0.03410   0.54276   0.83469   0.00000  Uiso   1.00
C50    C     0.93595   0.53451   0.79203   0.00000  Uiso   1.00
C51    C     0.79055   0.50541   0.71171   0.00000  Uiso   1.00
C52    C     0.17967   0.63900   0.86920   0.00000  Uiso   1.00
C53    C     0.27125   0.64640   0.81299   0.00000  Uiso   1.00
C54    C     0.28155   0.68555   0.76041   0.00000  Uiso   1.00
C55    C     0.33619   0.74388   0.66184   0.00000  Uiso   1.00
C56    C     0.12699   0.61227   0.05134   0.00000  Uiso   1.00
C57    C     0.17430   0.59720   0.14828   0.00000  Uiso   1.00
C58    C     0.14027   0.61386   0.24905   0.00000  Uiso   1.00
C59    C     0.11312   0.63067   0.43327   0.00000  Uiso   1.00
C60    C     0.00765   0.65482   0.93893   0.00000  Uiso   1.00
C61    C     0.97234   0.61332   0.88457   0.00000  Uiso   1.00
C62    C     0.87419   0.60513   0.84198   0.00000  Uiso   1.00
C63    C     0.85730   0.56519   0.79562   0.00000  Uiso   1.00
C64    C     0.10117   0.66962   0.87277   0.00000  Uiso   1.00
C65    C     0.11134   0.70878   0.82027   0.00000  Uiso   1.00
C66    C     0.20291   0.71623   0.76399   0.00000  Uiso   1.00
C67    C     0.04848   0.64289   0.05492   0.00000  Uiso   1.00
C68    C     0.01438   0.65958   0.15556   0.00000  Uiso   1.00
C69    C     0.06163   0.64453   0.25263   0.00000  Uiso   1.00
H70    H     0.21330   0.57461   0.92956   0.00000  Uiso   1.00
H71    H     0.09488   0.51907   0.83193   0.00000  Uiso   1.00
H72    H     0.33199   0.62270   0.81025   0.00000  Uiso   1.00
H73    H     0.23505   0.57351   0.14548   0.00000  Uiso   1.00
H74    H     0.92897   0.47101   0.72524   0.00000  Uiso   1.00
H75    H     0.42895   0.68952   0.67954   0.00000  Uiso   1.00
H76    H     0.22454   0.58579   0.38644   0.00000  Uiso   1.00
H77    H     0.94653   0.67867   0.94171   0.00000  Uiso   1.00
H78    H     0.81345   0.62884   0.84475   0.00000  Uiso   1.00
H79    H     0.05057   0.73247   0.82306   0.00000  Uiso   1.00
H80    H     0.95363   0.68327   0.15829   0.00000  Uiso   1.00
H81    H     0.70055   0.56010   0.73564   0.00000  Uiso   1.00
H82    H     0.20055   0.77861   0.68994   0.00000  Uiso   1.00
H83    H     0.99613   0.67488   0.39684   0.00000  Uiso   1.00
O84    O     0.73204   0.48090   0.66640   0.00000  Uiso   1.00
O85    O     0.38802   0.76758   0.60647   0.00000  Uiso   1.00
O86    O     0.11982   0.63149   0.53390   0.00000  Uiso   1.00
N87    N     0.89347   0.49881   0.74101   0.00000  Uiso   1.00
N88    N     0.36092   0.70310   0.69827   0.00000  Uiso   1.00
N89    N     0.16983   0.60613   0.35916   0.00000  Uiso   1.00
N90    N     0.77056   0.54675   0.74661   0.00000  Uiso   1.00
N91    N     0.23801   0.75104   0.70387   0.00000  Uiso   1.00
N92    N     0.04692   0.65407   0.36476   0.00000  Uiso   1.00
C93    C     0.65497   0.89355   0.97211   0.00000  Uiso   1.00
C94    C     0.55275   0.90901   0.01973   0.00000  Uiso   1.00
C95    C     0.53437   0.94910   0.06396   0.00000  Uiso   1.00
C96    C     0.43565   0.95704   0.10329   0.00000  Uiso   1.00
C97    C     0.28873   0.98576   0.17801   0.00000  Uiso   1.00
C98    C     0.68328   0.85350   0.03766   0.00000  Uiso   1.00
C99    C     0.77465   0.84693   0.09694   0.00000  Uiso   1.00
C100   C     0.78581   0.80813   0.15135   0.00000  Uiso   1.00
C101   C     0.84157   0.75067   0.25384   0.00000  Uiso   1.00
C102   C     0.63114   0.87892   0.85291   0.00000  Uiso   1.00
C103   C     0.67869   0.89371   0.75685   0.00000  Uiso   1.00
C104   C     0.64597   0.87632   0.65571   0.00000  Uiso   1.00
C105   C     0.62078   0.85833   0.47135   0.00000  Uiso   1.00
C106   C     0.51233   0.83633   0.96331   0.00000  Uiso   1.00
C107   C     0.47528   0.87793   0.01495   0.00000  Uiso   1.00
C108   C     0.37656   0.88581   0.05422   0.00000  Uiso   1.00
C109   C     0.35803   0.92591   0.09849   0.00000  Uiso   1.00
C110   C     0.60581   0.82242   0.03288   0.00000  Uiso   1.00
C111   C     0.61684   0.78363   0.08721   0.00000  Uiso   1.00
C112   C     0.70820   0.77700   0.14656   0.00000  Uiso   1.00
C113   C     0.55366   0.84785   0.84813   0.00000  Uiso   1.00
C114   C     0.52087   0.83042   0.74712   0.00000  Uiso   1.00
C115   C     0.56836   0.84518   0.65092   0.00000  Uiso   1.00
H116   H     0.71529   0.91774   0.97583   0.00000  Uiso   1.00
H117   H     0.59435   0.97314   0.06765   0.00000  Uiso   1.00
H118   H     0.83459   0.87098   0.10062   0.00000  Uiso   1.00
H119   H     0.73864   0.91776   0.76058   0.00000  Uiso   1.00
H120   H     0.42610   0.02086   0.16738   0.00000  Uiso   1.00
H121   H     0.93269   0.80544   0.23686   0.00000  Uiso   1.00
H122   H     0.73036   0.90409   0.51983   0.00000  Uiso   1.00
H123   H     0.45202   0.81214   0.95959   0.00000  Uiso   1.00
H124   H     0.31662   0.86175   0.05051   0.00000  Uiso   1.00
H125   H     0.55687   0.75959   0.08348   0.00000  Uiso   1.00
H126   H     0.46092   0.80637   0.74345   0.00000  Uiso   1.00
H127   H     0.20069   0.93045   0.15347   0.00000  Uiso   1.00
H128   H     0.70729   0.71503   0.22296   0.00000  Uiso   1.00
H129   H     0.50495   0.81368   0.50593   0.00000  Uiso   1.00
O130   O     0.22909   0.01019   0.22057   0.00000  Uiso   1.00
O131   O     0.89373   0.72756   0.31171   0.00000  Uiso   1.00
O132   O     0.62827   0.85700   0.37098   0.00000  Uiso   1.00
N133   N     0.39163   0.99278   0.15161   0.00000  Uiso   1.00
N134   N     0.86526   0.79137   0.21659   0.00000  Uiso   1.00
N135   N     0.67611   0.88359   0.54622   0.00000  Uiso   1.00
N136   N     0.27034   0.94413   0.14412   0.00000  Uiso   1.00
N137   N     0.74396   0.74272   0.20910   0.00000  Uiso   1.00
N138   N     0.55482   0.83495   0.53874   0.00000  Uiso   1.00
C139   C     0.84782   0.09844   0.56765   0.00000  Uiso   1.00
C140   C     0.94916   0.08270   0.61900   0.00000  Uiso   1.00
C141   C     0.96590   0.04276   0.66531   0.00000  Uiso   1.00
C142   C     0.06405   0.03451   0.70797   0.00000  Uiso   1.00
C143   C     0.20945   0.00541   0.78829   0.00000  Uiso   1.00
C144   C     0.82033   0.13900   0.63080   0.00000  Uiso   1.00
C145   C     0.72875   0.14640   0.68701   0.00000  Uiso   1.00
C146   C     0.71845   0.18555   0.73959   0.00000  Uiso   1.00
C147   C     0.66381   0.24388   0.83816   0.00000  Uiso   1.00
C148   C     0.87301   0.11227   0.44866   0.00000  Uiso   1.00
C149   C     0.82570   0.09720   0.35172   0.00000  Uiso   1.00
C150   C     0.85973   0.11386   0.25095   0.00000  Uiso   1.00
C151   C     0.88688   0.13067   0.06673   0.00000  Uiso   1.00
C152   C     0.99235   0.15482   0.56107   0.00000  Uiso   1.00
C153   C     0.02766   0.11332   0.61543   0.00000  Uiso   1.00
C154   C     0.12581   0.10513   0.65802   0.00000  Uiso   1.00
C155   C     0.14270   0.06519   0.70438   0.00000  Uiso   1.00
C156   C     0.89883   0.16962   0.62723   0.00000  Uiso   1.00
C157   C     0.88866   0.20878   0.67973   0.00000  Uiso   1.00
C158   C     0.79709   0.21623   0.73601   0.00000  Uiso   1.00
C159   C     0.95152   0.14289   0.44508   0.00000  Uiso   1.00
C160   C     0.98562   0.15958   0.34444   0.00000  Uiso   1.00
C161   C     0.93837   0.14453   0.24737   0.00000  Uiso   1.00
H162   H     0.78670   0.07461   0.57044   0.00000  Uiso   1.00
H163   H     0.90512   0.01907   0.66807   0.00000  Uiso   1.00
H164   H     0.66801   0.12270   0.68975   0.00000  Uiso   1.00
H165   H     0.76495   0.07351   0.35452   0.00000  Uiso   1.00
H166   H     0.07103   0.97101   0.77476   0.00000  Uiso   1.00
H167   H     0.57105   0.18952   0.82046   0.00000  Uiso   1.00
H168   H     0.77546   0.08579   0.11356   0.00000  Uiso   1.00
H169   H     0.05347   0.17867   0.55829   0.00000  Uiso   1.00
H170   H     0.18655   0.12884   0.65525   0.00000  Uiso   1.00
H171   H     0.94943   0.23247   0.67694   0.00000  Uiso   1.00
H172   H     0.04637   0.18327   0.34171   0.00000  Uiso   1.00
H173   H     0.29945   0.06010   0.76436   0.00000  Uiso   1.00
H174   H     0.79945   0.27861   0.81006   0.00000  Uiso   1.00
H175   H     0.00387   0.17488   0.10316   0.00000  Uiso   1.00
O176   O     0.26796   0.98090   0.83360   0.00000  Uiso   1.00
O177   O     0.61198   0.26758   0.89353   0.00000  Uiso   1.00
O178   O     0.88018   0.13149   0.96610   0.00000  Uiso   1.00
N179   N     0.10653   0.99881   0.75899   0.00000  Uiso   1.00
N180   N     0.63908   0.20310   0.80173   0.00000  Uiso   1.00
N181   N     0.83017   0.10613   0.14084   0.00000  Uiso   1.00
N182   N     0.22944   0.04675   0.75339   0.00000  Uiso   1.00
N183   N     0.76199   0.25104   0.79613   0.00000  Uiso   1.00
N184   N     0.95308   0.15407   0.13524   0.00000  Uiso   1.00
C185   C     0.65497   0.60645   0.47211   0.00000  Uiso   1.00
C186   C     0.55275   0.59099   0.51973   0.00000  Uiso   1.00
C187   C     0.53437   0.55090   0.56396   0.00000  Uiso   1.00
C188   C     0.43565   0.54296   0.60329   0.00000  Uiso   1.00
C189   C     0.28873   0.51424   0.67801   0.00000  Uiso   1.00
C190   C     0.68328   0.64650   0.53766   0.00000  Uiso   1.00
C191   C     0.77465   0.65307   0.59694   0.00000  Uiso   1.00
C192   C     0.78581   0.69187   0.65135   0.00000  Uiso   1.00
C193   C     0.84157   0.74933   0.75384   0.00000  Uiso   1.00
C194   C     0.63114   0.62108   0.35291   0.00000  Uiso   1.00
C195   C     0.67869   0.60629   0.25685   0.00000  Uiso   1.00
C196   C     0.64597   0.62368   0.15571   0.00000  Uiso   1.00
C197   C     0.62078   0.64167   0.97135   0.00000  Uiso   1.00
C198   C     0.51233   0.66367   0.46331   0.00000  Uiso   1.00
C199   C     0.47528   0.62207   0.51495   0.00000  Uiso   1.00
C200   C     0.37656   0.61419   0.55422   0.00000  Uiso   1.00
C201   C     0.35803   0.57409   0.59849   0.00000  Uiso   1.00
C202   C     0.60581   0.67758   0.53288   0.00000  Uiso   1.00
C203   C     0.61684   0.71637   0.58721   0.00000  Uiso   1.00
C204   C     0.70820   0.72300   0.64656   0.00000  Uiso   1.00
C205   C     0.55366   0.65215   0.34813   0.00000  Uiso   1.00
C206   C     0.52087   0.66958   0.24712   0.00000  Uiso   1.00
C207   C     0.56836   0.65482   0.15092   0.00000  Uiso   1.00
H208   H     0.71529   0.58226   0.47583   0.00000  Uiso   1.00
H209   H     0.59435   0.52686   0.56765   0.00000  Uiso   1.00
H210   H     0.83459   0.62902   0.60062   0.00000  Uiso   1.00
H211   H     0.73864   0.58224   0.26058   0.00000  Uiso   1.00
H212   H     0.42610   0.47914   0.66738   0.00000  Uiso   1.00
H213   H     0.93269   0.69456   0.73686   0.00000  Uiso   1.00
H214   H     0.73036   0.59591   0.01983   0.00000  Uiso   1.00
H215   H     0.45202   0.68786   0.45959   0.00000  Uiso   1.00
H216   H     0.31662   0.63825   0.55051   0.00000  Uiso   1.00
H217   H     0.55687   0.74041   0.58348   0.00000  Uiso   1.00
H218   H     0.46092   0.69363   0.24345   0.00000  Uiso   1.00
H219   H     0.20069   0.56955   0.65347   0.00000  Uiso   1.00
H220   H     0.70729   0.78497   0.72296   0.00000  Uiso   1.00
H221   H     0.50495   0.68632   0.00593   0.00000  Uiso   1.00
O222   O     0.22909   0.48981   0.72057   0.00000  Uiso   1.00
O223   O     0.89373   0.77244   0.81171   0.00000  Uiso   1.00
O224   O     0.62827   0.64300   0.87098   0.00000  Uiso   1.00
N225   N     0.39163   0.50722   0.65161   0.00000  Uiso   1.00
N226   N     0.86526   0.70863   0.71659   0.00000  Uiso   1.00
N227   N     0.67611   0.61641   0.04622   0.00000  Uiso   1.00
N228   N     0.27034   0.55587   0.64412   0.00000  Uiso   1.00
N229   N     0.74396   0.75728   0.70910   0.00000  Uiso   1.00
N230   N     0.55482   0.66505   0.03874   0.00000  Uiso   1.00
C231   C     0.84782   0.40156   0.06765   0.00000  Uiso   1.00
C232   C     0.94916   0.41730   0.11900   0.00000  Uiso   1.00
C233   C     0.96590   0.45724   0.16531   0.00000  Uiso   1.00
C234   C     0.06405   0.46549   0.20797   0.00000  Uiso   1.00
C235   C     0.20945   0.49459   0.28829   0.00000  Uiso   1.00
C236   C     0.82033   0.36100   0.13080   0.00000  Uiso   1.00
C237   C     0.72875   0.35360   0.18701   0.00000  Uiso   1.00
C238   C     0.71845   0.31445   0.23959   0.00000  Uiso   1.00
C239   C     0.66381   0.25612   0.33816   0.00000  Uiso   1.00
C240   C     0.87301   0.38773   0.94866   0.00000  Uiso   1.00
C241   C     0.82570   0.40280   0.85172   0.00000  Uiso   1.00
C242   C     0.85973   0.38614   0.75095   0.00000  Uiso   1.00
C243   C     0.88688   0.36933   0.56673   0.00000  Uiso   1.00
C244   C     0.99235   0.34518   0.06107   0.00000  Uiso   1.00
C245   C     0.02766   0.38668   0.11543   0.00000  Uiso   1.00
C246   C     0.12581   0.39487   0.15802   0.00000  Uiso   1.00
C247   C     0.14270   0.43481   0.20438   0.00000  Uiso   1.00
C248   C     0.89883   0.33038   0.12723   0.00000  Uiso   1.00
C249   C     0.88866   0.29122   0.17973   0.00000  Uiso   1.00
C250   C     0.79709   0.28377   0.23601   0.00000  Uiso   1.00
C251   C     0.95152   0.35711   0.94508   0.00000  Uiso   1.00
C252   C     0.98562   0.34042   0.84444   0.00000  Uiso   1.00
C253   C     0.93837   0.35547   0.74737   0.00000  Uiso   1.00
H254   H     0.78670   0.42539   0.07044   0.00000  Uiso   1.00
H255   H     0.90512   0.48093   0.16807   0.00000  Uiso   1.00
H256   H     0.66801   0.37730   0.18975   0.00000  Uiso   1.00
H257   H     0.76495   0.42649   0.85452   0.00000  Uiso   1.00
H258   H     0.07103   0.52899   0.27476   0.00000  Uiso   1.00
H259   H     0.57105   0.31048   0.32046   0.00000  Uiso   1.00
H260   H     0.77546   0.41421   0.61356   0.00000  Uiso   1.00
H261   H     0.05347   0.32133   0.05829   0.00000  Uiso   1.00
H262   H     0.18655   0.37116   0.15525   0.00000  Uiso   1.00
H263   H     0.94943   0.26753   0.17694   0.00000  Uiso   1.00
H264   H     0.04637   0.31673   0.84171   0.00000  Uiso   1.00
H265   H     0.29945   0.43990   0.26436   0.00000  Uiso   1.00
H266   H     0.79945   0.22139   0.31006   0.00000  Uiso   1.00
H267   H     0.00387   0.32512   0.60316   0.00000  Uiso   1.00
O268   O     0.26796   0.51910   0.33360   0.00000  Uiso   1.00
O269   O     0.61198   0.23242   0.39353   0.00000  Uiso   1.00
O270   O     0.88018   0.36851   0.46610   0.00000  Uiso   1.00
N271   N     0.10653   0.50119   0.25899   0.00000  Uiso   1.00
N272   N     0.63908   0.29690   0.30173   0.00000  Uiso   1.00
N273   N     0.83017   0.39387   0.64084   0.00000  Uiso   1.00
N274   N     0.22944   0.45325   0.25339   0.00000  Uiso   1.00
N275   N     0.76199   0.24896   0.29613   0.00000  Uiso   1.00
N276   N     0.95308   0.34593   0.63524   0.00000  Uiso   1.00
C277   C     0.34503   0.10645   0.02789   0.00000  Uiso   1.00
C278   C     0.44725   0.09099   0.98027   0.00000  Uiso   1.00
C279   C     0.46563   0.05090   0.93604   0.00000  Uiso   1.00
C280   C     0.56435   0.04296   0.89671   0.00000  Uiso   1.00
C281   C     0.71127   0.01424   0.82199   0.00000  Uiso   1.00
C282   C     0.31672   0.14650   0.96234   0.00000  Uiso   1.00
C283   C     0.22535   0.15307   0.90306   0.00000  Uiso   1.00
C284   C     0.21419   0.19187   0.84865   0.00000  Uiso   1.00
C285   C     0.15843   0.24933   0.74616   0.00000  Uiso   1.00
C286   C     0.36886   0.12108   0.14709   0.00000  Uiso   1.00
C287   C     0.32131   0.10629   0.24315   0.00000  Uiso   1.00
C288   C     0.35403   0.12368   0.34429   0.00000  Uiso   1.00
C289   C     0.37922   0.14167   0.52865   0.00000  Uiso   1.00
C290   C     0.48767   0.16367   0.03669   0.00000  Uiso   1.00
C291   C     0.52472   0.12207   0.98505   0.00000  Uiso   1.00
C292   C     0.62344   0.11419   0.94578   0.00000  Uiso   1.00
C293   C     0.64197   0.07409   0.90151   0.00000  Uiso   1.00
C294   C     0.39419   0.17758   0.96712   0.00000  Uiso   1.00
C295   C     0.38316   0.21637   0.91279   0.00000  Uiso   1.00
C296   C     0.29180   0.22300   0.85344   0.00000  Uiso   1.00
C297   C     0.44634   0.15215   0.15187   0.00000  Uiso   1.00
C298   C     0.47913   0.16958   0.25288   0.00000  Uiso   1.00
C299   C     0.43164   0.15482   0.34908   0.00000  Uiso   1.00
H300   H     0.28471   0.08226   0.02417   0.00000  Uiso   1.00
H301   H     0.40565   0.02686   0.93235   0.00000  Uiso   1.00
H302   H     0.16541   0.12902   0.89938   0.00000  Uiso   1.00
H303   H     0.26136   0.08224   0.23942   0.00000  Uiso   1.00
H304   H     0.57390   0.97914   0.83262   0.00000  Uiso   1.00
H305   H     0.06731   0.19456   0.76314   0.00000  Uiso   1.00
H306   H     0.26964   0.09591   0.48017   0.00000  Uiso   1.00
H307   H     0.54798   0.18786   0.04041   0.00000  Uiso   1.00
H308   H     0.68338   0.13825   0.94949   0.00000  Uiso   1.00
H309   H     0.44313   0.24041   0.91652   0.00000  Uiso   1.00
H310   H     0.53908   0.19363   0.25655   0.00000  Uiso   1.00
H311   H     0.79931   0.06955   0.84653   0.00000  Uiso   1.00
H312   H     0.29271   0.28497   0.77704   0.00000  Uiso   1.00
H313   H     0.49505   0.18632   0.49407   0.00000  Uiso   1.00
O314   O     0.77091   0.98981   0.77943   0.00000  Uiso   1.00
O315   O     0.10627   0.27244   0.68829   0.00000  Uiso   1.00
O316   O     0.37173   0.14300   0.62902   0.00000  Uiso   1.00
N317   N     0.60837   0.00722   0.84839   0.00000  Uiso   1.00
N318   N     0.13474   0.20863   0.78341   0.00000  Uiso   1.00
N319   N     0.32389   0.11641   0.45378   0.00000  Uiso   1.00
N320   N     0.72966   0.05587   0.85588   0.00000  Uiso   1.00
N321   N     0.25604   0.25728   0.79090   0.00000  Uiso   1.00
N322   N     0.44518   0.16505   0.46126   0.00000  Uiso   1.00
C323   C     0.15218   0.90156   0.43235   0.00000  Uiso   1.00
C324   C     0.05084   0.91730   0.38100   0.00000  Uiso   1.00
C325   C     0.03410   0.95724   0.33469   0.00000  Uiso   1.00
C326   C     0.93595   0.96549   0.29203   0.00000  Uiso   1.00
C327   C     0.79055   0.99459   0.21171   0.00000  Uiso   1.00
C328   C     0.17967   0.86100   0.36920   0.00000  Uiso   1.00
C329   C     0.27125   0.85360   0.31299   0.00000  Uiso   1.00
C330   C     0.28155   0.81445   0.26041   0.00000  Uiso   1.00
C331   C     0.33619   0.75612   0.16184   0.00000  Uiso   1.00
C332   C     0.12699   0.88773   0.55134   0.00000  Uiso   1.00
C333   C     0.17430   0.90280   0.64828   0.00000  Uiso   1.00
C334   C     0.14027   0.88614   0.74905   0.00000  Uiso   1.00
C335   C     0.11312   0.86933   0.93327   0.00000  Uiso   1.00
C336   C     0.00765   0.84518   0.43893   0.00000  Uiso   1.00
C337   C     0.97234   0.88668   0.38457   0.00000  Uiso   1.00
C338   C     0.87419   0.89487   0.34198   0.00000  Uiso   1.00
C339   C     0.85730   0.93481   0.29562   0.00000  Uiso   1.00
C340   C     0.10117   0.83038   0.37277   0.00000  Uiso   1.00
C341   C     0.11134   0.79122   0.32027   0.00000  Uiso   1.00
C342   C     0.20291   0.78377   0.26399   0.00000  Uiso   1.00
C343   C     0.04848   0.85711   0.55492   0.00000  Uiso   1.00
C344   C     0.01438   0.84042   0.65556   0.00000  Uiso   1.00
C345   C     0.06163   0.85547   0.75263   0.00000  Uiso   1.00
H346   H     0.21330   0.92539   0.42956   0.00000  Uiso   1.00
H347   H     0.09488   0.98093   0.33193   0.00000  Uiso   1.00
H348   H     0.33199   0.87730   0.31025   0.00000  Uiso   1.00
H349   H     0.23505   0.92649   0.64548   0.00000  Uiso   1.00
H350   H     0.92897   0.02899   0.22524   0.00000  Uiso   1.00
H351   H     0.42895   0.81048   0.17954   0.00000  Uiso   1.00
H352   H     0.22454   0.91421   0.88644   0.00000  Uiso   1.00
H353   H     0.94653   0.82133   0.44171   0.00000  Uiso   1.00
H354   H     0.81345   0.87116   0.34475   0.00000  Uiso   1.00
H355   H     0.05057   0.76753   0.32306   0.00000  Uiso   1.00
H356   H     0.95363   0.81673   0.65829   0.00000  Uiso   1.00
H357   H     0.70055   0.93990   0.23564   0.00000  Uiso   1.00
H358   H     0.20055   0.72139   0.18994   0.00000  Uiso   1.00
H359   H     0.99613   0.82512   0.89684   0.00000  Uiso   1.00
O360   O     0.73204   0.01910   0.16640   0.00000  Uiso   1.00
O361   O     0.38802   0.73242   0.10647   0.00000  Uiso   1.00
O362   O     0.11982   0.86851   0.03390   0.00000  Uiso   1.00
N363   N     0.89347   0.00119   0.24101   0.00000  Uiso   1.00
N364   N     0.36092   0.79690   0.19827   0.00000  Uiso   1.00
N365   N     0.16983   0.89387   0.85916   0.00000  Uiso   1.00
N366   N     0.77056   0.95325   0.24661   0.00000  Uiso   1.00
N367   N     0.23801   0.74896   0.20387   0.00000  Uiso   1.00
N368   N     0.04692   0.84593   0.86476   0.00000  Uiso   1.00
