data_job_05603
_audit_creation_date              2018-12-19
_audit_creation_method            'Materials Studio'
_symmetry_space_group_name_H-M    'P1'
_symmetry_Int_Tables_number       1
_symmetry_cell_setting            triclinic
loop_
_symmetry_equiv_pos_as_xyz
  x,y,z
_cell_length_a                    10.7009
_cell_length_b                    22.8241
_cell_length_c                    27.9029
_cell_angle_alpha                 90.0000
_cell_angle_beta                  90.0000
_cell_angle_gamma                 90.0000
loop_
_atom_site_label
_atom_site_type_symbol
_atom_site_fract_x
_atom_site_fract_y
_atom_site_fract_z
_atom_site_U_iso_or_equiv
_atom_site_adp_type
_atom_site_occupancy
C1     C     0.17827   0.78096   0.97416   0.00000  Uiso   1.00
C2     C     0.10087   0.72737   0.96061   0.00000  Uiso   1.00
C3     C     0.10542   0.67316   0.98307   0.00000  Uiso   1.00
C4     C     0.02722   0.62975   0.96531   0.00000  Uiso   1.00
C5     C     0.91923   0.54493   0.95015   0.00000  Uiso   1.00
C6     C     0.24843   0.79880   0.92889   0.00000  Uiso   1.00
C7     C     0.37706   0.80467   0.92469   0.00000  Uiso   1.00
C8     C     0.42308   0.82141   0.88022   0.00000  Uiso   1.00
C9     C     0.54418   0.84754   0.81584   0.00000  Uiso   1.00
C10    C     0.08479   0.82993   0.98399   0.00000  Uiso   1.00
C11    C     0.07584   0.86199   0.02611   0.00000  Uiso   1.00
C12    C     0.98410   0.90495   0.02804   0.00000  Uiso   1.00
C13    C     0.85112   0.97941   0.04920   0.00000  Uiso   1.00
C14    C     0.03129   0.80026   0.90266   0.00000  Uiso   1.00
C15    C     0.02104   0.73785   0.92177   0.00000  Uiso   1.00
C16    C     0.94280   0.69451   0.90397   0.00000  Uiso   1.00
C17    C     0.94724   0.64025   0.92640   0.00000  Uiso   1.00
C18    C     0.16861   0.80929   0.89005   0.00000  Uiso   1.00
C19    C     0.21444   0.82602   0.84559   0.00000  Uiso   1.00
C20    C     0.34310   0.83191   0.84132   0.00000  Uiso   1.00
C21    C     0.00496   0.84042   0.94516   0.00000  Uiso   1.00
C22    C     0.91322   0.88334   0.94701   0.00000  Uiso   1.00
C23    C     0.90413   0.91545   0.98913   0.00000  Uiso   1.00
H24    H     0.24043   0.77280   0.00439   0.00000  Uiso   1.00
H25    H     0.16722   0.66506   0.01312   0.00000  Uiso   1.00
H26    H     0.43881   0.79656   0.95475   0.00000  Uiso   1.00
H27    H     0.13764   0.85387   0.05616   0.00000  Uiso   1.00
H28    H     0.05089   0.55024   0.00566   0.00000  Uiso   1.00
H29    H     0.62355   0.82752   0.88258   0.00000  Uiso   1.00
H30    H     0.98847   0.94836   0.09643   0.00000  Uiso   1.00
H31    H     0.96914   0.80842   0.87243   0.00000  Uiso   1.00
H32    H     0.88104   0.70264   0.87392   0.00000  Uiso   1.00
H33    H     0.15264   0.83413   0.81554   0.00000  Uiso   1.00
H34    H     0.85146   0.89144   0.91695   0.00000  Uiso   1.00
H35    H     0.81862   0.58073   0.89267   0.00000  Uiso   1.00
H36    H     0.39128   0.85802   0.76960   0.00000  Uiso   1.00
H37    H     0.75619   0.97886   0.98344   0.00000  Uiso   1.00
O38    O     0.88172   0.49525   0.95251   0.00000  Uiso   1.00
O39    O     0.63303   0.85904   0.79105   0.00000  Uiso   1.00
O40    O     0.79982   0.01758   0.07161   0.00000  Uiso   1.00
N41    N     0.00829   0.57193   0.97887   0.00000  Uiso   1.00
N42    N     0.54370   0.83117   0.86380   0.00000  Uiso   1.00
N43    N     0.94998   0.94416   0.06372   0.00000  Uiso   1.00
N44    N     0.88331   0.58834   0.91807   0.00000  Uiso   1.00
N45    N     0.41872   0.84758   0.80300   0.00000  Uiso   1.00
N46    N     0.82499   0.96056   0.00292   0.00000  Uiso   1.00
C47    C     0.32173   0.71904   0.47416   0.00000  Uiso   1.00
C48    C     0.39913   0.77263   0.46061   0.00000  Uiso   1.00
C49    C     0.39458   0.82684   0.48307   0.00000  Uiso   1.00
C50    C     0.47278   0.87025   0.46531   0.00000  Uiso   1.00
C51    C     0.58077   0.95507   0.45015   0.00000  Uiso   1.00
C52    C     0.25157   0.70120   0.42889   0.00000  Uiso   1.00
C53    C     0.12294   0.69533   0.42469   0.00000  Uiso   1.00
C54    C     0.07692   0.67859   0.38022   0.00000  Uiso   1.00
C55    C     0.95582   0.65246   0.31584   0.00000  Uiso   1.00
C56    C     0.41521   0.67007   0.48399   0.00000  Uiso   1.00
C57    C     0.42416   0.63801   0.52611   0.00000  Uiso   1.00
C58    C     0.51590   0.59505   0.52804   0.00000  Uiso   1.00
C59    C     0.64888   0.52059   0.54920   0.00000  Uiso   1.00
C60    C     0.46871   0.69974   0.40266   0.00000  Uiso   1.00
C61    C     0.47896   0.76215   0.42177   0.00000  Uiso   1.00
C62    C     0.55720   0.80549   0.40397   0.00000  Uiso   1.00
C63    C     0.55276   0.85975   0.42640   0.00000  Uiso   1.00
C64    C     0.33139   0.69071   0.39005   0.00000  Uiso   1.00
C65    C     0.28556   0.67398   0.34559   0.00000  Uiso   1.00
C66    C     0.15690   0.66809   0.34132   0.00000  Uiso   1.00
C67    C     0.49504   0.65958   0.44516   0.00000  Uiso   1.00
C68    C     0.58678   0.61666   0.44701   0.00000  Uiso   1.00
C69    C     0.59587   0.58455   0.48913   0.00000  Uiso   1.00
H70    H     0.25957   0.72720   0.50439   0.00000  Uiso   1.00
H71    H     0.33278   0.83494   0.51312   0.00000  Uiso   1.00
H72    H     0.06119   0.70344   0.45475   0.00000  Uiso   1.00
H73    H     0.36236   0.64613   0.55616   0.00000  Uiso   1.00
H74    H     0.44911   0.94976   0.50566   0.00000  Uiso   1.00
H75    H     0.87645   0.67248   0.38258   0.00000  Uiso   1.00
H76    H     0.51153   0.55164   0.59643   0.00000  Uiso   1.00
H77    H     0.53086   0.69158   0.37243   0.00000  Uiso   1.00
H78    H     0.61896   0.79736   0.37392   0.00000  Uiso   1.00
H79    H     0.34736   0.66587   0.31554   0.00000  Uiso   1.00
H80    H     0.64854   0.60856   0.41695   0.00000  Uiso   1.00
H81    H     0.68138   0.91927   0.39267   0.00000  Uiso   1.00
H82    H     0.10872   0.64198   0.26960   0.00000  Uiso   1.00
H83    H     0.74381   0.52114   0.48344   0.00000  Uiso   1.00
O84    O     0.61828   0.00475   0.45251   0.00000  Uiso   1.00
O85    O     0.86697   0.64096   0.29105   0.00000  Uiso   1.00
O86    O     0.70018   0.48242   0.57161   0.00000  Uiso   1.00
N87    N     0.49171   0.92807   0.47887   0.00000  Uiso   1.00
N88    N     0.95630   0.66883   0.36380   0.00000  Uiso   1.00
N89    N     0.55002   0.55584   0.56372   0.00000  Uiso   1.00
N90    N     0.61669   0.91166   0.41807   0.00000  Uiso   1.00
N91    N     0.08128   0.65242   0.30300   0.00000  Uiso   1.00
N92    N     0.67501   0.53944   0.50292   0.00000  Uiso   1.00
C93    C     0.82173   0.78096   0.52584   0.00000  Uiso   1.00
C94    C     0.89913   0.72737   0.53939   0.00000  Uiso   1.00
C95    C     0.89458   0.67316   0.51693   0.00000  Uiso   1.00
C96    C     0.97278   0.62975   0.53469   0.00000  Uiso   1.00
C97    C     0.08077   0.54493   0.54985   0.00000  Uiso   1.00
C98    C     0.75157   0.79880   0.57111   0.00000  Uiso   1.00
C99    C     0.62294   0.80467   0.57531   0.00000  Uiso   1.00
C100   C     0.57692   0.82141   0.61978   0.00000  Uiso   1.00
C101   C     0.45582   0.84754   0.68416   0.00000  Uiso   1.00
C102   C     0.91521   0.82993   0.51601   0.00000  Uiso   1.00
C103   C     0.92416   0.86199   0.47389   0.00000  Uiso   1.00
C104   C     0.01590   0.90495   0.47196   0.00000  Uiso   1.00
C105   C     0.14888   0.97941   0.45080   0.00000  Uiso   1.00
C106   C     0.96871   0.80026   0.59734   0.00000  Uiso   1.00
C107   C     0.97896   0.73785   0.57823   0.00000  Uiso   1.00
C108   C     0.05720   0.69451   0.59603   0.00000  Uiso   1.00
C109   C     0.05276   0.64025   0.57360   0.00000  Uiso   1.00
C110   C     0.83139   0.80929   0.60995   0.00000  Uiso   1.00
C111   C     0.78556   0.82602   0.65441   0.00000  Uiso   1.00
C112   C     0.65690   0.83191   0.65868   0.00000  Uiso   1.00
C113   C     0.99504   0.84042   0.55484   0.00000  Uiso   1.00
C114   C     0.08678   0.88334   0.55299   0.00000  Uiso   1.00
C115   C     0.09587   0.91545   0.51087   0.00000  Uiso   1.00
H116   H     0.75957   0.77280   0.49561   0.00000  Uiso   1.00
H117   H     0.83278   0.66506   0.48688   0.00000  Uiso   1.00
H118   H     0.56119   0.79656   0.54525   0.00000  Uiso   1.00
H119   H     0.86236   0.85387   0.44384   0.00000  Uiso   1.00
H120   H     0.94911   0.55024   0.49434   0.00000  Uiso   1.00
H121   H     0.37645   0.82752   0.61742   0.00000  Uiso   1.00
H122   H     0.01153   0.94836   0.40357   0.00000  Uiso   1.00
H123   H     0.03086   0.80842   0.62757   0.00000  Uiso   1.00
H124   H     0.11896   0.70264   0.62608   0.00000  Uiso   1.00
H125   H     0.84736   0.83413   0.68446   0.00000  Uiso   1.00
H126   H     0.14854   0.89144   0.58305   0.00000  Uiso   1.00
H127   H     0.18138   0.58073   0.60733   0.00000  Uiso   1.00
H128   H     0.60872   0.85802   0.73040   0.00000  Uiso   1.00
H129   H     0.24381   0.97886   0.51656   0.00000  Uiso   1.00
O130   O     0.11828   0.49525   0.54749   0.00000  Uiso   1.00
O131   O     0.36697   0.85904   0.70895   0.00000  Uiso   1.00
O132   O     0.20018   0.01758   0.42839   0.00000  Uiso   1.00
N133   N     0.99171   0.57193   0.52113   0.00000  Uiso   1.00
N134   N     0.45630   0.83117   0.63620   0.00000  Uiso   1.00
N135   N     0.05002   0.94416   0.43628   0.00000  Uiso   1.00
N136   N     0.11669   0.58834   0.58193   0.00000  Uiso   1.00
N137   N     0.58128   0.84758   0.69700   0.00000  Uiso   1.00
N138   N     0.17501   0.96056   0.49708   0.00000  Uiso   1.00
C139   C     0.67827   0.71904   0.02584   0.00000  Uiso   1.00
C140   C     0.60087   0.77263   0.03939   0.00000  Uiso   1.00
C141   C     0.60542   0.82684   0.01693   0.00000  Uiso   1.00
C142   C     0.52722   0.87025   0.03469   0.00000  Uiso   1.00
C143   C     0.41923   0.95507   0.04985   0.00000  Uiso   1.00
C144   C     0.74843   0.70120   0.07111   0.00000  Uiso   1.00
C145   C     0.87706   0.69533   0.07531   0.00000  Uiso   1.00
C146   C     0.92308   0.67859   0.11978   0.00000  Uiso   1.00
C147   C     0.04418   0.65246   0.18416   0.00000  Uiso   1.00
C148   C     0.58479   0.67007   0.01601   0.00000  Uiso   1.00
C149   C     0.57584   0.63801   0.97389   0.00000  Uiso   1.00
C150   C     0.48410   0.59505   0.97196   0.00000  Uiso   1.00
C151   C     0.35112   0.52059   0.95080   0.00000  Uiso   1.00
C152   C     0.53129   0.69974   0.09734   0.00000  Uiso   1.00
C153   C     0.52104   0.76215   0.07823   0.00000  Uiso   1.00
C154   C     0.44280   0.80549   0.09603   0.00000  Uiso   1.00
C155   C     0.44724   0.85975   0.07360   0.00000  Uiso   1.00
C156   C     0.66861   0.69071   0.10995   0.00000  Uiso   1.00
C157   C     0.71444   0.67398   0.15441   0.00000  Uiso   1.00
C158   C     0.84310   0.66809   0.15868   0.00000  Uiso   1.00
C159   C     0.50496   0.65958   0.05484   0.00000  Uiso   1.00
C160   C     0.41322   0.61666   0.05299   0.00000  Uiso   1.00
C161   C     0.40413   0.58455   0.01087   0.00000  Uiso   1.00
H162   H     0.74043   0.72720   0.99561   0.00000  Uiso   1.00
H163   H     0.66722   0.83494   0.98688   0.00000  Uiso   1.00
H164   H     0.93881   0.70344   0.04525   0.00000  Uiso   1.00
H165   H     0.63764   0.64613   0.94384   0.00000  Uiso   1.00
H166   H     0.55089   0.94976   0.99434   0.00000  Uiso   1.00
H167   H     0.12355   0.67248   0.11742   0.00000  Uiso   1.00
H168   H     0.48847   0.55164   0.90357   0.00000  Uiso   1.00
H169   H     0.46914   0.69158   0.12757   0.00000  Uiso   1.00
H170   H     0.38104   0.79736   0.12608   0.00000  Uiso   1.00
H171   H     0.65264   0.66587   0.18446   0.00000  Uiso   1.00
H172   H     0.35146   0.60856   0.08305   0.00000  Uiso   1.00
H173   H     0.31862   0.91927   0.10733   0.00000  Uiso   1.00
H174   H     0.89128   0.64198   0.23040   0.00000  Uiso   1.00
H175   H     0.25619   0.52114   0.01656   0.00000  Uiso   1.00
O176   O     0.38172   0.00475   0.04749   0.00000  Uiso   1.00
O177   O     0.13303   0.64096   0.20895   0.00000  Uiso   1.00
O178   O     0.29982   0.48242   0.92839   0.00000  Uiso   1.00
N179   N     0.50829   0.92807   0.02113   0.00000  Uiso   1.00
N180   N     0.04370   0.66883   0.13620   0.00000  Uiso   1.00
N181   N     0.44998   0.55584   0.93628   0.00000  Uiso   1.00
N182   N     0.38331   0.91166   0.08193   0.00000  Uiso   1.00
N183   N     0.91872   0.65242   0.19700   0.00000  Uiso   1.00
N184   N     0.32499   0.53944   0.99708   0.00000  Uiso   1.00
C185   C     0.82173   0.21904   0.02584   0.00000  Uiso   1.00
C186   C     0.89913   0.27263   0.03939   0.00000  Uiso   1.00
C187   C     0.89458   0.32684   0.01693   0.00000  Uiso   1.00
C188   C     0.97278   0.37025   0.03469   0.00000  Uiso   1.00
C189   C     0.08077   0.45507   0.04985   0.00000  Uiso   1.00
C190   C     0.75157   0.20120   0.07111   0.00000  Uiso   1.00
C191   C     0.62294   0.19533   0.07531   0.00000  Uiso   1.00
C192   C     0.57692   0.17859   0.11978   0.00000  Uiso   1.00
C193   C     0.45582   0.15246   0.18416   0.00000  Uiso   1.00
C194   C     0.91521   0.17007   0.01601   0.00000  Uiso   1.00
C195   C     0.92416   0.13801   0.97389   0.00000  Uiso   1.00
C196   C     0.01590   0.09505   0.97196   0.00000  Uiso   1.00
C197   C     0.14888   0.02059   0.95080   0.00000  Uiso   1.00
C198   C     0.96871   0.19974   0.09734   0.00000  Uiso   1.00
C199   C     0.97896   0.26215   0.07823   0.00000  Uiso   1.00
C200   C     0.05720   0.30549   0.09603   0.00000  Uiso   1.00
C201   C     0.05276   0.35975   0.07360   0.00000  Uiso   1.00
C202   C     0.83139   0.19071   0.10995   0.00000  Uiso   1.00
C203   C     0.78556   0.17398   0.15441   0.00000  Uiso   1.00
C204   C     0.65690   0.16809   0.15868   0.00000  Uiso   1.00
C205   C     0.99504   0.15958   0.05484   0.00000  Uiso   1.00
C206   C     0.08678   0.11666   0.05299   0.00000  Uiso   1.00
C207   C     0.09587   0.08455   0.01087   0.00000  Uiso   1.00
H208   H     0.75957   0.22720   0.99561   0.00000  Uiso   1.00
H209   H     0.83278   0.33494   0.98688   0.00000  Uiso   1.00
H210   H     0.56119   0.20344   0.04525   0.00000  Uiso   1.00
H211   H     0.86236   0.14613   0.94384   0.00000  Uiso   1.00
H212   H     0.94911   0.44976   0.99434   0.00000  Uiso   1.00
H213   H     0.37645   0.17248   0.11742   0.00000  Uiso   1.00
H214   H     0.01153   0.05164   0.90357   0.00000  Uiso   1.00
H215   H     0.03086   0.19158   0.12757   0.00000  Uiso   1.00
H216   H     0.11896   0.29736   0.12608   0.00000  Uiso   1.00
H217   H     0.84736   0.16587   0.18446   0.00000  Uiso   1.00
H218   H     0.14854   0.10856   0.08305   0.00000  Uiso   1.00
H219   H     0.18138   0.41927   0.10733   0.00000  Uiso   1.00
H220   H     0.60872   0.14198   0.23040   0.00000  Uiso   1.00
H221   H     0.24381   0.02114   0.01656   0.00000  Uiso   1.00
O222   O     0.11828   0.50475   0.04749   0.00000  Uiso   1.00
O223   O     0.36697   0.14096   0.20895   0.00000  Uiso   1.00
O224   O     0.20018   0.98242   0.92839   0.00000  Uiso   1.00
N225   N     0.99171   0.42807   0.02113   0.00000  Uiso   1.00
N226   N     0.45630   0.16883   0.13620   0.00000  Uiso   1.00
N227   N     0.05002   0.05584   0.93628   0.00000  Uiso   1.00
N228   N     0.11669   0.41166   0.08193   0.00000  Uiso   1.00
N229   N     0.58128   0.15242   0.19700   0.00000  Uiso   1.00
N230   N     0.17501   0.03944   0.99708   0.00000  Uiso   1.00
C231   C     0.67827   0.28096   0.52584   0.00000  Uiso   1.00
C232   C     0.60087   0.22737   0.53939   0.00000  Uiso   1.00
C233   C     0.60542   0.17316   0.51693   0.00000  Uiso   1.00
C234   C     0.52722   0.12975   0.53469   0.00000  Uiso   1.00
C235   C     0.41923   0.04493   0.54985   0.00000  Uiso   1.00
C236   C     0.74843   0.29880   0.57111   0.00000  Uiso   1.00
C237   C     0.87706   0.30467   0.57531   0.00000  Uiso   1.00
C238   C     0.92308   0.32141   0.61978   0.00000  Uiso   1.00
C239   C     0.04418   0.34754   0.68416   0.00000  Uiso   1.00
C240   C     0.58479   0.32993   0.51601   0.00000  Uiso   1.00
C241   C     0.57584   0.36199   0.47389   0.00000  Uiso   1.00
C242   C     0.48410   0.40495   0.47196   0.00000  Uiso   1.00
C243   C     0.35112   0.47941   0.45080   0.00000  Uiso   1.00
C244   C     0.53129   0.30026   0.59734   0.00000  Uiso   1.00
C245   C     0.52104   0.23785   0.57823   0.00000  Uiso   1.00
C246   C     0.44280   0.19451   0.59603   0.00000  Uiso   1.00
C247   C     0.44724   0.14025   0.57360   0.00000  Uiso   1.00
C248   C     0.66861   0.30929   0.60995   0.00000  Uiso   1.00
C249   C     0.71444   0.32602   0.65441   0.00000  Uiso   1.00
C250   C     0.84310   0.33191   0.65868   0.00000  Uiso   1.00
C251   C     0.50496   0.34042   0.55484   0.00000  Uiso   1.00
C252   C     0.41322   0.38334   0.55299   0.00000  Uiso   1.00
C253   C     0.40413   0.41545   0.51087   0.00000  Uiso   1.00
H254   H     0.74043   0.27280   0.49561   0.00000  Uiso   1.00
H255   H     0.66722   0.16506   0.48688   0.00000  Uiso   1.00
H256   H     0.93881   0.29656   0.54525   0.00000  Uiso   1.00
H257   H     0.63764   0.35387   0.44384   0.00000  Uiso   1.00
H258   H     0.55089   0.05024   0.49434   0.00000  Uiso   1.00
H259   H     0.12355   0.32752   0.61742   0.00000  Uiso   1.00
H260   H     0.48847   0.44836   0.40357   0.00000  Uiso   1.00
H261   H     0.46914   0.30842   0.62757   0.00000  Uiso   1.00
H262   H     0.38104   0.20264   0.62608   0.00000  Uiso   1.00
H263   H     0.65264   0.33413   0.68446   0.00000  Uiso   1.00
H264   H     0.35146   0.39144   0.58305   0.00000  Uiso   1.00
H265   H     0.31862   0.08073   0.60733   0.00000  Uiso   1.00
H266   H     0.89128   0.35802   0.73040   0.00000  Uiso   1.00
H267   H     0.25619   0.47886   0.51656   0.00000  Uiso   1.00
O268   O     0.38172   0.99525   0.54749   0.00000  Uiso   1.00
O269   O     0.13303   0.35904   0.70895   0.00000  Uiso   1.00
O270   O     0.29982   0.51758   0.42839   0.00000  Uiso   1.00
N271   N     0.50829   0.07193   0.52113   0.00000  Uiso   1.00
N272   N     0.04370   0.33117   0.63620   0.00000  Uiso   1.00
N273   N     0.44998   0.44416   0.43628   0.00000  Uiso   1.00
N274   N     0.38331   0.08834   0.58193   0.00000  Uiso   1.00
N275   N     0.91872   0.34758   0.69700   0.00000  Uiso   1.00
N276   N     0.32499   0.46056   0.49708   0.00000  Uiso   1.00
C277   C     0.17827   0.21904   0.47416   0.00000  Uiso   1.00
C278   C     0.10087   0.27263   0.46061   0.00000  Uiso   1.00
C279   C     0.10542   0.32684   0.48307   0.00000  Uiso   1.00
C280   C     0.02722   0.37025   0.46531   0.00000  Uiso   1.00
C281   C     0.91923   0.45507   0.45015   0.00000  Uiso   1.00
C282   C     0.24843   0.20120   0.42889   0.00000  Uiso   1.00
C283   C     0.37706   0.19533   0.42469   0.00000  Uiso   1.00
C284   C     0.42308   0.17859   0.38022   0.00000  Uiso   1.00
C285   C     0.54418   0.15246   0.31584   0.00000  Uiso   1.00
C286   C     0.08479   0.17007   0.48399   0.00000  Uiso   1.00
C287   C     0.07584   0.13801   0.52611   0.00000  Uiso   1.00
C288   C     0.98410   0.09505   0.52804   0.00000  Uiso   1.00
C289   C     0.85112   0.02059   0.54920   0.00000  Uiso   1.00
C290   C     0.03129   0.19974   0.40266   0.00000  Uiso   1.00
C291   C     0.02104   0.26215   0.42177   0.00000  Uiso   1.00
C292   C     0.94280   0.30549   0.40397   0.00000  Uiso   1.00
C293   C     0.94724   0.35975   0.42640   0.00000  Uiso   1.00
C294   C     0.16861   0.19071   0.39005   0.00000  Uiso   1.00
C295   C     0.21444   0.17398   0.34559   0.00000  Uiso   1.00
C296   C     0.34310   0.16809   0.34132   0.00000  Uiso   1.00
C297   C     0.00496   0.15958   0.44516   0.00000  Uiso   1.00
C298   C     0.91322   0.11666   0.44701   0.00000  Uiso   1.00
C299   C     0.90413   0.08455   0.48913   0.00000  Uiso   1.00
H300   H     0.24043   0.22720   0.50439   0.00000  Uiso   1.00
H301   H     0.16722   0.33494   0.51312   0.00000  Uiso   1.00
H302   H     0.43881   0.20344   0.45475   0.00000  Uiso   1.00
H303   H     0.13764   0.14613   0.55616   0.00000  Uiso   1.00
H304   H     0.05089   0.44976   0.50566   0.00000  Uiso   1.00
H305   H     0.62355   0.17248   0.38258   0.00000  Uiso   1.00
H306   H     0.98847   0.05164   0.59643   0.00000  Uiso   1.00
H307   H     0.96914   0.19158   0.37243   0.00000  Uiso   1.00
H308   H     0.88104   0.29736   0.37392   0.00000  Uiso   1.00
H309   H     0.15264   0.16587   0.31554   0.00000  Uiso   1.00
H310   H     0.85146   0.10856   0.41695   0.00000  Uiso   1.00
H311   H     0.81862   0.41927   0.39267   0.00000  Uiso   1.00
H312   H     0.39128   0.14198   0.26960   0.00000  Uiso   1.00
H313   H     0.75619   0.02114   0.48344   0.00000  Uiso   1.00
O314   O     0.88172   0.50475   0.45251   0.00000  Uiso   1.00
O315   O     0.63303   0.14096   0.29105   0.00000  Uiso   1.00
O316   O     0.79982   0.98242   0.57161   0.00000  Uiso   1.00
N317   N     0.00829   0.42807   0.47887   0.00000  Uiso   1.00
N318   N     0.54370   0.16883   0.36380   0.00000  Uiso   1.00
N319   N     0.94998   0.05584   0.56372   0.00000  Uiso   1.00
N320   N     0.88331   0.41166   0.41807   0.00000  Uiso   1.00
N321   N     0.41872   0.15242   0.30300   0.00000  Uiso   1.00
N322   N     0.82499   0.03944   0.50292   0.00000  Uiso   1.00
C323   C     0.32173   0.28096   0.97416   0.00000  Uiso   1.00
C324   C     0.39913   0.22737   0.96061   0.00000  Uiso   1.00
C325   C     0.39458   0.17316   0.98307   0.00000  Uiso   1.00
C326   C     0.47278   0.12975   0.96531   0.00000  Uiso   1.00
C327   C     0.58077   0.04493   0.95015   0.00000  Uiso   1.00
C328   C     0.25157   0.29880   0.92889   0.00000  Uiso   1.00
C329   C     0.12294   0.30467   0.92469   0.00000  Uiso   1.00
C330   C     0.07692   0.32141   0.88022   0.00000  Uiso   1.00
C331   C     0.95582   0.34754   0.81584   0.00000  Uiso   1.00
C332   C     0.41521   0.32993   0.98399   0.00000  Uiso   1.00
C333   C     0.42416   0.36199   0.02611   0.00000  Uiso   1.00
C334   C     0.51590   0.40495   0.02804   0.00000  Uiso   1.00
C335   C     0.64888   0.47941   0.04920   0.00000  Uiso   1.00
C336   C     0.46871   0.30026   0.90266   0.00000  Uiso   1.00
C337   C     0.47896   0.23785   0.92177   0.00000  Uiso   1.00
C338   C     0.55720   0.19451   0.90397   0.00000  Uiso   1.00
C339   C     0.55276   0.14025   0.92640   0.00000  Uiso   1.00
C340   C     0.33139   0.30929   0.89005   0.00000  Uiso   1.00
C341   C     0.28556   0.32602   0.84559   0.00000  Uiso   1.00
C342   C     0.15690   0.33191   0.84132   0.00000  Uiso   1.00
C343   C     0.49504   0.34042   0.94516   0.00000  Uiso   1.00
C344   C     0.58678   0.38334   0.94701   0.00000  Uiso   1.00
C345   C     0.59587   0.41545   0.98913   0.00000  Uiso   1.00
H346   H     0.25957   0.27280   0.00439   0.00000  Uiso   1.00
H347   H     0.33278   0.16506   0.01312   0.00000  Uiso   1.00
H348   H     0.06119   0.29656   0.95475   0.00000  Uiso   1.00
H349   H     0.36236   0.35387   0.05616   0.00000  Uiso   1.00
H350   H     0.44911   0.05024   0.00566   0.00000  Uiso   1.00
H351   H     0.87645   0.32752   0.88258   0.00000  Uiso   1.00
H352   H     0.51153   0.44836   0.09643   0.00000  Uiso   1.00
H353   H     0.53086   0.30842   0.87243   0.00000  Uiso   1.00
H354   H     0.61896   0.20264   0.87392   0.00000  Uiso   1.00
H355   H     0.34736   0.33413   0.81554   0.00000  Uiso   1.00
H356   H     0.64854   0.39144   0.91695   0.00000  Uiso   1.00
H357   H     0.68138   0.08073   0.89267   0.00000  Uiso   1.00
H358   H     0.10872   0.35802   0.76960   0.00000  Uiso   1.00
H359   H     0.74381   0.47886   0.98344   0.00000  Uiso   1.00
O360   O     0.61828   0.99525   0.95251   0.00000  Uiso   1.00
O361   O     0.86697   0.35904   0.79105   0.00000  Uiso   1.00
O362   O     0.70018   0.51758   0.07161   0.00000  Uiso   1.00
N363   N     0.49171   0.07193   0.97887   0.00000  Uiso   1.00
N364   N     0.95630   0.33117   0.86380   0.00000  Uiso   1.00
N365   N     0.55002   0.44416   0.06372   0.00000  Uiso   1.00
N366   N     0.61669   0.08834   0.91807   0.00000  Uiso   1.00
N367   N     0.08128   0.34758   0.80300   0.00000  Uiso   1.00
N368   N     0.67501   0.46056   0.00292   0.00000  Uiso   1.00
