data_job_06181
_audit_creation_date              2018-12-19
_audit_creation_method            'Materials Studio'
_symmetry_space_group_name_H-M    'P1'
_symmetry_Int_Tables_number       1
_symmetry_cell_setting            triclinic
loop_
_symmetry_equiv_pos_as_xyz
  x,y,z
_cell_length_a                    17.6768
_cell_length_b                    15.4338
_cell_length_c                    14.9207
_cell_angle_alpha                 84.9766
_cell_angle_beta                  82.1080
_cell_angle_gamma                 82.9080
loop_
_atom_site_label
_atom_site_type_symbol
_atom_site_fract_x
_atom_site_fract_y
_atom_site_fract_z
_atom_site_U_iso_or_equiv
_atom_site_adp_type
_atom_site_occupancy
C1     C     0.03315   0.62131   0.27982   0.00000  Uiso   1.00
C2     C     0.01484   0.52708   0.30058   0.00000  Uiso   1.00
C3     C     0.95325   0.50005   0.35992   0.00000  Uiso   1.00
C4     C     0.94650   0.41094   0.36956   0.00000  Uiso   1.00
C5     C     0.91002   0.27373   0.40914   0.00000  Uiso   1.00
C6     C     0.11502   0.62215   0.30101   0.00000  Uiso   1.00
C7     C     0.13767   0.67505   0.36070   0.00000  Uiso   1.00
C8     C     0.21526   0.66598   0.37068   0.00000  Uiso   1.00
C9     C     0.33433   0.67641   0.41087   0.00000  Uiso   1.00
C10    C     0.03643   0.63919   0.17730   0.00000  Uiso   1.00
C11    C     0.99302   0.70643   0.13297   0.00000  Uiso   1.00
C12    C     0.00445   0.71171   0.03880   0.00000  Uiso   1.00
C13    C     0.00150   0.74859   0.88690   0.00000  Uiso   1.00
C14    C     0.13067   0.51113   0.19141   0.00000  Uiso   1.00
C15    C     0.06781   0.46724   0.25256   0.00000  Uiso   1.00
C16    C     0.06114   0.37815   0.26211   0.00000  Uiso   1.00
C17    C     0.99956   0.35098   0.32145   0.00000  Uiso   1.00
C18    C     0.16799   0.56231   0.25299   0.00000  Uiso   1.00
C19    C     0.24556   0.55316   0.26289   0.00000  Uiso   1.00
C20    C     0.26832   0.60603   0.32258   0.00000  Uiso   1.00
C21    C     0.08940   0.57934   0.12928   0.00000  Uiso   1.00
C22    C     0.10091   0.58452   0.03516   0.00000  Uiso   1.00
C23    C     0.05751   0.65176   0.99069   0.00000  Uiso   1.00
H24    H     0.99192   0.66790   0.31721   0.00000  Uiso   1.00
H25    H     0.91228   0.54638   0.39708   0.00000  Uiso   1.00
H26    H     0.09667   0.72136   0.39784   0.00000  Uiso   1.00
H27    H     0.95204   0.75273   0.17015   0.00000  Uiso   1.00
H28    H     0.84736   0.38526   0.46448   0.00000  Uiso   1.00
H29    H     0.23616   0.75424   0.46607   0.00000  Uiso   1.00
H30    H     0.93117   0.82038   0.98593   0.00000  Uiso   1.00
H31    H     0.17191   0.46454   0.15403   0.00000  Uiso   1.00
H32    H     0.10214   0.33185   0.22494   0.00000  Uiso   1.00
H33    H     0.28653   0.50684   0.22571   0.00000  Uiso   1.00
H34    H     0.14190   0.53820   0.99802   0.00000  Uiso   1.00
H35    H     0.00146   0.21114   0.32477   0.00000  Uiso   1.00
H36    H     0.39026   0.58013   0.32636   0.00000  Uiso   1.00
H37    H     0.08527   0.64626   0.84622   0.00000  Uiso   1.00
O38    O     0.87528   0.21458   0.44424   0.00000  Uiso   1.00
O39    O     0.38537   0.69869   0.44631   0.00000  Uiso   1.00
O40    O     0.98523   0.78546   0.81639   0.00000  Uiso   1.00
N41    N     0.89319   0.36249   0.42185   0.00000  Uiso   1.00
N42    N     0.25670   0.70746   0.42335   0.00000  Uiso   1.00
N43    N     0.97157   0.76931   0.97446   0.00000  Uiso   1.00
N44    N     0.97611   0.26880   0.34667   0.00000  Uiso   1.00
N45    N     0.33962   0.61377   0.34817   0.00000  Uiso   1.00
N46    N     0.05449   0.67562   0.89928   0.00000  Uiso   1.00
C47    C     0.26903   0.02316   0.61578   0.00000  Uiso   1.00
C48    C     0.28667   0.00132   0.51683   0.00000  Uiso   1.00
C49    C     0.33511   0.92998   0.48444   0.00000  Uiso   1.00
C50    C     0.34367   0.92154   0.39161   0.00000  Uiso   1.00
C51    C     0.37694   0.87841   0.24681   0.00000  Uiso   1.00
C52    C     0.28994   0.11579   0.61832   0.00000  Uiso   1.00
C53    C     0.34113   0.14069   0.67128   0.00000  Uiso   1.00
C54    C     0.35243   0.22860   0.66389   0.00000  Uiso   1.00
C55    C     0.39074   0.36319   0.67673   0.00000  Uiso   1.00
C56    C     0.18187   0.02903   0.63868   0.00000  Uiso   1.00
C57    C     0.14220   0.98101   0.70877   0.00000  Uiso   1.00
C58    C     0.06251   0.99590   0.71854   0.00000  Uiso   1.00
C59    C     0.93303   0.99579   0.76299   0.00000  Uiso   1.00
C60    C     0.19807   0.13501   0.50852   0.00000  Uiso   1.00
C61    C     0.24812   0.06208   0.45857   0.00000  Uiso   1.00
C62    C     0.25660   0.05374   0.36577   0.00000  Uiso   1.00
C63    C     0.30505   0.98240   0.33324   0.00000  Uiso   1.00
C64    C     0.25140   0.17654   0.56007   0.00000  Uiso   1.00
C65    C     0.26262   0.26444   0.55261   0.00000  Uiso   1.00
C66    C     0.31382   0.28947   0.60553   0.00000  Uiso   1.00
C67    C     0.14333   0.08979   0.58043   0.00000  Uiso   1.00
C68    C     0.06369   0.10476   0.59010   0.00000  Uiso   1.00
C69    C     0.02389   0.05677   0.66018   0.00000  Uiso   1.00
H70    H     0.29904   0.97587   0.66114   0.00000  Uiso   1.00
H71    H     0.36494   0.88299   0.52954   0.00000  Uiso   1.00
H72    H     0.37094   0.09366   0.71636   0.00000  Uiso   1.00
H73    H     0.17204   0.93400   0.75384   0.00000  Uiso   1.00
H74    H     0.42102   0.80682   0.35795   0.00000  Uiso   1.00
H75    H     0.43366   0.25104   0.75189   0.00000  Uiso   1.00
H76    H     0.01424   0.91438   0.83093   0.00000  Uiso   1.00
H77    H     0.16806   0.18232   0.46317   0.00000  Uiso   1.00
H78    H     0.22677   0.10076   0.32070   0.00000  Uiso   1.00
H79    H     0.23278   0.31144   0.50752   0.00000  Uiso   1.00
H80    H     0.03388   0.15178   0.54500   0.00000  Uiso   1.00
H81    H     0.30888   0.98358   0.18844   0.00000  Uiso   1.00
H82    H     0.32152   0.42780   0.58239   0.00000  Uiso   1.00
H83    H     0.90210   0.09113   0.66142   0.00000  Uiso   1.00
O84    O     0.40595   0.83784   0.18304   0.00000  Uiso   1.00
O85    O     0.42253   0.42064   0.69989   0.00000  Uiso   1.00
O86    O     0.87226   0.97894   0.80359   0.00000  Uiso   1.00
N87    N     0.38656   0.85961   0.33761   0.00000  Uiso   1.00
N88    N     0.39839   0.27492   0.70591   0.00000  Uiso   1.00
N89    N     0.00626   0.96018   0.77982   0.00000  Uiso   1.00
N90    N     0.32621   0.95472   0.24640   0.00000  Uiso   1.00
N91    N     0.33805   0.37003   0.61470   0.00000  Uiso   1.00
N92    N     0.94592   0.05530   0.68861   0.00000  Uiso   1.00
C93    C     0.62307   0.27667   0.02482   0.00000  Uiso   1.00
C94    C     0.53972   0.29853   0.00692   0.00000  Uiso   1.00
C95    C     0.51438   0.35376   0.93597   0.00000  Uiso   1.00
C96    C     0.43582   0.36526   0.93139   0.00000  Uiso   1.00
C97    C     0.31420   0.40566   0.89388   0.00000  Uiso   1.00
C98    C     0.62535   0.30098   0.12122   0.00000  Uiso   1.00
C99    C     0.67201   0.35827   0.14637   0.00000  Uiso   1.00
C100   C     0.66554   0.37183   0.23801   0.00000  Uiso   1.00
C101   C     0.67691   0.41599   0.37795   0.00000  Uiso   1.00
C102   C     0.63942   0.17720   0.02721   0.00000  Uiso   1.00
C103   C     0.69792   0.13041   0.97334   0.00000  Uiso   1.00
C104   C     0.70330   0.03976   0.98584   0.00000  Uiso   1.00
C105   C     0.73650   0.89173   0.97982   0.00000  Uiso   1.00
C106   C     0.52862   0.19888   0.14285   0.00000  Uiso   1.00
C107   C     0.48842   0.25627   0.07103   0.00000  Uiso   1.00
C108   C     0.40988   0.26769   0.06656   0.00000  Uiso   1.00
C109   C     0.38443   0.32293   0.99562   0.00000  Uiso   1.00
C110   C     0.57405   0.25873   0.18533   0.00000  Uiso   1.00
C111   C     0.56752   0.27220   0.27696   0.00000  Uiso   1.00
C112   C     0.61415   0.32950   0.30224   0.00000  Uiso   1.00
C113   C     0.58811   0.13495   0.09132   0.00000  Uiso   1.00
C114   C     0.59341   0.04435   0.10392   0.00000  Uiso   1.00
C115   C     0.65190   0.99743   0.05007   0.00000  Uiso   1.00
H116   H     0.66301   0.30957   0.97491   0.00000  Uiso   1.00
H117   H     0.55410   0.38645   0.88638   0.00000  Uiso   1.00
H118   H     0.71171   0.39095   0.09675   0.00000  Uiso   1.00
H119   H     0.73760   0.16313   0.92373   0.00000  Uiso   1.00
H120   H     0.41072   0.45309   0.81651   0.00000  Uiso   1.00
H121   H     0.74308   0.46255   0.26008   0.00000  Uiso   1.00
H122   H     0.79768   0.98215   0.89525   0.00000  Uiso   1.00
H123   H     0.48868   0.16598   0.19277   0.00000  Uiso   1.00
H124   H     0.37020   0.23498   0.11618   0.00000  Uiso   1.00
H125   H     0.52781   0.23949   0.32655   0.00000  Uiso   1.00
H126   H     0.55370   0.01167   0.15354   0.00000  Uiso   1.00
H127   H     0.26146   0.33015   0.00303   0.00000  Uiso   1.00
H128   H     0.59382   0.33961   0.44660   0.00000  Uiso   1.00
H129   H     0.64841   0.85921   0.08177   0.00000  Uiso   1.00
O130   O     0.26129   0.43963   0.85548   0.00000  Uiso   1.00
O131   O     0.69734   0.45203   0.43743   0.00000  Uiso   1.00
O132   O     0.76897   0.82175   0.95878   0.00000  Uiso   1.00
N133   N     0.39185   0.41467   0.87091   0.00000  Uiso   1.00
N134   N     0.70258   0.42353   0.28562   0.00000  Uiso   1.00
N135   N     0.75364   0.97439   0.94455   0.00000  Uiso   1.00
N136   N     0.31153   0.34852   0.97127   0.00000  Uiso   1.00
N137   N     0.62226   0.35738   0.38598   0.00000  Uiso   1.00
N138   N     0.67332   0.90824   0.04491   0.00000  Uiso   1.00
C139   C     0.96685   0.37869   0.72018   0.00000  Uiso   1.00
C140   C     0.98516   0.47292   0.69942   0.00000  Uiso   1.00
C141   C     0.04675   0.49995   0.64008   0.00000  Uiso   1.00
C142   C     0.05350   0.58906   0.63044   0.00000  Uiso   1.00
C143   C     0.08998   0.72627   0.59086   0.00000  Uiso   1.00
C144   C     0.88498   0.37785   0.69899   0.00000  Uiso   1.00
C145   C     0.86233   0.32495   0.63930   0.00000  Uiso   1.00
C146   C     0.78474   0.33402   0.62932   0.00000  Uiso   1.00
C147   C     0.66567   0.32359   0.58913   0.00000  Uiso   1.00
C148   C     0.96357   0.36081   0.82270   0.00000  Uiso   1.00
C149   C     0.00698   0.29357   0.86703   0.00000  Uiso   1.00
C150   C     0.99555   0.28829   0.96121   0.00000  Uiso   1.00
C151   C     0.99850   0.25141   0.11310   0.00000  Uiso   1.00
C152   C     0.86933   0.48887   0.80859   0.00000  Uiso   1.00
C153   C     0.93219   0.53276   0.74744   0.00000  Uiso   1.00
C154   C     0.93886   0.62185   0.73789   0.00000  Uiso   1.00
C155   C     0.00044   0.64902   0.67855   0.00000  Uiso   1.00
C156   C     0.83201   0.43769   0.74701   0.00000  Uiso   1.00
C157   C     0.75444   0.44684   0.73711   0.00000  Uiso   1.00
C158   C     0.73168   0.39397   0.67742   0.00000  Uiso   1.00
C159   C     0.91060   0.42066   0.87072   0.00000  Uiso   1.00
C160   C     0.89909   0.41548   0.96484   0.00000  Uiso   1.00
C161   C     0.94248   0.34824   0.00931   0.00000  Uiso   1.00
H162   H     0.00808   0.33210   0.68279   0.00000  Uiso   1.00
H163   H     0.08772   0.45362   0.60292   0.00000  Uiso   1.00
H164   H     0.90333   0.27864   0.60216   0.00000  Uiso   1.00
H165   H     0.04796   0.24727   0.82985   0.00000  Uiso   1.00
H166   H     0.15264   0.61474   0.53552   0.00000  Uiso   1.00
H167   H     0.76384   0.24576   0.53393   0.00000  Uiso   1.00
H168   H     0.06883   0.17962   0.01407   0.00000  Uiso   1.00
H169   H     0.82809   0.53546   0.84597   0.00000  Uiso   1.00
H170   H     0.89786   0.66815   0.77506   0.00000  Uiso   1.00
H171   H     0.71347   0.49316   0.77429   0.00000  Uiso   1.00
H172   H     0.85810   0.46180   0.00198   0.00000  Uiso   1.00
H173   H     0.99854   0.78886   0.67523   0.00000  Uiso   1.00
H174   H     0.60974   0.41987   0.67364   0.00000  Uiso   1.00
H175   H     0.91473   0.35374   0.15378   0.00000  Uiso   1.00
O176   O     0.12472   0.78542   0.55576   0.00000  Uiso   1.00
O177   O     0.61463   0.30131   0.55369   0.00000  Uiso   1.00
O178   O     0.01477   0.21454   0.18361   0.00000  Uiso   1.00
N179   N     0.10681   0.63751   0.57815   0.00000  Uiso   1.00
N180   N     0.74330   0.29254   0.57665   0.00000  Uiso   1.00
N181   N     0.02843   0.23069   0.02554   0.00000  Uiso   1.00
N182   N     0.02389   0.73120   0.65333   0.00000  Uiso   1.00
N183   N     0.66038   0.38623   0.65183   0.00000  Uiso   1.00
N184   N     0.94551   0.32438   0.10072   0.00000  Uiso   1.00
C185   C     0.73096   0.97684   0.38422   0.00000  Uiso   1.00
C186   C     0.71333   0.99868   0.48317   0.00000  Uiso   1.00
C187   C     0.66489   0.07002   0.51556   0.00000  Uiso   1.00
C188   C     0.65633   0.07846   0.60839   0.00000  Uiso   1.00
C189   C     0.62306   0.12159   0.75319   0.00000  Uiso   1.00
C190   C     0.71006   0.88421   0.38168   0.00000  Uiso   1.00
C191   C     0.65887   0.85931   0.32872   0.00000  Uiso   1.00
C192   C     0.64757   0.77140   0.33611   0.00000  Uiso   1.00
C193   C     0.60926   0.63681   0.32327   0.00000  Uiso   1.00
C194   C     0.81813   0.97097   0.36132   0.00000  Uiso   1.00
C195   C     0.85780   0.01899   0.29123   0.00000  Uiso   1.00
C196   C     0.93749   0.00410   0.28146   0.00000  Uiso   1.00
C197   C     0.06697   0.00421   0.23701   0.00000  Uiso   1.00
C198   C     0.80193   0.86499   0.49148   0.00000  Uiso   1.00
C199   C     0.75188   0.93792   0.54143   0.00000  Uiso   1.00
C200   C     0.74340   0.94626   0.63423   0.00000  Uiso   1.00
C201   C     0.69495   0.01760   0.66676   0.00000  Uiso   1.00
C202   C     0.74860   0.82346   0.43993   0.00000  Uiso   1.00
C203   C     0.73738   0.73556   0.44739   0.00000  Uiso   1.00
C204   C     0.68618   0.71053   0.39447   0.00000  Uiso   1.00
C205   C     0.85667   0.91021   0.41957   0.00000  Uiso   1.00
C206   C     0.93631   0.89524   0.40990   0.00000  Uiso   1.00
C207   C     0.97611   0.94323   0.33982   0.00000  Uiso   1.00
H208   H     0.70096   0.02413   0.33886   0.00000  Uiso   1.00
H209   H     0.63506   0.11701   0.47046   0.00000  Uiso   1.00
H210   H     0.62906   0.90634   0.28364   0.00000  Uiso   1.00
H211   H     0.82796   0.06600   0.24616   0.00000  Uiso   1.00
H212   H     0.57898   0.19318   0.64205   0.00000  Uiso   1.00
H213   H     0.56634   0.74896   0.24811   0.00000  Uiso   1.00
H214   H     0.98576   0.08562   0.16907   0.00000  Uiso   1.00
H215   H     0.83194   0.81768   0.53683   0.00000  Uiso   1.00
H216   H     0.77323   0.89924   0.67930   0.00000  Uiso   1.00
H217   H     0.76722   0.68856   0.49248   0.00000  Uiso   1.00
H218   H     0.96612   0.84822   0.45500   0.00000  Uiso   1.00
H219   H     0.69112   0.01642   0.81156   0.00000  Uiso   1.00
H220   H     0.67848   0.57220   0.41761   0.00000  Uiso   1.00
H221   H     0.09790   0.90886   0.33858   0.00000  Uiso   1.00
O222   O     0.59405   0.16216   0.81696   0.00000  Uiso   1.00
O223   O     0.57747   0.57936   0.30011   0.00000  Uiso   1.00
O224   O     0.12774   0.02106   0.19641   0.00000  Uiso   1.00
N225   N     0.61344   0.14039   0.66239   0.00000  Uiso   1.00
N226   N     0.60161   0.72508   0.29409   0.00000  Uiso   1.00
N227   N     0.99374   0.03982   0.22018   0.00000  Uiso   1.00
N228   N     0.67378   0.04528   0.75360   0.00000  Uiso   1.00
N229   N     0.66195   0.62997   0.38530   0.00000  Uiso   1.00
N230   N     0.05408   0.94470   0.31139   0.00000  Uiso   1.00
C231   C     0.37693   0.72333   0.97518   0.00000  Uiso   1.00
C232   C     0.46028   0.70147   0.99308   0.00000  Uiso   1.00
C233   C     0.48562   0.64624   0.06403   0.00000  Uiso   1.00
C234   C     0.56418   0.63474   0.06861   0.00000  Uiso   1.00
C235   C     0.68580   0.59434   0.10612   0.00000  Uiso   1.00
C236   C     0.37465   0.69902   0.87878   0.00000  Uiso   1.00
C237   C     0.32799   0.64173   0.85363   0.00000  Uiso   1.00
C238   C     0.33446   0.62817   0.76199   0.00000  Uiso   1.00
C239   C     0.32309   0.58401   0.62205   0.00000  Uiso   1.00
C240   C     0.36058   0.82280   0.97279   0.00000  Uiso   1.00
C241   C     0.30208   0.86959   0.02666   0.00000  Uiso   1.00
C242   C     0.29670   0.96024   0.01416   0.00000  Uiso   1.00
C243   C     0.26350   0.10827   0.02018   0.00000  Uiso   1.00
C244   C     0.47138   0.80112   0.85715   0.00000  Uiso   1.00
C245   C     0.51158   0.74373   0.92897   0.00000  Uiso   1.00
C246   C     0.59012   0.73231   0.93344   0.00000  Uiso   1.00
C247   C     0.61557   0.67707   0.00439   0.00000  Uiso   1.00
C248   C     0.42595   0.74127   0.81467   0.00000  Uiso   1.00
C249   C     0.43248   0.72780   0.72304   0.00000  Uiso   1.00
C250   C     0.38585   0.67050   0.69776   0.00000  Uiso   1.00
C251   C     0.41189   0.86505   0.90868   0.00000  Uiso   1.00
C252   C     0.40659   0.95565   0.89608   0.00000  Uiso   1.00
C253   C     0.34809   0.00257   0.94993   0.00000  Uiso   1.00
H254   H     0.33699   0.69043   0.02509   0.00000  Uiso   1.00
H255   H     0.44590   0.61355   0.11362   0.00000  Uiso   1.00
H256   H     0.28829   0.60905   0.90325   0.00000  Uiso   1.00
H257   H     0.26240   0.83687   0.07627   0.00000  Uiso   1.00
H258   H     0.58928   0.54691   0.18349   0.00000  Uiso   1.00
H259   H     0.25692   0.53745   0.73992   0.00000  Uiso   1.00
H260   H     0.20232   0.01785   0.10475   0.00000  Uiso   1.00
H261   H     0.51132   0.83402   0.80723   0.00000  Uiso   1.00
H262   H     0.62980   0.76502   0.88382   0.00000  Uiso   1.00
H263   H     0.47219   0.76051   0.67345   0.00000  Uiso   1.00
H264   H     0.44630   0.98833   0.84646   0.00000  Uiso   1.00
H265   H     0.73854   0.66985   0.99697   0.00000  Uiso   1.00
H266   H     0.40618   0.66039   0.55340   0.00000  Uiso   1.00
H267   H     0.35158   0.14079   0.91823   0.00000  Uiso   1.00
O268   O     0.73871   0.56037   0.14452   0.00000  Uiso   1.00
O269   O     0.30266   0.54797   0.56257   0.00000  Uiso   1.00
O270   O     0.23103   0.17825   0.04122   0.00000  Uiso   1.00
N271   N     0.60815   0.58533   0.12909   0.00000  Uiso   1.00
N272   N     0.29742   0.57647   0.71438   0.00000  Uiso   1.00
N273   N     0.24636   0.02561   0.05545   0.00000  Uiso   1.00
N274   N     0.68846   0.65148   0.02873   0.00000  Uiso   1.00
N275   N     0.37774   0.64262   0.61402   0.00000  Uiso   1.00
N276   N     0.32668   0.09176   0.95509   0.00000  Uiso   1.00
