data_job_02490
_audit_creation_date              2018-12-19
_audit_creation_method            'Materials Studio'
_symmetry_space_group_name_H-M    'P1'
_symmetry_Int_Tables_number       1
_symmetry_cell_setting            triclinic
loop_
_symmetry_equiv_pos_as_xyz
  x,y,z
_cell_length_a                    24.0906
_cell_length_b                    8.0243
_cell_length_c                    23.1046
_cell_angle_alpha                 90.0000
_cell_angle_beta                  143.7702
_cell_angle_gamma                 90.0000
loop_
_atom_site_label
_atom_site_type_symbol
_atom_site_fract_x
_atom_site_fract_y
_atom_site_fract_z
_atom_site_U_iso_or_equiv
_atom_site_adp_type
_atom_site_occupancy
C1     C     0.24722   0.52193   0.43329   0.00000  Uiso   1.00
C2     C     0.21651   0.35879   0.43553   0.00000  Uiso   1.00
C3     C     0.15861   0.34398   0.43488   0.00000  Uiso   1.00
C4     C     0.13879   0.18371   0.43726   0.00000  Uiso   1.00
C5     C     0.08554   0.95174   0.44034   0.00000  Uiso   1.00
C6     C     0.35431   0.51934   0.52318   0.00000  Uiso   1.00
C7     C     0.41228   0.63953   0.59622   0.00000  Uiso   1.00
C8     C     0.50845   0.61440   0.67237   0.00000  Uiso   1.00
C9     C     0.66915   0.63174   0.81149   0.00000  Uiso   1.00
C10    C     0.21726   0.51065   0.34485   0.00000  Uiso   1.00
C11    C     0.16002   0.62355   0.26796   0.00000  Uiso   1.00
C12    C     0.14082   0.59113   0.19399   0.00000  Uiso   1.00
C13    C     0.08873   0.59498   0.05623   0.00000  Uiso   1.00
C14    C     0.31495   0.26363   0.43865   0.00000  Uiso   1.00
C15    C     0.25330   0.21850   0.43844   0.00000  Uiso   1.00
C16    C     0.23355   0.05820   0.44082   0.00000  Uiso   1.00
C17    C     0.17563   0.04315   0.44017   0.00000  Uiso   1.00
C18    C     0.39110   0.37904   0.52609   0.00000  Uiso   1.00
C19    C     0.48721   0.35374   0.60215   0.00000  Uiso   1.00
C20    C     0.54531   0.47384   0.67529   0.00000  Uiso   1.00
C21    C     0.25405   0.37034   0.34776   0.00000  Uiso   1.00
C22    C     0.23495   0.33775   0.27389   0.00000  Uiso   1.00
C23    C     0.17768   0.45058   0.19690   0.00000  Uiso   1.00
H24    H     0.21858   0.63117   0.43103   0.00000  Uiso   1.00
H25    H     0.13017   0.45259   0.43264   0.00000  Uiso   1.00
H26    H     0.38379   0.74809   0.59394   0.00000  Uiso   1.00
H27    H     0.13156   0.73211   0.26573   0.00000  Uiso   1.00
H28    H     0.04839   0.19274   0.43575   0.00000  Uiso   1.00
H29    H     0.58317   0.81585   0.77584   0.00000  Uiso   1.00
H30    H     0.05130   0.78215   0.08376   0.00000  Uiso   1.00
H31    H     0.34359   0.15439   0.44092   0.00000  Uiso   1.00
H32    H     0.26203   0.94965   0.44307   0.00000  Uiso   1.00
H33    H     0.51565   0.24515   0.60437   0.00000  Uiso   1.00
H34    H     0.26343   0.22917   0.27617   0.00000  Uiso   1.00
H35    H     0.15542   0.78453   0.44422   0.00000  Uiso   1.00
H36    H     0.69020   0.40765   0.78431   0.00000  Uiso   1.00
H37    H     0.15833   0.37394   0.09223   0.00000  Uiso   1.00
O38    O     0.04602   0.86255   0.44125   0.00000  Uiso   1.00
O39    O     0.74762   0.68007   0.88743   0.00000  Uiso   1.00
O40    O     0.04982   0.63585   0.97943   0.00000  Uiso   1.00
N41    N     0.08476   0.12476   0.43742   0.00000  Uiso   1.00
N42    N     0.58474   0.70732   0.75540   0.00000  Uiso   1.00
N43    N     0.08751   0.67584   0.10837   0.00000  Uiso   1.00
N44    N     0.14235   0.90511   0.44198   0.00000  Uiso   1.00
N45    N     0.64233   0.48767   0.75996   0.00000  Uiso   1.00
N46    N     0.14510   0.45619   0.11293   0.00000  Uiso   1.00
C47    C     0.75278   0.52193   0.06671   0.00000  Uiso   1.00
C48    C     0.78349   0.35879   0.06447   0.00000  Uiso   1.00
C49    C     0.84139   0.34398   0.06512   0.00000  Uiso   1.00
C50    C     0.86121   0.18371   0.06274   0.00000  Uiso   1.00
C51    C     0.91446   0.95174   0.05966   0.00000  Uiso   1.00
C52    C     0.64569   0.51934   0.97682   0.00000  Uiso   1.00
C53    C     0.58772   0.63953   0.90378   0.00000  Uiso   1.00
C54    C     0.49155   0.61440   0.82763   0.00000  Uiso   1.00
C55    C     0.33085   0.63174   0.68851   0.00000  Uiso   1.00
C56    C     0.78274   0.51065   0.15515   0.00000  Uiso   1.00
C57    C     0.83998   0.62355   0.23204   0.00000  Uiso   1.00
C58    C     0.85918   0.59113   0.30601   0.00000  Uiso   1.00
C59    C     0.91127   0.59498   0.44377   0.00000  Uiso   1.00
C60    C     0.68505   0.26363   0.06135   0.00000  Uiso   1.00
C61    C     0.74670   0.21850   0.06156   0.00000  Uiso   1.00
C62    C     0.76645   0.05820   0.05918   0.00000  Uiso   1.00
C63    C     0.82437   0.04315   0.05983   0.00000  Uiso   1.00
C64    C     0.60890   0.37904   0.97391   0.00000  Uiso   1.00
C65    C     0.51279   0.35374   0.89785   0.00000  Uiso   1.00
C66    C     0.45469   0.47384   0.82471   0.00000  Uiso   1.00
C67    C     0.74595   0.37034   0.15224   0.00000  Uiso   1.00
C68    C     0.76505   0.33775   0.22611   0.00000  Uiso   1.00
C69    C     0.82232   0.45058   0.30310   0.00000  Uiso   1.00
H70    H     0.78142   0.63117   0.06897   0.00000  Uiso   1.00
H71    H     0.86983   0.45259   0.06736   0.00000  Uiso   1.00
H72    H     0.61621   0.74809   0.90606   0.00000  Uiso   1.00
H73    H     0.86844   0.73211   0.23427   0.00000  Uiso   1.00
H74    H     0.95161   0.19274   0.06425   0.00000  Uiso   1.00
H75    H     0.41683   0.81585   0.72416   0.00000  Uiso   1.00
H76    H     0.94870   0.78215   0.41624   0.00000  Uiso   1.00
H77    H     0.65641   0.15439   0.05908   0.00000  Uiso   1.00
H78    H     0.73797   0.94965   0.05693   0.00000  Uiso   1.00
H79    H     0.48435   0.24515   0.89563   0.00000  Uiso   1.00
H80    H     0.73657   0.22917   0.22383   0.00000  Uiso   1.00
H81    H     0.84458   0.78453   0.05578   0.00000  Uiso   1.00
H82    H     0.30980   0.40765   0.71569   0.00000  Uiso   1.00
H83    H     0.84167   0.37394   0.40777   0.00000  Uiso   1.00
O84    O     0.95398   0.86255   0.05875   0.00000  Uiso   1.00
O85    O     0.25238   0.68007   0.61257   0.00000  Uiso   1.00
O86    O     0.95018   0.63585   0.52057   0.00000  Uiso   1.00
N87    N     0.91524   0.12476   0.06258   0.00000  Uiso   1.00
N88    N     0.41526   0.70732   0.74460   0.00000  Uiso   1.00
N89    N     0.91249   0.67584   0.39163   0.00000  Uiso   1.00
N90    N     0.85765   0.90511   0.05802   0.00000  Uiso   1.00
N91    N     0.35767   0.48767   0.74004   0.00000  Uiso   1.00
N92    N     0.85490   0.45619   0.38707   0.00000  Uiso   1.00
C93    C     0.75278   0.47807   0.56671   0.00000  Uiso   1.00
C94    C     0.78349   0.64121   0.56447   0.00000  Uiso   1.00
C95    C     0.84139   0.65602   0.56512   0.00000  Uiso   1.00
C96    C     0.86121   0.81629   0.56274   0.00000  Uiso   1.00
C97    C     0.91446   0.04826   0.55966   0.00000  Uiso   1.00
C98    C     0.64569   0.48066   0.47682   0.00000  Uiso   1.00
C99    C     0.58772   0.36047   0.40378   0.00000  Uiso   1.00
C100   C     0.49155   0.38560   0.32763   0.00000  Uiso   1.00
C101   C     0.33085   0.36826   0.18851   0.00000  Uiso   1.00
C102   C     0.78274   0.48935   0.65515   0.00000  Uiso   1.00
C103   C     0.83998   0.37645   0.73204   0.00000  Uiso   1.00
C104   C     0.85918   0.40887   0.80601   0.00000  Uiso   1.00
C105   C     0.91127   0.40502   0.94377   0.00000  Uiso   1.00
C106   C     0.68505   0.73637   0.56135   0.00000  Uiso   1.00
C107   C     0.74670   0.78150   0.56156   0.00000  Uiso   1.00
C108   C     0.76645   0.94180   0.55918   0.00000  Uiso   1.00
C109   C     0.82437   0.95685   0.55983   0.00000  Uiso   1.00
C110   C     0.60890   0.62096   0.47391   0.00000  Uiso   1.00
C111   C     0.51279   0.64626   0.39785   0.00000  Uiso   1.00
C112   C     0.45469   0.52616   0.32471   0.00000  Uiso   1.00
C113   C     0.74595   0.62966   0.65224   0.00000  Uiso   1.00
C114   C     0.76505   0.66225   0.72611   0.00000  Uiso   1.00
C115   C     0.82232   0.54942   0.80310   0.00000  Uiso   1.00
H116   H     0.78142   0.36883   0.56897   0.00000  Uiso   1.00
H117   H     0.86983   0.54741   0.56736   0.00000  Uiso   1.00
H118   H     0.61621   0.25191   0.40606   0.00000  Uiso   1.00
H119   H     0.86844   0.26789   0.73427   0.00000  Uiso   1.00
H120   H     0.95161   0.80726   0.56425   0.00000  Uiso   1.00
H121   H     0.41683   0.18415   0.22416   0.00000  Uiso   1.00
H122   H     0.94870   0.21785   0.91624   0.00000  Uiso   1.00
H123   H     0.65641   0.84561   0.55908   0.00000  Uiso   1.00
H124   H     0.73797   0.05035   0.55693   0.00000  Uiso   1.00
H125   H     0.48435   0.75485   0.39563   0.00000  Uiso   1.00
H126   H     0.73657   0.77083   0.72383   0.00000  Uiso   1.00
H127   H     0.84458   0.21547   0.55578   0.00000  Uiso   1.00
H128   H     0.30980   0.59235   0.21569   0.00000  Uiso   1.00
H129   H     0.84167   0.62606   0.90777   0.00000  Uiso   1.00
O130   O     0.95398   0.13745   0.55875   0.00000  Uiso   1.00
O131   O     0.25238   0.31993   0.11257   0.00000  Uiso   1.00
O132   O     0.95018   0.36415   0.02057   0.00000  Uiso   1.00
N133   N     0.91524   0.87524   0.56258   0.00000  Uiso   1.00
N134   N     0.41526   0.29268   0.24460   0.00000  Uiso   1.00
N135   N     0.91249   0.32416   0.89163   0.00000  Uiso   1.00
N136   N     0.85765   0.09489   0.55802   0.00000  Uiso   1.00
N137   N     0.35767   0.51233   0.24004   0.00000  Uiso   1.00
N138   N     0.85490   0.54381   0.88707   0.00000  Uiso   1.00
C139   C     0.24722   0.47807   0.93329   0.00000  Uiso   1.00
C140   C     0.21651   0.64121   0.93553   0.00000  Uiso   1.00
C141   C     0.15861   0.65602   0.93488   0.00000  Uiso   1.00
C142   C     0.13879   0.81629   0.93726   0.00000  Uiso   1.00
C143   C     0.08554   0.04826   0.94034   0.00000  Uiso   1.00
C144   C     0.35431   0.48066   0.02318   0.00000  Uiso   1.00
C145   C     0.41228   0.36047   0.09622   0.00000  Uiso   1.00
C146   C     0.50845   0.38560   0.17237   0.00000  Uiso   1.00
C147   C     0.66915   0.36826   0.31149   0.00000  Uiso   1.00
C148   C     0.21726   0.48935   0.84485   0.00000  Uiso   1.00
C149   C     0.16002   0.37645   0.76796   0.00000  Uiso   1.00
C150   C     0.14082   0.40887   0.69399   0.00000  Uiso   1.00
C151   C     0.08873   0.40502   0.55623   0.00000  Uiso   1.00
C152   C     0.31495   0.73637   0.93865   0.00000  Uiso   1.00
C153   C     0.25330   0.78150   0.93844   0.00000  Uiso   1.00
C154   C     0.23355   0.94180   0.94082   0.00000  Uiso   1.00
C155   C     0.17563   0.95685   0.94017   0.00000  Uiso   1.00
C156   C     0.39110   0.62096   0.02609   0.00000  Uiso   1.00
C157   C     0.48721   0.64626   0.10215   0.00000  Uiso   1.00
C158   C     0.54531   0.52616   0.17529   0.00000  Uiso   1.00
C159   C     0.25405   0.62966   0.84776   0.00000  Uiso   1.00
C160   C     0.23495   0.66225   0.77389   0.00000  Uiso   1.00
C161   C     0.17768   0.54942   0.69690   0.00000  Uiso   1.00
H162   H     0.21858   0.36883   0.93103   0.00000  Uiso   1.00
H163   H     0.13017   0.54741   0.93264   0.00000  Uiso   1.00
H164   H     0.38379   0.25191   0.09394   0.00000  Uiso   1.00
H165   H     0.13156   0.26789   0.76573   0.00000  Uiso   1.00
H166   H     0.04839   0.80726   0.93575   0.00000  Uiso   1.00
H167   H     0.58317   0.18415   0.27584   0.00000  Uiso   1.00
H168   H     0.05130   0.21785   0.58376   0.00000  Uiso   1.00
H169   H     0.34359   0.84561   0.94092   0.00000  Uiso   1.00
H170   H     0.26203   0.05035   0.94307   0.00000  Uiso   1.00
H171   H     0.51565   0.75485   0.10437   0.00000  Uiso   1.00
H172   H     0.26343   0.77083   0.77617   0.00000  Uiso   1.00
H173   H     0.15542   0.21547   0.94422   0.00000  Uiso   1.00
H174   H     0.69020   0.59235   0.28431   0.00000  Uiso   1.00
H175   H     0.15833   0.62606   0.59223   0.00000  Uiso   1.00
O176   O     0.04602   0.13745   0.94125   0.00000  Uiso   1.00
O177   O     0.74762   0.31993   0.38743   0.00000  Uiso   1.00
O178   O     0.04982   0.36415   0.47943   0.00000  Uiso   1.00
N179   N     0.08476   0.87524   0.93742   0.00000  Uiso   1.00
N180   N     0.58474   0.29268   0.25540   0.00000  Uiso   1.00
N181   N     0.08751   0.32416   0.60837   0.00000  Uiso   1.00
N182   N     0.14235   0.09489   0.94198   0.00000  Uiso   1.00
N183   N     0.64233   0.51233   0.25996   0.00000  Uiso   1.00
N184   N     0.14510   0.54381   0.61293   0.00000  Uiso   1.00
